MODEL 1
REMARK VINA RESULT:      -9.1      0.000      0.000
REMARK  5 active torsions:
REMARK  status: ('A' for Active; 'I' for Inactive)
REMARK    1  A    between atoms: C_3  and  O_4 
REMARK    2  A    between atoms: C_6  and  C_7 
REMARK       I    between atoms: N_10  and  C_11 
REMARK    3  A    between atoms: C_11  and  C_12 
REMARK    4  A    between atoms: C_18  and  C_19 
REMARK    5  A    between atoms: C_19  and  O_20 
ROOT
HETATM    1  C   UNL     1      25.563  47.273  49.480  1.00  0.00     0.022 C 
HETATM    2  C   UNL     1      26.611  47.541  50.589  1.00  0.00     0.029 C 
HETATM    3  C   UNL     1      26.136  47.194  52.003  1.00  0.00     0.127 C 
HETATM    4  N   UNL     1      25.522  45.871  52.027  1.00  0.00    -0.348 N 
HETATM    5  C   UNL     1      25.860  44.807  52.858  1.00  0.00     0.253 C 
HETATM    6  O   UNL     1      25.154  43.808  52.987  1.00  0.00    -0.267 OA
HETATM    7  C   UNL     1      24.383  45.729  51.129  1.00  0.00     0.127 C 
HETATM    8  C   UNL     1      24.861  45.913  49.693  1.00  0.00     0.029 C 
ENDROOT
BRANCH   5   9
HETATM    9  C   UNL     1      27.141  44.816  53.603  1.00  0.00     0.034 A 
HETATM   10  C   UNL     1      27.224  45.607  54.758  1.00  0.00     0.051 A 
HETATM   11  C   UNL     1      28.383  45.521  55.540  1.00  0.00     0.086 A 
HETATM   12  C   UNL     1      29.410  44.667  55.154  1.00  0.00     0.062 A 
HETATM   13  N   UNL     1      28.693  46.156  56.718  1.00  0.00    -0.231 NA
HETATM   14  N   UNL     1      30.356  44.807  56.138  1.00  0.00    -0.341 N 
HETATM   15  C   UNL     1      29.355  43.865  54.012  1.00  0.00     0.033 A 
HETATM   16  H   UNL     1      31.226  44.299  56.200  1.00  0.00     0.167 HD
HETATM   17  C   UNL     1      29.882  45.703  57.064  1.00  0.00     0.128 A 
HETATM   18  C   UNL     1      28.182  43.941  53.252  1.00  0.00     0.019 A 
BRANCH  17  19
HETATM   19  C   UNL     1      30.616  46.029  58.312  1.00  0.00     0.242 C 
BRANCH  19  20
HETATM   20  O   UNL     1      31.427  44.904  58.622  1.00  0.00    -0.393 OA
HETATM   21  H   UNL     1      32.347  45.193  58.459  1.00  0.00     0.209 HD
ENDBRANCH  19  20
ENDBRANCH  17  19
ENDBRANCH   5   9
BRANCH   1  22
HETATM   22  C   UNL     1      24.559  48.383  49.188  1.00  0.00    -0.051 A 
HETATM   23  C   UNL     1      23.213  48.343  49.571  1.00  0.00     0.044 A 
HETATM   24  C   UNL     1      22.362  49.408  49.278  1.00  0.00     0.066 A 
HETATM   25  C   UNL     1      22.820  50.534  48.604  1.00  0.00     0.036 A 
HETATM   26  C   UNL     1      24.156  50.596  48.221  1.00  0.00     0.003 A 
HETATM   27  C   UNL     1      25.015  49.534  48.513  1.00  0.00     0.007 A 
BRANCH  24  28
HETATM   28  O   UNL     1      21.063  49.307  49.681  1.00  0.00    -0.361 OA
HETATM   29  H   UNL     1      20.590  48.732  49.057  1.00  0.00     0.217 HD
ENDBRANCH  24  28
ENDBRANCH   1  22
TORSDOF 5
ENDMDL
MODEL 2
REMARK VINA RESULT:      -9.0      2.304      8.666
REMARK  5 active torsions:
REMARK  status: ('A' for Active; 'I' for Inactive)
REMARK    1  A    between atoms: C_3  and  O_4 
REMARK    2  A    between atoms: C_6  and  C_7 
REMARK       I    between atoms: N_10  and  C_11 
REMARK    3  A    between atoms: C_11  and  C_12 
REMARK    4  A    between atoms: C_18  and  C_19 
REMARK    5  A    between atoms: C_19  and  O_20 
ROOT
HETATM    1  C   UNL     1      27.460  43.518  54.111  1.00  0.00     0.022 C 
HETATM    2  C   UNL     1      26.528  44.701  53.750  1.00  0.00     0.029 C 
HETATM    3  C   UNL     1      26.894  45.420  52.449  1.00  0.00     0.127 C 
HETATM    4  N   UNL     1      27.125  44.456  51.379  1.00  0.00    -0.348 N 
HETATM    5  C   UNL     1      26.513  44.430  50.129  1.00  0.00     0.253 C 
HETATM    6  O   UNL     1      26.921  43.738  49.197  1.00  0.00    -0.267 OA
HETATM    7  C   UNL     1      28.181  43.493  51.665  1.00  0.00     0.127 C 
HETATM    8  C   UNL     1      27.767  42.651  52.868  1.00  0.00     0.029 C 
ENDROOT
BRANCH   5   9
HETATM    9  C   UNL     1      25.284  45.221  49.881  1.00  0.00     0.034 A 
HETATM   10  C   UNL     1      25.319  46.595  50.160  1.00  0.00     0.051 A 
HETATM   11  C   UNL     1      24.210  47.373  49.806  1.00  0.00     0.086 A 
HETATM   12  C   UNL     1      23.114  46.770  49.199  1.00  0.00     0.062 A 
HETATM   13  N   UNL     1      24.011  48.726  49.940  1.00  0.00    -0.231 NA
HETATM   14  N   UNL     1      22.243  47.804  48.969  1.00  0.00    -0.341 N 
HETATM   15  C   UNL     1      23.052  45.407  48.904  1.00  0.00     0.033 A 
HETATM   16  H   UNL     1      21.351  47.735  48.499  1.00  0.00     0.167 HD
HETATM   17  C   UNL     1      22.823  48.963  49.419  1.00  0.00     0.128 A 
HETATM   18  C   UNL     1      24.177  44.644  49.240  1.00  0.00     0.019 A 
BRANCH  17  19
HETATM   19  C   UNL     1      22.189  50.296  49.252  1.00  0.00     0.242 C 
BRANCH  19  20
HETATM   20  O   UNL     1      22.085  50.869  50.549  1.00  0.00    -0.393 OA
HETATM   21  H   UNL     1      22.650  51.667  50.527  1.00  0.00     0.209 HD
ENDBRANCH  19  20
ENDBRANCH  17  19
ENDBRANCH   5   9
BRANCH   1  22
HETATM   22  C   UNL     1      28.727  43.844  54.893  1.00  0.00    -0.051 A 
HETATM   23  C   UNL     1      28.879  44.976  55.703  1.00  0.00     0.044 A 
HETATM   24  C   UNL     1      30.068  45.194  56.398  1.00  0.00     0.066 A 
HETATM   25  C   UNL     1      31.129  44.301  56.313  1.00  0.00     0.036 A 
HETATM   26  C   UNL     1      30.996  43.167  55.518  1.00  0.00     0.003 A 
HETATM   27  C   UNL     1      29.807  42.941  54.821  1.00  0.00     0.007 A 
BRANCH  24  28
HETATM   28  O   UNL     1      30.150  46.315  57.172  1.00  0.00    -0.361 OA
HETATM   29  H   UNL     1      31.066  46.409  57.483  1.00  0.00     0.217 HD
ENDBRANCH  24  28
ENDBRANCH   1  22
TORSDOF 5
ENDMDL
MODEL 3
REMARK VINA RESULT:      -8.8      3.816      5.341
REMARK  5 active torsions:
REMARK  status: ('A' for Active; 'I' for Inactive)
REMARK    1  A    between atoms: C_3  and  O_4 
REMARK    2  A    between atoms: C_6  and  C_7 
REMARK       I    between atoms: N_10  and  C_11 
REMARK    3  A    between atoms: C_11  and  C_12 
REMARK    4  A    between atoms: C_18  and  C_19 
REMARK    5  A    between atoms: C_19  and  O_20 
ROOT
HETATM    1  C   UNL     1      25.351  46.249  49.757  1.00  0.00     0.022 C 
HETATM    2  C   UNL     1      26.456  45.172  49.622  1.00  0.00     0.029 C 
HETATM    3  C   UNL     1      27.384  45.065  50.836  1.00  0.00     0.127 C 
HETATM    4  N   UNL     1      26.610  45.017  52.071  1.00  0.00    -0.348 N 
HETATM    5  C   UNL     1      26.686  44.050  53.069  1.00  0.00     0.253 C 
HETATM    6  O   UNL     1      26.180  44.194  54.181  1.00  0.00    -0.267 OA
HETATM    7  C   UNL     1      25.746  46.172  52.275  1.00  0.00     0.127 C 
HETATM    8  C   UNL     1      24.705  46.212  51.161  1.00  0.00     0.029 C 
ENDROOT
BRANCH   5   9
HETATM    9  C   UNL     1      27.356  42.754  52.806  1.00  0.00     0.034 A 
HETATM   10  C   UNL     1      27.072  42.101  51.598  1.00  0.00     0.051 A 
HETATM   11  C   UNL     1      27.798  40.945  51.281  1.00  0.00     0.086 A 
HETATM   12  C   UNL     1      28.765  40.479  52.165  1.00  0.00     0.062 A 
HETATM   13  N   UNL     1      27.736  40.151  50.163  1.00  0.00    -0.231 NA
HETATM   14  N   UNL     1      29.287  39.373  51.543  1.00  0.00    -0.341 N 
HETATM   15  C   UNL     1      29.072  41.109  53.372  1.00  0.00     0.033 A 
HETATM   16  H   UNL     1      30.047  38.803  51.886  1.00  0.00     0.167 HD
HETATM   17  C   UNL     1      28.648  39.216  50.338  1.00  0.00     0.128 A 
HETATM   18  C   UNL     1      28.358  42.277  53.665  1.00  0.00     0.019 A 
BRANCH  17  19
HETATM   19  C   UNL     1      29.023  38.162  49.362  1.00  0.00     0.242 C 
BRANCH  19  20
HETATM   20  O   UNL     1      29.992  37.337  49.997  1.00  0.00    -0.393 OA
HETATM   21  H   UNL     1      29.992  37.612  50.936  1.00  0.00     0.209 HD
ENDBRANCH  19  20
ENDBRANCH  17  19
ENDBRANCH   5   9
BRANCH   1  22
HETATM   22  C   UNL     1      25.710  47.671  49.343  1.00  0.00    -0.051 A 
HETATM   23  C   UNL     1      27.013  48.183  49.347  1.00  0.00     0.044 A 
HETATM   24  C   UNL     1      27.260  49.493  48.938  1.00  0.00     0.066 A 
HETATM   25  C   UNL     1      26.230  50.324  48.516  1.00  0.00     0.036 A 
HETATM   26  C   UNL     1      24.928  49.832  48.499  1.00  0.00     0.003 A 
HETATM   27  C   UNL     1      24.674  48.520  48.904  1.00  0.00     0.007 A 
BRANCH  24  28
HETATM   28  O   UNL     1      28.553  49.930  48.963  1.00  0.00    -0.361 OA
HETATM   29  H   UNL     1      28.990  49.646  48.143  1.00  0.00     0.217 HD
ENDBRANCH  24  28
ENDBRANCH   1  22
TORSDOF 5
ENDMDL
MODEL 4
REMARK VINA RESULT:      -8.8      6.147     11.518
REMARK  5 active torsions:
REMARK  status: ('A' for Active; 'I' for Inactive)
REMARK    1  A    between atoms: C_3  and  O_4 
REMARK    2  A    between atoms: C_6  and  C_7 
REMARK       I    between atoms: N_10  and  C_11 
REMARK    3  A    between atoms: C_11  and  C_12 
REMARK    4  A    between atoms: C_18  and  C_19 
REMARK    5  A    between atoms: C_19  and  O_20 
ROOT
HETATM    1  C   UNL     1      23.188  49.774  47.864  1.00  0.00     0.022 C 
HETATM    2  C   UNL     1      22.053  48.725  47.769  1.00  0.00     0.029 C 
HETATM    3  C   UNL     1      21.196  48.605  49.033  1.00  0.00     0.127 C 
HETATM    4  N   UNL     1      20.793  49.925  49.505  1.00  0.00    -0.348 N 
HETATM    5  C   UNL     1      19.497  50.361  49.764  1.00  0.00     0.253 C 
HETATM    6  O   UNL     1      19.248  51.398  50.378  1.00  0.00    -0.267 OA
HETATM    7  C   UNL     1      21.907  50.814  49.807  1.00  0.00     0.127 C 
HETATM    8  C   UNL     1      22.688  51.079  48.525  1.00  0.00     0.029 C 
ENDROOT
BRANCH   5   9
HETATM    9  C   UNL     1      18.334  49.596  49.253  1.00  0.00     0.034 A 
HETATM   10  C   UNL     1      17.493  50.222  48.322  1.00  0.00     0.051 A 
HETATM   11  C   UNL     1      16.471  49.466  47.735  1.00  0.00     0.086 A 
HETATM   12  C   UNL     1      16.315  48.130  48.091  1.00  0.00     0.062 A 
HETATM   13  N   UNL     1      15.548  49.828  46.785  1.00  0.00    -0.231 NA
HETATM   14  N   UNL     1      15.264  47.695  47.324  1.00  0.00    -0.341 N 
HETATM   15  C   UNL     1      17.139  47.479  49.012  1.00  0.00     0.033 A 
HETATM   16  H   UNL     1      14.901  46.753  47.295  1.00  0.00     0.167 HD
HETATM   17  C   UNL     1      14.838  48.743  46.546  1.00  0.00     0.128 A 
HETATM   18  C   UNL     1      18.172  48.239  49.572  1.00  0.00     0.019 A 
BRANCH  17  19
HETATM   19  C   UNL     1      13.764  48.603  45.530  1.00  0.00     0.242 C 
BRANCH  19  20
HETATM   20  O   UNL     1      13.011  47.450  45.882  1.00  0.00    -0.393 OA
HETATM   21  H   UNL     1      13.275  46.761  45.239  1.00  0.00     0.209 HD
ENDBRANCH  19  20
ENDBRANCH  17  19
ENDBRANCH   5   9
BRANCH   1  22
HETATM   22  C   UNL     1      24.512  49.314  48.464  1.00  0.00    -0.051 A 
HETATM   23  C   UNL     1      25.743  49.933  48.216  1.00  0.00     0.044 A 
HETATM   24  C   UNL     1      26.909  49.458  48.816  1.00  0.00     0.066 A 
HETATM   25  C   UNL     1      26.885  48.365  49.674  1.00  0.00     0.036 A 
HETATM   26  C   UNL     1      25.671  47.738  49.938  1.00  0.00     0.003 A 
HETATM   27  C   UNL     1      24.499  48.211  49.342  1.00  0.00     0.007 A 
BRANCH  24  28
HETATM   28  O   UNL     1      28.074  50.109  48.536  1.00  0.00    -0.361 OA
HETATM   29  H   UNL     1      27.870  51.040  48.350  1.00  0.00     0.217 HD
ENDBRANCH  24  28
ENDBRANCH   1  22
TORSDOF 5
ENDMDL
MODEL 5
REMARK VINA RESULT:      -8.5      8.263     13.255
REMARK  5 active torsions:
REMARK  status: ('A' for Active; 'I' for Inactive)
REMARK    1  A    between atoms: C_3  and  O_4 
REMARK    2  A    between atoms: C_6  and  C_7 
REMARK       I    between atoms: N_10  and  C_11 
REMARK    3  A    between atoms: C_11  and  C_12 
REMARK    4  A    between atoms: C_18  and  C_19 
REMARK    5  A    between atoms: C_19  and  O_20 
ROOT
HETATM    1  C   UNL     1      19.705  50.234  49.935  1.00  0.00     0.022 C 
HETATM    2  C   UNL     1      19.077  51.649  49.937  1.00  0.00     0.029 C 
HETATM    3  C   UNL     1      18.269  51.983  48.679  1.00  0.00     0.127 C 
HETATM    4  N   UNL     1      17.357  50.893  48.352  1.00  0.00    -0.348 N 
HETATM    5  C   UNL     1      15.982  50.982  48.158  1.00  0.00     0.253 C 
HETATM    6  O   UNL     1      15.316  50.076  47.658  1.00  0.00    -0.267 OA
HETATM    7  C   UNL     1      18.018  49.614  48.127  1.00  0.00     0.127 C 
HETATM    8  C   UNL     1      18.701  49.178  49.419  1.00  0.00     0.029 C 
ENDROOT
BRANCH   5   9
HETATM    9  C   UNL     1      15.239  52.185  48.602  1.00  0.00     0.034 A 
HETATM   10  C   UNL     1      15.007  52.343  49.976  1.00  0.00     0.051 A 
HETATM   11  C   UNL     1      14.424  53.538  50.418  1.00  0.00     0.086 A 
HETATM   12  C   UNL     1      14.091  54.522  49.495  1.00  0.00     0.062 A 
HETATM   13  N   UNL     1      14.127  53.947  51.695  1.00  0.00    -0.231 NA
HETATM   14  N   UNL     1      13.581  55.543  50.255  1.00  0.00    -0.341 N 
HETATM   15  C   UNL     1      14.314  54.395  48.122  1.00  0.00     0.033 A 
HETATM   16  H   UNL     1      13.273  56.442  49.912  1.00  0.00     0.167 HD
HETATM   17  C   UNL     1      13.629  55.162  51.573  1.00  0.00     0.128 A 
HETATM   18  C   UNL     1      14.920  53.208  47.695  1.00  0.00     0.019 A 
BRANCH  17  19
HETATM   19  C   UNL     1      13.231  56.062  52.684  1.00  0.00     0.242 C 
BRANCH  19  20
HETATM   20  O   UNL     1      13.073  55.249  53.839  1.00  0.00    -0.393 OA
HETATM   21  H   UNL     1      12.232  55.537  54.248  1.00  0.00     0.209 HD
ENDBRANCH  19  20
ENDBRANCH  17  19
ENDBRANCH   5   9
BRANCH   1  22
HETATM   22  C   UNL     1      21.070  50.080  49.273  1.00  0.00    -0.051 A 
HETATM   23  C   UNL     1      21.661  48.847  48.973  1.00  0.00     0.044 A 
HETATM   24  C   UNL     1      22.909  48.792  48.352  1.00  0.00     0.066 A 
HETATM   25  C   UNL     1      23.597  49.950  48.012  1.00  0.00     0.036 A 
HETATM   26  C   UNL     1      23.024  51.186  48.296  1.00  0.00     0.003 A 
HETATM   27  C   UNL     1      21.774  51.248  48.916  1.00  0.00     0.007 A 
BRANCH  24  28
HETATM   28  O   UNL     1      23.427  47.559  48.084  1.00  0.00    -0.361 OA
HETATM   29  H   UNL     1      23.459  47.440  47.121  1.00  0.00     0.217 HD
ENDBRANCH  24  28
ENDBRANCH   1  22
TORSDOF 5
ENDMDL
MODEL 6
REMARK VINA RESULT:      -8.4      3.914      7.386
REMARK  5 active torsions:
REMARK  status: ('A' for Active; 'I' for Inactive)
REMARK    1  A    between atoms: C_3  and  O_4 
REMARK    2  A    between atoms: C_6  and  C_7 
REMARK       I    between atoms: N_10  and  C_11 
REMARK    3  A    between atoms: C_11  and  C_12 
REMARK    4  A    between atoms: C_18  and  C_19 
REMARK    5  A    between atoms: C_19  and  O_20 
ROOT
HETATM    1  C   UNL     1      19.404  50.950  50.066  1.00  0.00     0.022 C 
HETATM    2  C   UNL     1      19.709  49.446  50.275  1.00  0.00     0.029 C 
HETATM    3  C   UNL     1      20.209  48.722  49.021  1.00  0.00     0.127 C 
HETATM    4  N   UNL     1      21.264  49.492  48.373  1.00  0.00    -0.348 N 
HETATM    5  C   UNL     1      22.538  49.044  48.034  1.00  0.00     0.253 C 
HETATM    6  O   UNL     1      23.289  49.667  47.284  1.00  0.00    -0.267 OA
HETATM    7  C   UNL     1      20.863  50.836  47.978  1.00  0.00     0.127 C 
HETATM    8  C   UNL     1      20.511  51.632  49.230  1.00  0.00     0.029 C 
ENDROOT
BRANCH   5   9
HETATM    9  C   UNL     1      23.071  47.790  48.617  1.00  0.00     0.034 A 
HETATM   10  C   UNL     1      23.915  47.891  49.732  1.00  0.00     0.051 A 
HETATM   11  C   UNL     1      24.317  46.711  50.370  1.00  0.00     0.086 A 
HETATM   12  C   UNL     1      23.877  45.484  49.884  1.00  0.00     0.062 A 
HETATM   13  N   UNL     1      25.102  46.541  51.484  1.00  0.00    -0.231 NA
HETATM   14  N   UNL     1      24.424  44.564  50.742  1.00  0.00    -0.341 N 
HETATM   15  C   UNL     1      23.033  45.353  48.780  1.00  0.00     0.033 A 
HETATM   16  H   UNL     1      24.278  43.565  50.712  1.00  0.00     0.167 HD
HETATM   17  C   UNL     1      25.145  45.240  51.695  1.00  0.00     0.128 A 
HETATM   18  C   UNL     1      22.619  46.540  48.166  1.00  0.00     0.019 A 
BRANCH  17  19
HETATM   19  C   UNL     1      25.806  44.557  52.836  1.00  0.00     0.242 C 
BRANCH  19  20
HETATM   20  O   UNL     1      24.836  43.698  53.420  1.00  0.00    -0.393 OA
HETATM   21  H   UNL     1      24.120  44.288  53.732  1.00  0.00     0.209 HD
ENDBRANCH  19  20
ENDBRANCH  17  19
ENDBRANCH   5   9
BRANCH   1  22
HETATM   22  C   UNL     1      18.013  51.314  49.558  1.00  0.00    -0.051 A 
HETATM   23  C   UNL     1      17.435  52.581  49.695  1.00  0.00     0.044 A 
HETATM   24  C   UNL     1      16.161  52.836  49.189  1.00  0.00     0.066 A 
HETATM   25  C   UNL     1      15.432  51.850  48.537  1.00  0.00     0.036 A 
HETATM   26  C   UNL     1      15.992  50.585  48.385  1.00  0.00     0.003 A 
HETATM   27  C   UNL     1      17.268  50.323  48.887  1.00  0.00     0.007 A 
BRANCH  24  28
HETATM   28  O   UNL     1      15.657  54.094  49.353  1.00  0.00    -0.361 OA
HETATM   29  H   UNL     1      16.288  54.613  49.877  1.00  0.00     0.217 HD
ENDBRANCH  24  28
ENDBRANCH   1  22
TORSDOF 5
ENDMDL
MODEL 7
REMARK VINA RESULT:      -8.4      3.324      9.323
REMARK  5 active torsions:
REMARK  status: ('A' for Active; 'I' for Inactive)
REMARK    1  A    between atoms: C_3  and  O_4 
REMARK    2  A    between atoms: C_6  and  C_7 
REMARK       I    between atoms: N_10  and  C_11 
REMARK    3  A    between atoms: C_11  and  C_12 
REMARK    4  A    between atoms: C_18  and  C_19 
REMARK    5  A    between atoms: C_19  and  O_20 
ROOT
HETATM    1  C   UNL     1      26.059  44.957  50.658  1.00  0.00     0.022 C 
HETATM    2  C   UNL     1      24.691  45.592  51.010  1.00  0.00     0.029 C 
HETATM    3  C   UNL     1      24.715  47.119  51.126  1.00  0.00     0.127 C 
HETATM    4  N   UNL     1      25.404  47.709  49.985  1.00  0.00    -0.348 N 
HETATM    5  C   UNL     1      24.915  48.689  49.126  1.00  0.00     0.253 C 
HETATM    6  O   UNL     1      25.628  49.304  48.335  1.00  0.00    -0.267 OA
HETATM    7  C   UNL     1      26.780  47.256  49.823  1.00  0.00     0.127 C 
HETATM    8  C   UNL     1      26.775  45.756  49.545  1.00  0.00     0.029 C 
ENDROOT
BRANCH   5   9
HETATM    9  C   UNL     1      23.466  49.003  49.097  1.00  0.00     0.034 A 
HETATM   10  C   UNL     1      22.576  47.968  48.774  1.00  0.00     0.051 A 
HETATM   11  C   UNL     1      21.202  48.220  48.873  1.00  0.00     0.086 A 
HETATM   12  C   UNL     1      20.761  49.475  49.279  1.00  0.00     0.062 A 
HETATM   13  N   UNL     1      20.139  47.379  48.648  1.00  0.00    -0.231 NA
HETATM   14  N   UNL     1      19.394  49.366  49.292  1.00  0.00    -0.341 N 
HETATM   15  C   UNL     1      21.623  50.522  49.611  1.00  0.00     0.033 A 
HETATM   16  H   UNL     1      18.744  50.084  49.581  1.00  0.00     0.167 HD
HETATM   17  C   UNL     1      19.061  48.088  48.917  1.00  0.00     0.128 A 
HETATM   18  C   UNL     1      22.994  50.251  49.533  1.00  0.00     0.019 A 
BRANCH  17  19
HETATM   19  C   UNL     1      17.660  47.595  48.902  1.00  0.00     0.242 C 
BRANCH  19  20
HETATM   20  O   UNL     1      17.721  46.185  48.733  1.00  0.00    -0.393 OA
HETATM   21  H   UNL     1      17.135  45.815  49.424  1.00  0.00     0.209 HD
ENDBRANCH  19  20
ENDBRANCH  17  19
ENDBRANCH   5   9
BRANCH   1  22
HETATM   22  C   UNL     1      27.000  44.644  51.817  1.00  0.00    -0.051 A 
HETATM   23  C   UNL     1      28.136  43.834  51.708  1.00  0.00     0.044 A 
HETATM   24  C   UNL     1      28.954  43.609  52.815  1.00  0.00     0.066 A 
HETATM   25  C   UNL     1      28.669  44.178  54.050  1.00  0.00     0.036 A 
HETATM   26  C   UNL     1      27.548  44.991  54.178  1.00  0.00     0.003 A 
HETATM   27  C   UNL     1      26.726  45.223  53.073  1.00  0.00     0.007 A 
BRANCH  24  28
HETATM   28  O   UNL     1      30.047  42.812  52.640  1.00  0.00    -0.361 OA
HETATM   29  H   UNL     1      29.978  42.379  51.774  1.00  0.00     0.217 HD
ENDBRANCH  24  28
ENDBRANCH   1  22
TORSDOF 5
ENDMDL
MODEL 8
REMARK VINA RESULT:      -8.3      3.315      9.459
REMARK  5 active torsions:
REMARK  status: ('A' for Active; 'I' for Inactive)
REMARK    1  A    between atoms: C_3  and  O_4 
REMARK    2  A    between atoms: C_6  and  C_7 
REMARK       I    between atoms: N_10  and  C_11 
REMARK    3  A    between atoms: C_11  and  C_12 
REMARK    4  A    between atoms: C_18  and  C_19 
REMARK    5  A    between atoms: C_19  and  O_20 
ROOT
HETATM    1  C   UNL     1      26.166  44.827  50.638  1.00  0.00     0.022 C 
HETATM    2  C   UNL     1      24.748  45.352  50.974  1.00  0.00     0.029 C 
HETATM    3  C   UNL     1      24.661  46.872  51.144  1.00  0.00     0.127 C 
HETATM    4  N   UNL     1      25.337  47.550  50.044  1.00  0.00    -0.348 N 
HETATM    5  C   UNL     1      24.802  48.524  49.206  1.00  0.00     0.253 C 
HETATM    6  O   UNL     1      25.490  49.217  48.458  1.00  0.00    -0.267 OA
HETATM    7  C   UNL     1      26.744  47.199  49.904  1.00  0.00     0.127 C 
HETATM    8  C   UNL     1      26.852  45.714  49.574  1.00  0.00     0.029 C 
ENDROOT
BRANCH   5   9
HETATM    9  C   UNL     1      23.336  48.738  49.148  1.00  0.00     0.034 A 
HETATM   10  C   UNL     1      22.825  49.935  49.672  1.00  0.00     0.051 A 
HETATM   11  C   UNL     1      21.461  50.205  49.503  1.00  0.00     0.086 A 
HETATM   12  C   UNL     1      20.658  49.289  48.834  1.00  0.00     0.062 A 
HETATM   13  N   UNL     1      20.732  51.304  49.887  1.00  0.00    -0.231 NA
HETATM   14  N   UNL     1      19.415  49.869  48.825  1.00  0.00    -0.341 N 
HETATM   15  C   UNL     1      21.138  48.092  48.299  1.00  0.00     0.033 A 
HETATM   16  H   UNL     1      18.588  49.495  48.382  1.00  0.00     0.167 HD
HETATM   17  C   UNL     1      19.504  51.084  49.459  1.00  0.00     0.128 A 
HETATM   18  C   UNL     1      22.507  47.845  48.451  1.00  0.00     0.019 A 
BRANCH  17  19
HETATM   19  C   UNL     1      18.359  52.023  49.560  1.00  0.00     0.242 C 
BRANCH  19  20
HETATM   20  O   UNL     1      18.477  52.935  48.476  1.00  0.00    -0.393 OA
HETATM   21  H   UNL     1      18.634  52.380  47.685  1.00  0.00     0.209 HD
ENDBRANCH  19  20
ENDBRANCH  17  19
ENDBRANCH   5   9
BRANCH   1  22
HETATM   22  C   UNL     1      27.096  44.538  51.811  1.00  0.00    -0.051 A 
HETATM   23  C   UNL     1      28.232  43.724  51.729  1.00  0.00     0.044 A 
HETATM   24  C   UNL     1      29.040  43.520  52.847  1.00  0.00     0.066 A 
HETATM   25  C   UNL     1      28.747  44.116  54.068  1.00  0.00     0.036 A 
HETATM   26  C   UNL     1      27.626  44.934  54.169  1.00  0.00     0.003 A 
HETATM   27  C   UNL     1      26.813  45.144  53.052  1.00  0.00     0.007 A 
BRANCH  24  28
HETATM   28  O   UNL     1      30.134  42.719  52.698  1.00  0.00    -0.361 OA
HETATM   29  H   UNL     1      30.071  42.267  51.841  1.00  0.00     0.217 HD
ENDBRANCH  24  28
ENDBRANCH   1  22
TORSDOF 5
ENDMDL
MODEL 9
REMARK VINA RESULT:      -8.3     16.445     18.456
REMARK  5 active torsions:
REMARK  status: ('A' for Active; 'I' for Inactive)
REMARK    1  A    between atoms: C_3  and  O_4 
REMARK    2  A    between atoms: C_6  and  C_7 
REMARK       I    between atoms: N_10  and  C_11 
REMARK    3  A    between atoms: C_11  and  C_12 
REMARK    4  A    between atoms: C_18  and  C_19 
REMARK    5  A    between atoms: C_19  and  O_20 
ROOT
HETATM    1  C   UNL     1      38.588  49.272  64.937  1.00  0.00     0.022 C 
HETATM    2  C   UNL     1      39.479  48.008  65.015  1.00  0.00     0.029 C 
HETATM    3  C   UNL     1      38.793  46.790  65.640  1.00  0.00     0.127 C 
HETATM    4  N   UNL     1      37.472  46.590  65.056  1.00  0.00    -0.348 N 
HETATM    5  C   UNL     1      36.985  45.426  64.468  1.00  0.00     0.253 C 
HETATM    6  O   UNL     1      35.794  45.254  64.209  1.00  0.00    -0.267 OA
HETATM    7  C   UNL     1      36.577  47.729  65.208  1.00  0.00     0.127 C 
HETATM    8  C   UNL     1      37.161  48.920  64.456  1.00  0.00     0.029 C 
ENDROOT
BRANCH   5   9
HETATM    9  C   UNL     1      37.914  44.339  64.076  1.00  0.00     0.034 A 
HETATM   10  C   UNL     1      37.976  43.202  64.894  1.00  0.00     0.051 A 
HETATM   11  C   UNL     1      38.750  42.116  64.464  1.00  0.00     0.086 A 
HETATM   12  C   UNL     1      39.431  42.196  63.254  1.00  0.00     0.062 A 
HETATM   13  N   UNL     1      38.946  40.892  65.055  1.00  0.00    -0.231 NA
HETATM   14  N   UNL     1      40.050  40.977  63.132  1.00  0.00    -0.341 N 
HETATM   15  C   UNL     1      39.385  43.313  62.418  1.00  0.00     0.033 A 
HETATM   16  H   UNL     1      40.603  40.669  62.346  1.00  0.00     0.167 HD
HETATM   17  C   UNL     1      39.725  40.219  64.230  1.00  0.00     0.128 A 
HETATM   18  C   UNL     1      38.589  44.381  62.846  1.00  0.00     0.019 A 
BRANCH  17  19
HETATM   19  C   UNL     1      40.156  38.807  64.387  1.00  0.00     0.242 C 
BRANCH  19  20
HETATM   20  O   UNL     1      40.495  38.333  63.090  1.00  0.00    -0.393 OA
HETATM   21  H   UNL     1      40.199  39.031  62.472  1.00  0.00     0.209 HD
ENDBRANCH  19  20
ENDBRANCH  17  19
ENDBRANCH   5   9
BRANCH   1  22
HETATM   22  C   UNL     1      38.558  50.180  66.161  1.00  0.00    -0.051 A 
HETATM   23  C   UNL     1      39.303  49.952  67.325  1.00  0.00     0.044 A 
HETATM   24  C   UNL     1      39.230  50.841  68.397  1.00  0.00     0.066 A 
HETATM   25  C   UNL     1      38.425  51.972  68.344  1.00  0.00     0.036 A 
HETATM   26  C   UNL     1      37.682  52.220  67.194  1.00  0.00     0.003 A 
HETATM   27  C   UNL     1      37.752  51.336  66.116  1.00  0.00     0.007 A 
BRANCH  24  28
HETATM   28  O   UNL     1      39.983  50.562  69.500  1.00  0.00    -0.361 OA
HETATM   29  H   UNL     1      39.837  51.260  70.158  1.00  0.00     0.217 HD
ENDBRANCH  24  28
ENDBRANCH   1  22
TORSDOF 5
ENDMDL
MODEL 10
REMARK VINA RESULT:      -8.0      4.918      7.675
REMARK  5 active torsions:
REMARK  status: ('A' for Active; 'I' for Inactive)
REMARK    1  A    between atoms: C_3  and  O_4 
REMARK    2  A    between atoms: C_6  and  C_7 
REMARK       I    between atoms: N_10  and  C_11 
REMARK    3  A    between atoms: C_11  and  C_12 
REMARK    4  A    between atoms: C_18  and  C_19 
REMARK    5  A    between atoms: C_19  and  O_20 
ROOT
HETATM    1  C   UNL     1      19.450  51.130  49.929  1.00  0.00     0.022 C 
HETATM    2  C   UNL     1      19.829  49.712  50.422  1.00  0.00     0.029 C 
HETATM    3  C   UNL     1      20.309  48.766  49.317  1.00  0.00     0.127 C 
HETATM    4  N   UNL     1      21.302  49.423  48.476  1.00  0.00    -0.348 N 
HETATM    5  C   UNL     1      22.579  48.961  48.173  1.00  0.00     0.253 C 
HETATM    6  O   UNL     1      23.272  49.443  47.277  1.00  0.00    -0.267 OA
HETATM    7  C   UNL     1      20.827  50.644  47.839  1.00  0.00     0.127 C 
HETATM    8  C   UNL     1      20.492  51.666  48.920  1.00  0.00     0.029 C 
ENDROOT
BRANCH   5   9
HETATM    9  C   UNL     1      23.190  47.871  48.970  1.00  0.00     0.034 A 
HETATM   10  C   UNL     1      22.837  46.550  48.656  1.00  0.00     0.051 A 
HETATM   11  C   UNL     1      23.506  45.510  49.314  1.00  0.00     0.086 A 
HETATM   12  C   UNL     1      24.487  45.810  50.252  1.00  0.00     0.062 A 
HETATM   13  N   UNL     1      23.372  44.151  49.165  1.00  0.00    -0.231 NA
HETATM   14  N   UNL     1      24.944  44.585  50.669  1.00  0.00    -0.341 N 
HETATM   15  C   UNL     1      24.863  47.114  50.582  1.00  0.00     0.033 A 
HETATM   16  H   UNL     1      25.695  44.424  51.325  1.00  0.00     0.167 HD
HETATM   17  C   UNL     1      24.255  43.615  49.984  1.00  0.00     0.128 A 
HETATM   18  C   UNL     1      24.205  48.144  49.900  1.00  0.00     0.019 A 
BRANCH  17  19
HETATM   19  C   UNL     1      24.553  42.167  50.127  1.00  0.00     0.242 C 
BRANCH  19  20
HETATM   20  O   UNL     1      25.528  42.046  51.155  1.00  0.00    -0.393 OA
HETATM   21  H   UNL     1      25.987  42.909  51.180  1.00  0.00     0.209 HD
ENDBRANCH  19  20
ENDBRANCH  17  19
ENDBRANCH   5   9
BRANCH   1  22
HETATM   22  C   UNL     1      18.026  51.335  49.427  1.00  0.00    -0.051 A 
HETATM   23  C   UNL     1      17.276  50.350  48.773  1.00  0.00     0.044 A 
HETATM   24  C   UNL     1      15.971  50.613  48.357  1.00  0.00     0.066 A 
HETATM   25  C   UNL     1      15.379  51.851  48.578  1.00  0.00     0.036 A 
HETATM   26  C   UNL     1      16.105  52.841  49.231  1.00  0.00     0.003 A 
HETATM   27  C   UNL     1      17.411  52.583  49.653  1.00  0.00     0.007 A 
BRANCH  24  28
HETATM   28  O   UNL     1      15.294  49.609  47.729  1.00  0.00    -0.361 OA
HETATM   29  H   UNL     1      15.868  49.232  47.042  1.00  0.00     0.217 HD
ENDBRANCH  24  28
ENDBRANCH   1  22
TORSDOF 5
ENDMDL
