MODEL 1
REMARK VINA RESULT:      -8.3      0.000      0.000
REMARK  8 active torsions:
REMARK  status: ('A' for Active; 'I' for Inactive)
REMARK    1  A    between atoms: C_3  and  C_4 
REMARK       I    between atoms: C_4  and  N_5 
REMARK    2  A    between atoms: N_5  and  C_6 
REMARK    3  A    between atoms: C_8  and  C_9 
REMARK    4  A    between atoms: C_9  and  C_10 
REMARK    5  A    between atoms: C_10  and  N_11 
REMARK    6  A    between atoms: C_21  and  O_22 
REMARK    7  A    between atoms: O_22  and  C_23 
REMARK    8  A    between atoms: C_23  and  C_24 
ROOT
HETATM    1  C   UNL     1      26.013  46.763  51.915  1.00  0.00     0.259 C 
HETATM    2  N   UNL     1      26.500  46.952  50.633  1.00  0.00    -0.323 N 
HETATM    3  O   UNL     1      25.261  47.537  52.501  1.00  0.00    -0.267 OA
HETATM    4  H   UNL     1      27.145  46.244  50.301  1.00  0.00     0.169 HD
ENDROOT
BRANCH   2   5
HETATM    5  C   UNL     1      26.179  48.001  49.741  1.00  0.00     0.035 A 
HETATM    6  C   UNL     1      24.832  48.166  49.379  1.00  0.00     0.036 A 
HETATM    7  C   UNL     1      24.422  49.205  48.517  1.00  0.00    -0.054 A 
HETATM    8  C   UNL     1      25.394  50.095  48.040  1.00  0.00     0.007 A 
HETATM    9  C   UNL     1      26.733  49.929  48.382  1.00  0.00     0.003 A 
HETATM   10  C   UNL     1      27.121  48.888  49.223  1.00  0.00     0.029 A 
BRANCH   7  11
HETATM   11  C   UNL     1      22.949  49.372  48.207  1.00  0.00     0.066 C 
BRANCH  11  12
HETATM   12  C   UNL     1      22.011  48.507  49.062  1.00  0.00     0.239 C 
BRANCH  12  13
HETATM   13  N   UNL     1      20.920  49.336  49.713  1.00  0.00    -0.071 N 
HETATM   14  H   UNL     1      20.794  48.993  50.675  1.00  0.00     0.279 HD
HETATM   15  C   UNL     1      19.582  49.188  49.002  1.00  0.00     0.235 C 
HETATM   16  C   UNL     1      19.419  50.491  48.249  1.00  0.00     0.029 C 
HETATM   17  C   UNL     1      19.979  51.505  49.222  1.00  0.00     0.029 C 
HETATM   18  C   UNL     1      21.226  50.828  49.763  1.00  0.00     0.235 C 
ENDBRANCH  12  13
ENDBRANCH  11  12
ENDBRANCH   7  11
ENDBRANCH   2   5
BRANCH   1  19
HETATM   19  C   UNL     1      26.433  45.512  52.638  1.00  0.00     0.065 A 
HETATM   20  C   UNL     1      26.273  45.524  54.038  1.00  0.00     0.020 A 
HETATM   21  C   UNL     1      26.624  44.424  54.820  1.00  0.00     0.001 A 
HETATM   22  C   UNL     1      27.154  43.292  54.214  1.00  0.00     0.003 A 
HETATM   23  C   UNL     1      27.322  43.260  52.830  1.00  0.00     0.038 A 
HETATM   24  C   UNL     1      26.940  44.349  52.028  1.00  0.00     0.084 A 
BRANCH  24  25
HETATM   25  O   UNL     1      27.151  44.325  50.672  1.00  0.00    -0.348 OA
BRANCH  25  26
HETATM   26  C   UNL     1      26.916  43.059  50.038  1.00  0.00     0.207 C 
BRANCH  26  27
HETATM   27  C   UNL     1      25.684  43.146  49.124  1.00  0.00     0.145 C 
HETATM   28  O   UNL     1      25.192  44.500  49.140  1.00  0.00    -0.384 OA
HETATM   29  C   UNL     1      23.916  44.522  49.800  1.00  0.00     0.168 C 
HETATM   30  C   UNL     1      23.747  43.181  50.479  1.00  0.00     0.029 C 
HETATM   31  C   UNL     1      24.520  42.268  49.560  1.00  0.00     0.036 C 
ENDBRANCH  26  27
ENDBRANCH  25  26
ENDBRANCH  24  25
ENDBRANCH   1  19
TORSDOF 8
ENDMDL
MODEL 2
REMARK VINA RESULT:      -8.1      2.546      7.518
REMARK  8 active torsions:
REMARK  status: ('A' for Active; 'I' for Inactive)
REMARK    1  A    between atoms: C_3  and  C_4 
REMARK       I    between atoms: C_4  and  N_5 
REMARK    2  A    between atoms: N_5  and  C_6 
REMARK    3  A    between atoms: C_8  and  C_9 
REMARK    4  A    between atoms: C_9  and  C_10 
REMARK    5  A    between atoms: C_10  and  N_11 
REMARK    6  A    between atoms: C_21  and  O_22 
REMARK    7  A    between atoms: O_22  and  C_23 
REMARK    8  A    between atoms: C_23  and  C_24 
ROOT
HETATM    1  C   UNL     1      22.163  50.435  49.032  1.00  0.00     0.259 C 
HETATM    2  N   UNL     1      23.058  49.706  48.268  1.00  0.00    -0.323 N 
HETATM    3  O   UNL     1      22.396  50.878  50.153  1.00  0.00    -0.267 OA
HETATM    4  H   UNL     1      22.705  49.374  47.377  1.00  0.00     0.169 HD
ENDROOT
BRANCH   2   5
HETATM    5  C   UNL     1      24.402  49.401  48.583  1.00  0.00     0.035 A 
HETATM    6  C   UNL     1      24.647  48.318  49.442  1.00  0.00     0.036 A 
HETATM    7  C   UNL     1      25.959  47.928  49.785  1.00  0.00    -0.054 A 
HETATM    8  C   UNL     1      27.029  48.639  49.225  1.00  0.00     0.007 A 
HETATM    9  C   UNL     1      26.795  49.723  48.384  1.00  0.00     0.003 A 
HETATM   10  C   UNL     1      25.492  50.102  48.069  1.00  0.00     0.029 A 
BRANCH   7  11
HETATM   11  C   UNL     1      26.165  46.716  50.669  1.00  0.00     0.066 C 
BRANCH  11  12
HETATM   12  C   UNL     1      25.282  46.681  51.925  1.00  0.00     0.239 C 
BRANCH  12  13
HETATM   13  N   UNL     1      25.636  45.514  52.828  1.00  0.00    -0.071 N 
HETATM   14  H   UNL     1      24.840  44.862  52.828  1.00  0.00     0.279 HD
HETATM   15  C   UNL     1      25.863  45.949  54.269  1.00  0.00     0.235 C 
HETATM   16  C   UNL     1      27.365  45.881  54.443  1.00  0.00     0.029 C 
HETATM   17  C   UNL     1      27.730  44.642  53.655  1.00  0.00     0.029 C 
HETATM   18  C   UNL     1      26.887  44.758  52.397  1.00  0.00     0.235 C 
ENDBRANCH  12  13
ENDBRANCH  11  12
ENDBRANCH   7  11
ENDBRANCH   2   5
BRANCH   1  19
HETATM   19  C   UNL     1      20.809  50.709  48.438  1.00  0.00     0.065 A 
HETATM   20  C   UNL     1      20.220  51.943  48.784  1.00  0.00     0.020 A 
HETATM   21  C   UNL     1      18.967  52.314  48.295  1.00  0.00     0.001 A 
HETATM   22  C   UNL     1      18.273  51.450  47.459  1.00  0.00     0.003 A 
HETATM   23  C   UNL     1      18.836  50.223  47.107  1.00  0.00     0.038 A 
HETATM   24  C   UNL     1      20.112  49.853  47.564  1.00  0.00     0.084 A 
BRANCH  24  25
HETATM   25  O   UNL     1      20.639  48.626  47.248  1.00  0.00    -0.348 OA
BRANCH  25  26
HETATM   26  C   UNL     1      20.174  47.533  48.054  1.00  0.00     0.207 C 
BRANCH  26  27
HETATM   27  C   UNL     1      21.334  46.573  48.361  1.00  0.00     0.145 C 
HETATM   28  O   UNL     1      22.284  46.636  47.281  1.00  0.00    -0.384 OA
HETATM   29  C   UNL     1      22.271  45.383  46.577  1.00  0.00     0.168 C 
HETATM   30  C   UNL     1      21.056  44.621  47.057  1.00  0.00     0.029 C 
HETATM   31  C   UNL     1      20.921  45.112  48.477  1.00  0.00     0.036 C 
ENDBRANCH  26  27
ENDBRANCH  25  26
ENDBRANCH  24  25
ENDBRANCH   1  19
TORSDOF 8
ENDMDL
MODEL 3
REMARK VINA RESULT:      -8.0      2.421      5.485
REMARK  8 active torsions:
REMARK  status: ('A' for Active; 'I' for Inactive)
REMARK    1  A    between atoms: C_3  and  C_4 
REMARK       I    between atoms: C_4  and  N_5 
REMARK    2  A    between atoms: N_5  and  C_6 
REMARK    3  A    between atoms: C_8  and  C_9 
REMARK    4  A    between atoms: C_9  and  C_10 
REMARK    5  A    between atoms: C_10  and  N_11 
REMARK    6  A    between atoms: C_21  and  O_22 
REMARK    7  A    between atoms: O_22  and  C_23 
REMARK    8  A    between atoms: C_23  and  C_24 
ROOT
HETATM    1  C   UNL     1      23.168  49.266  48.566  1.00  0.00     0.259 C 
HETATM    2  N   UNL     1      22.334  49.560  49.629  1.00  0.00    -0.323 N 
HETATM    3  O   UNL     1      22.810  49.183  47.395  1.00  0.00    -0.267 OA
HETATM    4  H   UNL     1      22.769  49.552  50.545  1.00  0.00     0.169 HD
ENDROOT
BRANCH   2   5
HETATM    5  C   UNL     1      20.959  49.890  49.573  1.00  0.00     0.035 A 
HETATM    6  C   UNL     1      20.031  48.837  49.536  1.00  0.00     0.036 A 
HETATM    7  C   UNL     1      18.641  49.078  49.508  1.00  0.00    -0.054 A 
HETATM    8  C   UNL     1      18.198  50.407  49.540  1.00  0.00     0.007 A 
HETATM    9  C   UNL     1      19.111  51.457  49.561  1.00  0.00     0.003 A 
HETATM   10  C   UNL     1      20.481  51.199  49.574  1.00  0.00     0.029 A 
BRANCH   7  11
HETATM   11  C   UNL     1      17.685  47.904  49.528  1.00  0.00     0.066 C 
BRANCH  11  12
HETATM   12  C   UNL     1      17.666  47.069  48.240  1.00  0.00     0.239 C 
BRANCH  12  13
HETATM   13  N   UNL     1      16.476  47.412  47.365  1.00  0.00    -0.071 N 
HETATM   14  H   UNL     1      16.000  46.533  47.119  1.00  0.00     0.279 HD
HETATM   15  C   UNL     1      16.892  48.079  46.061  1.00  0.00     0.235 C 
HETATM   16  C   UNL     1      16.524  49.533  46.257  1.00  0.00     0.029 C 
HETATM   17  C   UNL     1      15.216  49.441  47.013  1.00  0.00     0.029 C 
HETATM   18  C   UNL     1      15.469  48.343  48.030  1.00  0.00     0.235 C 
ENDBRANCH  12  13
ENDBRANCH  11  12
ENDBRANCH   7  11
ENDBRANCH   2   5
BRANCH   1  19
HETATM   19  C   UNL     1      24.624  49.038  48.871  1.00  0.00     0.065 A 
HETATM   20  C   UNL     1      25.531  49.927  48.260  1.00  0.00     0.020 A 
HETATM   21  C   UNL     1      26.906  49.821  48.467  1.00  0.00     0.001 A 
HETATM   22  C   UNL     1      27.402  48.813  49.282  1.00  0.00     0.003 A 
HETATM   23  C   UNL     1      26.522  47.920  49.894  1.00  0.00     0.038 A 
HETATM   24  C   UNL     1      25.132  48.038  49.721  1.00  0.00     0.084 A 
BRANCH  24  25
HETATM   25  O   UNL     1      24.278  47.129  50.293  1.00  0.00    -0.348 OA
BRANCH  25  26
HETATM   26  C   UNL     1      24.531  45.756  49.958  1.00  0.00     0.207 C 
BRANCH  26  27
HETATM   27  C   UNL     1      24.651  44.913  51.237  1.00  0.00     0.145 C 
HETATM   28  O   UNL     1      25.039  45.775  52.324  1.00  0.00    -0.384 OA
HETATM   29  C   UNL     1      26.374  45.433  52.733  1.00  0.00     0.168 C 
HETATM   30  C   UNL     1      26.942  44.524  51.667  1.00  0.00     0.029 C 
HETATM   31  C   UNL     1      25.706  43.818  51.167  1.00  0.00     0.036 C 
ENDBRANCH  26  27
ENDBRANCH  25  26
ENDBRANCH  24  25
ENDBRANCH   1  19
TORSDOF 8
ENDMDL
MODEL 4
REMARK VINA RESULT:      -7.9      2.637      7.179
REMARK  8 active torsions:
REMARK  status: ('A' for Active; 'I' for Inactive)
REMARK    1  A    between atoms: C_3  and  C_4 
REMARK       I    between atoms: C_4  and  N_5 
REMARK    2  A    between atoms: N_5  and  C_6 
REMARK    3  A    between atoms: C_8  and  C_9 
REMARK    4  A    between atoms: C_9  and  C_10 
REMARK    5  A    between atoms: C_10  and  N_11 
REMARK    6  A    between atoms: C_21  and  O_22 
REMARK    7  A    between atoms: O_22  and  C_23 
REMARK    8  A    between atoms: C_23  and  C_24 
ROOT
HETATM    1  C   UNL     1      22.065  50.336  49.487  1.00  0.00     0.259 C 
HETATM    2  N   UNL     1      22.824  49.445  48.748  1.00  0.00    -0.323 N 
HETATM    3  O   UNL     1      22.478  50.984  50.444  1.00  0.00    -0.267 OA
HETATM    4  H   UNL     1      22.330  48.954  48.011  1.00  0.00     0.169 HD
ENDROOT
BRANCH   2   5
HETATM    5  C   UNL     1      24.203  49.169  48.894  1.00  0.00     0.035 A 
HETATM    6  C   UNL     1      24.572  48.027  49.623  1.00  0.00     0.036 A 
HETATM    7  C   UNL     1      25.925  47.664  49.793  1.00  0.00    -0.054 A 
HETATM    8  C   UNL     1      26.907  48.463  49.192  1.00  0.00     0.007 A 
HETATM    9  C   UNL     1      26.551  49.605  48.481  1.00  0.00     0.003 A 
HETATM   10  C   UNL     1      25.210  49.956  48.337  1.00  0.00     0.029 A 
BRANCH   7  11
HETATM   11  C   UNL     1      26.261  46.390  50.539  1.00  0.00     0.066 C 
BRANCH  11  12
HETATM   12  C   UNL     1      26.331  45.131  49.661  1.00  0.00     0.239 C 
BRANCH  12  13
HETATM   13  N   UNL     1      25.401  44.043  50.165  1.00  0.00    -0.071 N 
HETATM   14  H   UNL     1      25.895  43.521  50.901  1.00  0.00     0.279 HD
HETATM   15  C   UNL     1      25.037  43.046  49.073  1.00  0.00     0.235 C 
HETATM   16  C   UNL     1      23.608  43.396  48.716  1.00  0.00     0.029 C 
HETATM   17  C   UNL     1      23.008  43.738  50.062  1.00  0.00     0.029 C 
HETATM   18  C   UNL     1      24.088  44.568  50.733  1.00  0.00     0.235 C 
ENDBRANCH  12  13
ENDBRANCH  11  12
ENDBRANCH   7  11
ENDBRANCH   2   5
BRANCH   1  19
HETATM   19  C   UNL     1      20.630  50.526  49.078  1.00  0.00     0.065 A 
HETATM   20  C   UNL     1      20.277  51.819  48.642  1.00  0.00     0.020 A 
HETATM   21  C   UNL     1      18.978  52.121  48.235  1.00  0.00     0.001 A 
HETATM   22  C   UNL     1      18.001  51.135  48.269  1.00  0.00     0.003 A 
HETATM   23  C   UNL     1      18.328  49.850  48.700  1.00  0.00     0.038 A 
HETATM   24  C   UNL     1      19.641  49.524  49.079  1.00  0.00     0.084 A 
BRANCH  24  25
HETATM   25  O   UNL     1      19.943  48.268  49.544  1.00  0.00    -0.348 OA
BRANCH  25  26
HETATM   26  C   UNL     1      19.277  47.189  48.870  1.00  0.00     0.207 C 
BRANCH  26  27
HETATM   27  C   UNL     1      20.252  46.023  48.650  1.00  0.00     0.145 C 
HETATM   28  O   UNL     1      21.578  46.555  48.471  1.00  0.00    -0.384 OA
HETATM   29  C   UNL     1      21.991  46.324  47.114  1.00  0.00     0.168 C 
HETATM   30  C   UNL     1      20.762  45.896  46.345  1.00  0.00     0.029 C 
HETATM   31  C   UNL     1      19.959  45.189  47.410  1.00  0.00     0.036 C 
ENDBRANCH  26  27
ENDBRANCH  25  26
ENDBRANCH  24  25
ENDBRANCH   1  19
TORSDOF 8
ENDMDL
MODEL 5
REMARK VINA RESULT:      -7.8      2.171      4.341
REMARK  8 active torsions:
REMARK  status: ('A' for Active; 'I' for Inactive)
REMARK    1  A    between atoms: C_3  and  C_4 
REMARK       I    between atoms: C_4  and  N_5 
REMARK    2  A    between atoms: N_5  and  C_6 
REMARK    3  A    between atoms: C_8  and  C_9 
REMARK    4  A    between atoms: C_9  and  C_10 
REMARK    5  A    between atoms: C_10  and  N_11 
REMARK    6  A    between atoms: C_21  and  O_22 
REMARK    7  A    between atoms: O_22  and  C_23 
REMARK    8  A    between atoms: C_23  and  C_24 
ROOT
HETATM    1  C   UNL     1      26.932  44.461  50.697  1.00  0.00     0.259 C 
HETATM    2  N   UNL     1      26.148  45.512  51.140  1.00  0.00    -0.323 N 
HETATM    3  O   UNL     1      27.276  44.285  49.532  1.00  0.00    -0.267 OA
HETATM    4  H   UNL     1      25.914  45.499  52.126  1.00  0.00     0.169 HD
ENDROOT
BRANCH   2   5
HETATM    5  C   UNL     1      25.666  46.601  50.377  1.00  0.00     0.035 A 
HETATM    6  C   UNL     1      24.324  46.571  49.964  1.00  0.00     0.036 A 
HETATM    7  C   UNL     1      23.755  47.630  49.224  1.00  0.00    -0.054 A 
HETATM    8  C   UNL     1      24.560  48.738  48.925  1.00  0.00     0.007 A 
HETATM    9  C   UNL     1      25.896  48.768  49.317  1.00  0.00     0.003 A 
HETATM   10  C   UNL     1      26.443  47.706  50.035  1.00  0.00     0.029 A 
BRANCH   7  11
HETATM   11  C   UNL     1      22.288  47.571  48.856  1.00  0.00     0.066 C 
BRANCH  11  12
HETATM   12  C   UNL     1      21.576  48.932  48.835  1.00  0.00     0.239 C 
BRANCH  12  13
HETATM   13  N   UNL     1      20.525  49.033  49.924  1.00  0.00    -0.071 N 
HETATM   14  H   UNL     1      20.927  48.646  50.789  1.00  0.00     0.279 HD
HETATM   15  C   UNL     1      19.280  48.218  49.601  1.00  0.00     0.235 C 
HETATM   16  C   UNL     1      18.249  49.255  49.213  1.00  0.00     0.029 C 
HETATM   17  C   UNL     1      18.539  50.382  50.182  1.00  0.00     0.029 C 
HETATM   18  C   UNL     1      20.055  50.457  50.198  1.00  0.00     0.235 C 
ENDBRANCH  12  13
ENDBRANCH  11  12
ENDBRANCH   7  11
ENDBRANCH   2   5
BRANCH   1  19
HETATM   19  C   UNL     1      27.401  43.467  51.724  1.00  0.00     0.065 A 
HETATM   20  C   UNL     1      27.590  42.147  51.266  1.00  0.00     0.020 A 
HETATM   21  C   UNL     1      28.024  41.135  52.121  1.00  0.00     0.001 A 
HETATM   22  C   UNL     1      28.268  41.423  53.458  1.00  0.00     0.003 A 
HETATM   23  C   UNL     1      28.085  42.722  53.932  1.00  0.00     0.038 A 
HETATM   24  C   UNL     1      27.681  43.757  53.072  1.00  0.00     0.084 A 
BRANCH  24  25
HETATM   25  O   UNL     1      27.463  45.023  53.558  1.00  0.00    -0.348 OA
BRANCH  25  26
HETATM   26  C   UNL     1      27.478  45.141  54.989  1.00  0.00     0.207 C 
BRANCH  26  27
HETATM   27  C   UNL     1      28.477  46.226  55.418  1.00  0.00     0.145 C 
HETATM   28  O   UNL     1      29.783  45.630  55.538  1.00  0.00    -0.384 OA
HETATM   29  C   UNL     1      30.165  45.626  56.924  1.00  0.00     0.168 C 
HETATM   30  C   UNL     1      28.926  45.962  57.724  1.00  0.00     0.029 C 
HETATM   31  C   UNL     1      28.173  46.856  56.770  1.00  0.00     0.036 C 
ENDBRANCH  26  27
ENDBRANCH  25  26
ENDBRANCH  24  25
ENDBRANCH   1  19
TORSDOF 8
ENDMDL
MODEL 6
REMARK VINA RESULT:      -7.7      2.530      5.475
REMARK  8 active torsions:
REMARK  status: ('A' for Active; 'I' for Inactive)
REMARK    1  A    between atoms: C_3  and  C_4 
REMARK       I    between atoms: C_4  and  N_5 
REMARK    2  A    between atoms: N_5  and  C_6 
REMARK    3  A    between atoms: C_8  and  C_9 
REMARK    4  A    between atoms: C_9  and  C_10 
REMARK    5  A    between atoms: C_10  and  N_11 
REMARK    6  A    between atoms: C_21  and  O_22 
REMARK    7  A    between atoms: O_22  and  C_23 
REMARK    8  A    between atoms: C_23  and  C_24 
ROOT
HETATM    1  C   UNL     1      23.368  49.613  48.423  1.00  0.00     0.259 C 
HETATM    2  N   UNL     1      22.386  49.489  49.390  1.00  0.00    -0.323 N 
HETATM    3  O   UNL     1      23.183  50.037  47.286  1.00  0.00    -0.267 OA
HETATM    4  H   UNL     1      22.685  49.083  50.270  1.00  0.00     0.169 HD
ENDROOT
BRANCH   2   5
HETATM    5  C   UNL     1      21.032  49.885  49.291  1.00  0.00     0.035 A 
HETATM    6  C   UNL     1      20.119  48.975  48.733  1.00  0.00     0.036 A 
HETATM    7  C   UNL     1      18.746  49.280  48.624  1.00  0.00    -0.054 A 
HETATM    8  C   UNL     1      18.300  50.517  49.109  1.00  0.00     0.007 A 
HETATM    9  C   UNL     1      19.200  51.430  49.649  1.00  0.00     0.003 A 
HETATM   10  C   UNL     1      20.555  51.117  49.736  1.00  0.00     0.029 A 
BRANCH   7  11
HETATM   11  C   UNL     1      17.798  48.237  48.068  1.00  0.00     0.066 C 
BRANCH  11  12
HETATM   12  C   UNL     1      17.585  47.016  48.974  1.00  0.00     0.239 C 
BRANCH  12  13
HETATM   13  N   UNL     1      17.821  45.716  48.229  1.00  0.00    -0.071 N 
HETATM   14  H   UNL     1      17.203  45.001  48.636  1.00  0.00     0.279 HD
HETATM   15  C   UNL     1      19.251  45.215  48.383  1.00  0.00     0.235 C 
HETATM   16  C   UNL     1      19.891  45.509  47.043  1.00  0.00     0.029 C 
HETATM   17  C   UNL     1      18.773  45.199  46.071  1.00  0.00     0.029 C 
HETATM   18  C   UNL     1      17.548  45.804  46.733  1.00  0.00     0.235 C 
ENDBRANCH  12  13
ENDBRANCH  11  12
ENDBRANCH   7  11
ENDBRANCH   2   5
BRANCH   1  19
HETATM   19  C   UNL     1      24.765  49.203  48.799  1.00  0.00     0.065 A 
HETATM   20  C   UNL     1      25.806  49.991  48.267  1.00  0.00     0.020 A 
HETATM   21  C   UNL     1      27.144  49.714  48.544  1.00  0.00     0.001 A 
HETATM   22  C   UNL     1      27.468  48.632  49.353  1.00  0.00     0.003 A 
HETATM   23  C   UNL     1      26.454  47.838  49.888  1.00  0.00     0.038 A 
HETATM   24  C   UNL     1      25.101  48.128  49.644  1.00  0.00     0.084 A 
BRANCH  24  25
HETATM   25  O   UNL     1      24.112  47.314  50.139  1.00  0.00    -0.348 OA
BRANCH  25  26
HETATM   26  C   UNL     1      24.569  46.106  50.764  1.00  0.00     0.207 C 
BRANCH  26  27
HETATM   27  C   UNL     1      24.131  44.886  49.940  1.00  0.00     0.145 C 
HETATM   28  O   UNL     1      23.513  43.930  50.822  1.00  0.00    -0.384 OA
HETATM   29  C   UNL     1      24.357  42.769  50.911  1.00  0.00     0.168 C 
HETATM   30  C   UNL     1      25.686  43.142  50.295  1.00  0.00     0.029 C 
HETATM   31  C   UNL     1      25.274  44.152  49.253  1.00  0.00     0.036 C 
ENDBRANCH  26  27
ENDBRANCH  25  26
ENDBRANCH  24  25
ENDBRANCH   1  19
TORSDOF 8
ENDMDL
MODEL 7
REMARK VINA RESULT:      -7.7      2.398      5.499
REMARK  8 active torsions:
REMARK  status: ('A' for Active; 'I' for Inactive)
REMARK    1  A    between atoms: C_3  and  C_4 
REMARK       I    between atoms: C_4  and  N_5 
REMARK    2  A    between atoms: N_5  and  C_6 
REMARK    3  A    between atoms: C_8  and  C_9 
REMARK    4  A    between atoms: C_9  and  C_10 
REMARK    5  A    between atoms: C_10  and  N_11 
REMARK    6  A    between atoms: C_21  and  O_22 
REMARK    7  A    between atoms: O_22  and  C_23 
REMARK    8  A    between atoms: C_23  and  C_24 
ROOT
HETATM    1  C   UNL     1      23.016  48.884  48.595  1.00  0.00     0.259 C 
HETATM    2  N   UNL     1      22.158  49.182  49.640  1.00  0.00    -0.323 N 
HETATM    3  O   UNL     1      22.669  48.700  47.433  1.00  0.00    -0.267 OA
HETATM    4  H   UNL     1      22.591  49.265  50.553  1.00  0.00     0.169 HD
ENDROOT
BRANCH   2   5
HETATM    5  C   UNL     1      20.763  49.403  49.565  1.00  0.00     0.035 A 
HETATM    6  C   UNL     1      20.318  50.708  49.296  1.00  0.00     0.036 A 
HETATM    7  C   UNL     1      18.945  51.010  49.177  1.00  0.00    -0.054 A 
HETATM    8  C   UNL     1      18.022  49.964  49.310  1.00  0.00     0.007 A 
HETATM    9  C   UNL     1      18.454  48.671  49.592  1.00  0.00     0.003 A 
HETATM   10  C   UNL     1      19.814  48.395  49.721  1.00  0.00     0.029 A 
BRANCH   7  11
HETATM   11  C   UNL     1      18.525  52.422  48.829  1.00  0.00     0.066 C 
BRANCH  11  12
HETATM   12  C   UNL     1      17.009  52.626  48.693  1.00  0.00     0.239 C 
BRANCH  12  13
HETATM   13  N   UNL     1      16.565  52.597  47.243  1.00  0.00    -0.071 N 
HETATM   14  H   UNL     1      16.209  53.532  47.003  1.00  0.00     0.279 HD
HETATM   15  C   UNL     1      15.431  51.608  47.008  1.00  0.00     0.235 C 
HETATM   16  C   UNL     1      16.095  50.447  46.299  1.00  0.00     0.029 C 
HETATM   17  C   UNL     1      17.083  51.142  45.387  1.00  0.00     0.029 C 
HETATM   18  C   UNL     1      17.675  52.230  46.266  1.00  0.00     0.235 C 
ENDBRANCH  12  13
ENDBRANCH  11  12
ENDBRANCH   7  11
ENDBRANCH   2   5
BRANCH   1  19
HETATM   19  C   UNL     1      24.484  48.786  48.912  1.00  0.00     0.065 A 
HETATM   20  C   UNL     1      25.308  49.772  48.334  1.00  0.00     0.020 A 
HETATM   21  C   UNL     1      26.685  49.790  48.555  1.00  0.00     0.001 A 
HETATM   22  C   UNL     1      27.266  48.812  49.350  1.00  0.00     0.003 A 
HETATM   23  C   UNL     1      26.469  47.825  49.929  1.00  0.00     0.038 A 
HETATM   24  C   UNL     1      25.076  47.817  49.743  1.00  0.00     0.084 A 
BRANCH  24  25
HETATM   25  O   UNL     1      24.306  46.816  50.282  1.00  0.00    -0.348 OA
BRANCH  25  26
HETATM   26  C   UNL     1      24.391  45.549  49.611  1.00  0.00     0.207 C 
BRANCH  26  27
HETATM   27  C   UNL     1      24.474  44.412  50.640  1.00  0.00     0.145 C 
HETATM   28  O   UNL     1      24.320  44.969  51.959  1.00  0.00    -0.384 OA
HETATM   29  C   UNL     1      25.567  44.844  52.664  1.00  0.00     0.168 C 
HETATM   30  C   UNL     1      26.615  44.463  51.643  1.00  0.00     0.029 C 
HETATM   31  C   UNL     1      25.804  43.671  50.646  1.00  0.00     0.036 C 
ENDBRANCH  26  27
ENDBRANCH  25  26
ENDBRANCH  24  25
ENDBRANCH   1  19
TORSDOF 8
ENDMDL
MODEL 8
REMARK VINA RESULT:      -7.6      3.768      8.599
REMARK  8 active torsions:
REMARK  status: ('A' for Active; 'I' for Inactive)
REMARK    1  A    between atoms: C_3  and  C_4 
REMARK       I    between atoms: C_4  and  N_5 
REMARK    2  A    between atoms: N_5  and  C_6 
REMARK    3  A    between atoms: C_8  and  C_9 
REMARK    4  A    between atoms: C_9  and  C_10 
REMARK    5  A    between atoms: C_10  and  N_11 
REMARK    6  A    between atoms: C_21  and  O_22 
REMARK    7  A    between atoms: O_22  and  C_23 
REMARK    8  A    between atoms: C_23  and  C_24 
ROOT
HETATM    1  C   UNL     1      27.892  42.203  52.911  1.00  0.00     0.259 C 
HETATM    2  N   UNL     1      27.428  42.715  51.712  1.00  0.00    -0.323 N 
HETATM    3  O   UNL     1      27.837  41.021  53.238  1.00  0.00    -0.267 OA
HETATM    4  H   UNL     1      27.506  43.720  51.604  1.00  0.00     0.169 HD
ENDROOT
BRANCH   2   5
HETATM    5  C   UNL     1      26.886  41.990  50.625  1.00  0.00     0.035 A 
HETATM    6  C   UNL     1      27.781  41.390  49.724  1.00  0.00     0.036 A 
HETATM    7  C   UNL     1      27.325  40.626  48.629  1.00  0.00    -0.054 A 
HETATM    8  C   UNL     1      25.943  40.456  48.468  1.00  0.00     0.007 A 
HETATM    9  C   UNL     1      25.049  41.061  49.347  1.00  0.00     0.003 A 
HETATM   10  C   UNL     1      25.519  41.824  50.414  1.00  0.00     0.029 A 
BRANCH   7  11
HETATM   11  C   UNL     1      28.335  39.952  47.724  1.00  0.00     0.066 C 
BRANCH  11  12
HETATM   12  C   UNL     1      28.045  38.474  47.425  1.00  0.00     0.239 C 
BRANCH  12  13
HETATM   13  N   UNL     1      28.835  37.551  48.334  1.00  0.00    -0.071 N 
HETATM   14  H   UNL     1      29.045  36.693  47.806  1.00  0.00     0.279 HD
HETATM   15  C   UNL     1      28.043  37.140  49.567  1.00  0.00     0.235 C 
HETATM   16  C   UNL     1      28.663  37.944  50.689  1.00  0.00     0.029 C 
HETATM   17  C   UNL     1      30.134  37.920  50.335  1.00  0.00     0.029 C 
HETATM   18  C   UNL     1      30.144  38.150  48.835  1.00  0.00     0.235 C 
ENDBRANCH  12  13
ENDBRANCH  11  12
ENDBRANCH   7  11
ENDBRANCH   2   5
BRANCH   1  19
HETATM   19  C   UNL     1      28.514  43.170  53.882  1.00  0.00     0.065 A 
HETATM   20  C   UNL     1      29.789  42.821  54.371  1.00  0.00     0.020 A 
HETATM   21  C   UNL     1      30.470  43.636  55.274  1.00  0.00     0.001 A 
HETATM   22  C   UNL     1      29.882  44.814  55.715  1.00  0.00     0.003 A 
HETATM   23  C   UNL     1      28.620  45.177  55.245  1.00  0.00     0.038 A 
HETATM   24  C   UNL     1      27.938  44.382  54.308  1.00  0.00     0.084 A 
BRANCH  24  25
HETATM   25  O   UNL     1      26.679  44.726  53.886  1.00  0.00    -0.348 OA
BRANCH  25  26
HETATM   26  C   UNL     1      26.590  45.966  53.169  1.00  0.00     0.207 C 
BRANCH  26  27
HETATM   27  C   UNL     1      25.722  45.790  51.914  1.00  0.00     0.145 C 
HETATM   28  O   UNL     1      26.545  45.272  50.852  1.00  0.00    -0.384 OA
HETATM   29  C   UNL     1      26.686  46.282  49.839  1.00  0.00     0.168 C 
HETATM   30  C   UNL     1      26.176  47.575  50.432  1.00  0.00     0.029 C 
HETATM   31  C   UNL     1      25.116  47.084  51.387  1.00  0.00     0.036 C 
ENDBRANCH  26  27
ENDBRANCH  25  26
ENDBRANCH  24  25
ENDBRANCH   1  19
TORSDOF 8
ENDMDL
MODEL 9
REMARK VINA RESULT:      -7.6      2.994      5.872
REMARK  8 active torsions:
REMARK  status: ('A' for Active; 'I' for Inactive)
REMARK    1  A    between atoms: C_3  and  C_4 
REMARK       I    between atoms: C_4  and  N_5 
REMARK    2  A    between atoms: N_5  and  C_6 
REMARK    3  A    between atoms: C_8  and  C_9 
REMARK    4  A    between atoms: C_9  and  C_10 
REMARK    5  A    between atoms: C_10  and  N_11 
REMARK    6  A    between atoms: C_21  and  O_22 
REMARK    7  A    between atoms: O_22  and  C_23 
REMARK    8  A    between atoms: C_23  and  C_24 
ROOT
HETATM    1  C   UNL     1      22.793  48.828  48.591  1.00  0.00     0.259 C 
HETATM    2  N   UNL     1      21.998  49.478  49.518  1.00  0.00    -0.323 N 
HETATM    3  O   UNL     1      22.373  48.196  47.626  1.00  0.00    -0.267 OA
HETATM    4  H   UNL     1      22.491  49.924  50.283  1.00  0.00     0.169 HD
ENDROOT
BRANCH   2   5
HETATM    5  C   UNL     1      20.589  49.606  49.497  1.00  0.00     0.035 A 
HETATM    6  C   UNL     1      20.048  50.865  49.189  1.00  0.00     0.036 A 
HETATM    7  C   UNL     1      18.653  51.072  49.119  1.00  0.00    -0.054 A 
HETATM    8  C   UNL     1      17.808  49.977  49.344  1.00  0.00     0.007 A 
HETATM    9  C   UNL     1      18.336  48.730  49.666  1.00  0.00     0.003 A 
HETATM   10  C   UNL     1      19.716  48.548  49.744  1.00  0.00     0.029 A 
BRANCH   7  11
HETATM   11  C   UNL     1      18.126  52.435  48.725  1.00  0.00     0.066 C 
BRANCH  11  12
HETATM   12  C   UNL     1      16.631  52.470  48.376  1.00  0.00     0.239 C 
BRANCH  12  13
HETATM   13  N   UNL     1      15.922  53.625  49.056  1.00  0.00    -0.071 N 
HETATM   14  H   UNL     1      16.538  54.447  49.007  1.00  0.00     0.279 HD
HETATM   15  C   UNL     1      15.653  53.350  50.529  1.00  0.00     0.235 C 
HETATM   16  C   UNL     1      14.168  53.067  50.587  1.00  0.00     0.029 C 
HETATM   17  C   UNL     1      13.607  54.057  49.589  1.00  0.00     0.029 C 
HETATM   18  C   UNL     1      14.580  53.981  48.427  1.00  0.00     0.235 C 
ENDBRANCH  12  13
ENDBRANCH  11  12
ENDBRANCH   7  11
ENDBRANCH   2   5
BRANCH   1  19
HETATM   19  C   UNL     1      24.283  48.910  48.779  1.00  0.00     0.065 A 
HETATM   20  C   UNL     1      24.940  49.940  48.076  1.00  0.00     0.020 A 
HETATM   21  C   UNL     1      26.319  50.122  48.170  1.00  0.00     0.001 A 
HETATM   22  C   UNL     1      27.072  49.266  48.963  1.00  0.00     0.003 A 
HETATM   23  C   UNL     1      26.442  48.238  49.665  1.00  0.00     0.038 A 
HETATM   24  C   UNL     1      25.049  48.067  49.606  1.00  0.00     0.084 A 
BRANCH  24  25
HETATM   25  O   UNL     1      24.445  47.026  50.266  1.00  0.00    -0.348 OA
BRANCH  25  26
HETATM   26  C   UNL     1      25.158  45.780  50.229  1.00  0.00     0.207 C 
BRANCH  26  27
HETATM   27  C   UNL     1      24.548  44.854  49.167  1.00  0.00     0.145 C 
HETATM   28  O   UNL     1      23.113  44.956  49.232  1.00  0.00    -0.384 OA
HETATM   29  C   UNL     1      22.580  43.710  49.711  1.00  0.00     0.168 C 
HETATM   30  C   UNL     1      23.746  42.906  50.241  1.00  0.00     0.029 C 
HETATM   31  C   UNL     1      24.876  43.380  49.360  1.00  0.00     0.036 C 
ENDBRANCH  26  27
ENDBRANCH  25  26
ENDBRANCH  24  25
ENDBRANCH   1  19
TORSDOF 8
ENDMDL
MODEL 10
REMARK VINA RESULT:      -7.6      2.209      3.531
REMARK  8 active torsions:
REMARK  status: ('A' for Active; 'I' for Inactive)
REMARK    1  A    between atoms: C_3  and  C_4 
REMARK       I    between atoms: C_4  and  N_5 
REMARK    2  A    between atoms: N_5  and  C_6 
REMARK    3  A    between atoms: C_8  and  C_9 
REMARK    4  A    between atoms: C_9  and  C_10 
REMARK    5  A    between atoms: C_10  and  N_11 
REMARK    6  A    between atoms: C_21  and  O_22 
REMARK    7  A    between atoms: O_22  and  C_23 
REMARK    8  A    between atoms: C_23  and  C_24 
ROOT
HETATM    1  C   UNL     1      26.758  44.898  53.506  1.00  0.00     0.259 C 
HETATM    2  N   UNL     1      26.649  44.698  52.141  1.00  0.00    -0.323 N 
HETATM    3  O   UNL     1      25.893  45.410  54.211  1.00  0.00    -0.267 OA
HETATM    4  H   UNL     1      27.465  44.301  51.689  1.00  0.00     0.169 HD
ENDROOT
BRANCH   2   5
HETATM    5  C   UNL     1      25.525  44.963  51.324  1.00  0.00     0.035 A 
HETATM    6  C   UNL     1      25.325  46.284  50.889  1.00  0.00     0.036 A 
HETATM    7  C   UNL     1      24.246  46.629  50.048  1.00  0.00    -0.054 A 
HETATM    8  C   UNL     1      23.377  45.611  49.632  1.00  0.00     0.007 A 
HETATM    9  C   UNL     1      23.559  44.303  50.071  1.00  0.00     0.003 A 
HETATM   10  C   UNL     1      24.623  43.984  50.913  1.00  0.00     0.029 A 
BRANCH   7  11
HETATM   11  C   UNL     1      24.113  48.057  49.562  1.00  0.00     0.066 C 
BRANCH  11  12
HETATM   12  C   UNL     1      22.830  48.349  48.769  1.00  0.00     0.239 C 
BRANCH  12  13
HETATM   13  N   UNL     1      21.966  49.386  49.460  1.00  0.00    -0.071 N 
HETATM   14  H   UNL     1      22.136  49.316  50.473  1.00  0.00     0.279 HD
HETATM   15  C   UNL     1      20.481  49.141  49.235  1.00  0.00     0.235 C 
HETATM   16  C   UNL     1      20.077  50.207  48.239  1.00  0.00     0.029 C 
HETATM   17  C   UNL     1      20.881  51.404  48.698  1.00  0.00     0.029 C 
HETATM   18  C   UNL     1      22.245  50.817  49.015  1.00  0.00     0.235 C 
ENDBRANCH  12  13
ENDBRANCH  11  12
ENDBRANCH   7  11
ENDBRANCH   2   5
BRANCH   1  19
HETATM   19  C   UNL     1      28.029  44.448  54.172  1.00  0.00     0.065 A 
HETATM   20  C   UNL     1      28.728  45.432  54.900  1.00  0.00     0.020 A 
HETATM   21  C   UNL     1      29.919  45.138  55.563  1.00  0.00     0.001 A 
HETATM   22  C   UNL     1      30.440  43.852  55.501  1.00  0.00     0.003 A 
HETATM   23  C   UNL     1      29.766  42.864  54.784  1.00  0.00     0.038 A 
HETATM   24  C   UNL     1      28.548  43.140  54.140  1.00  0.00     0.084 A 
BRANCH  24  25
HETATM   25  O   UNL     1      27.915  42.172  53.401  1.00  0.00    -0.348 OA
BRANCH  25  26
HETATM   26  C   UNL     1      28.521  41.873  52.134  1.00  0.00     0.207 C 
BRANCH  26  27
HETATM   27  C   UNL     1      27.713  40.790  51.404  1.00  0.00     0.145 C 
HETATM   28  O   UNL     1      28.629  39.879  50.769  1.00  0.00    -0.384 OA
HETATM   29  C   UNL     1      28.517  40.026  49.344  1.00  0.00     0.168 C 
HETATM   30  C   UNL     1      27.715  41.283  49.092  1.00  0.00     0.029 C 
HETATM   31  C   UNL     1      26.810  41.322  50.299  1.00  0.00     0.036 C 
ENDBRANCH  26  27
ENDBRANCH  25  26
ENDBRANCH  24  25
ENDBRANCH   1  19
TORSDOF 8
ENDMDL
