MODEL 1
REMARK VINA RESULT:      -9.9      0.000      0.000
REMARK  9 active torsions:
REMARK  status: ('A' for Active; 'I' for Inactive)
REMARK    1  A    between atoms: C_2  and  O_3 
REMARK    2  A    between atoms: O_3  and  C_4 
REMARK    3  A    between atoms: C_5  and  C_6 
REMARK    4  A    between atoms: C_7  and  C_8 
REMARK       I    between atoms: C_8  and  N_9 
REMARK    5  A    between atoms: N_9  and  C_10 
REMARK    6  A    between atoms: C_20  and  S_21 
REMARK    7  A    between atoms: S_21  and  C_22 
REMARK    8  A    between atoms: C_22  and  C_23 
REMARK       I    between atoms: C_23  and  N_24 
REMARK    9  A    between atoms: N_24  and  C_25 
ROOT
HETATM    1  C   UNL     1      22.457  45.049  49.009  1.00  0.00     0.107 C 
HETATM    2  C   UNL     1      23.087  46.441  49.157  1.00  0.00     0.046 C 
HETATM    3  C   UNL     1      24.320  46.579  49.700  1.00  0.00     0.019 C 
HETATM    4  C   UNL     1      25.126  47.857  49.691  1.00  0.00     0.069 C 
HETATM    5  N   UNL     1      24.972  45.479  50.243  1.00  0.00    -0.353 N 
HETATM    6  C   UNL     1      24.582  44.161  50.054  1.00  0.00     0.087 C 
HETATM    7  C   UNL     1      23.373  43.896  49.500  1.00  0.00     0.055 C 
HETATM    8  C   UNL     1      23.057  42.525  48.924  1.00  0.00     0.019 C 
HETATM    9  N   UNL     1      22.794  41.388  48.447  1.00  0.00    -0.096 N 
HETATM   10  H   UNL     1      25.977  45.588  50.354  1.00  0.00     0.166 HD
ENDROOT
BRANCH   1  11
HETATM   11  C   UNL     1      21.960  44.752  47.580  1.00  0.00    -0.011 A 
HETATM   12  C   UNL     1      20.585  44.666  47.266  1.00  0.00     0.076 A 
HETATM   13  C   UNL     1      20.187  44.460  45.942  1.00  0.00     0.037 A 
HETATM   14  C   UNL     1      21.139  44.352  44.926  1.00  0.00     0.003 A 
HETATM   15  C   UNL     1      22.495  44.438  45.224  1.00  0.00     0.001 A 
HETATM   16  C   UNL     1      22.906  44.635  46.542  1.00  0.00     0.011 A 
BRANCH  12  17
HETATM   17  O   UNL     1      19.716  44.803  48.317  1.00  0.00    -0.351 OA
BRANCH  17  18
HETATM   18  C   UNL     1      18.404  45.281  48.030  1.00  0.00     0.171 C 
HETATM   19  C   UNL     1      18.369  46.762  48.360  1.00  0.00     0.034 C 
ENDBRANCH  17  18
ENDBRANCH  12  17
ENDBRANCH   1  11
BRANCH   6  20
HETATM   20  S   UNL     1      25.743  42.862  50.310  1.00  0.00    -0.102 SA
BRANCH  20  21
HETATM   21  C   UNL     1      27.243  43.768  50.784  1.00  0.00     0.184 C 
BRANCH  21  22
HETATM   22  C   UNL     1      27.401  43.910  52.289  1.00  0.00     0.231 C 
HETATM   23  N   UNL     1      28.703  43.745  52.729  1.00  0.00    -0.327 N 
HETATM   24  H   UNL     1      29.346  43.335  52.058  1.00  0.00     0.169 HD
HETATM   25  O   UNL     1      26.438  44.234  52.979  1.00  0.00    -0.272 OA
BRANCH  23  26
HETATM   26  C   UNL     1      29.227  44.021  54.004  1.00  0.00     0.034 A 
HETATM   27  C   UNL     1      28.859  45.127  54.771  1.00  0.00     0.030 A 
HETATM   28  C   UNL     1      29.462  45.358  56.012  1.00  0.00     0.009 A 
HETATM   29  C   UNL     1      30.444  44.492  56.502  1.00  0.00    -0.062 A 
HETATM   30  C   UNL     1      31.069  44.741  57.842  1.00  0.00     0.048 C 
HETATM   31  C   UNL     1      30.798  43.373  55.742  1.00  0.00     0.009 A 
HETATM   32  C   UNL     1      30.198  43.145  54.500  1.00  0.00     0.030 A 
ENDBRANCH  23  26
ENDBRANCH  21  22
ENDBRANCH  20  21
ENDBRANCH   6  20
BRANCH   2  33
HETATM   33  C   UNL     1      22.320  47.610  48.608  1.00  0.00     0.255 C 
HETATM   34  N   UNL     1      21.555  48.266  49.553  1.00  0.00    -0.323 N 
HETATM   35  H   UNL     1      21.595  47.920  50.503  1.00  0.00     0.169 HD
HETATM   36  O   UNL     1      22.398  47.909  47.425  1.00  0.00    -0.268 OA
BRANCH  34  37
HETATM   37  C   UNL     1      20.833  49.466  49.361  1.00  0.00     0.035 A 
HETATM   38  C   UNL     1      21.268  50.519  48.553  1.00  0.00     0.029 A 
HETATM   39  C   UNL     1      20.513  51.689  48.438  1.00  0.00     0.002 A 
HETATM   40  C   UNL     1      19.317  51.823  49.137  1.00  0.00     0.000 A 
HETATM   41  C   UNL     1      18.869  50.779  49.941  1.00  0.00     0.002 A 
HETATM   42  C   UNL     1      19.617  49.602  50.045  1.00  0.00     0.029 A 
ENDBRANCH  34  37
ENDBRANCH   2  33
TORSDOF 9
ENDMDL
MODEL 2
REMARK VINA RESULT:      -9.0      2.853      5.688
REMARK  9 active torsions:
REMARK  status: ('A' for Active; 'I' for Inactive)
REMARK    1  A    between atoms: C_2  and  O_3 
REMARK    2  A    between atoms: O_3  and  C_4 
REMARK    3  A    between atoms: C_5  and  C_6 
REMARK    4  A    between atoms: C_7  and  C_8 
REMARK       I    between atoms: C_8  and  N_9 
REMARK    5  A    between atoms: N_9  and  C_10 
REMARK    6  A    between atoms: C_20  and  S_21 
REMARK    7  A    between atoms: S_21  and  C_22 
REMARK    8  A    between atoms: C_22  and  C_23 
REMARK       I    between atoms: C_23  and  N_24 
REMARK    9  A    between atoms: N_24  and  C_25 
ROOT
HETATM    1  C   UNL     1      20.687  48.866  47.650  1.00  0.00     0.107 C 
HETATM    2  C   UNL     1      19.979  47.542  47.967  1.00  0.00     0.046 C 
HETATM    3  C   UNL     1      20.660  46.524  48.545  1.00  0.00     0.019 C 
HETATM    4  C   UNL     1      20.025  45.271  49.103  1.00  0.00     0.069 C 
HETATM    5  N   UNL     1      22.032  46.622  48.738  1.00  0.00    -0.353 N 
HETATM    6  C   UNL     1      22.760  47.797  48.626  1.00  0.00     0.087 C 
HETATM    7  C   UNL     1      22.178  48.894  48.080  1.00  0.00     0.055 C 
HETATM    8  C   UNL     1      22.772  50.278  48.277  1.00  0.00     0.019 C 
HETATM    9  N   UNL     1      23.265  51.427  48.440  1.00  0.00    -0.096 N 
HETATM   10  H   UNL     1      22.416  45.976  49.424  1.00  0.00     0.166 HD
ENDROOT
BRANCH   1  11
HETATM   11  C   UNL     1      19.955  50.101  48.214  1.00  0.00    -0.011 A 
HETATM   12  C   UNL     1      19.229  50.986  47.385  1.00  0.00     0.076 A 
HETATM   13  C   UNL     1      18.529  52.054  47.956  1.00  0.00     0.037 A 
HETATM   14  C   UNL     1      18.533  52.243  49.340  1.00  0.00     0.003 A 
HETATM   15  C   UNL     1      19.243  51.375  50.163  1.00  0.00     0.001 A 
HETATM   16  C   UNL     1      19.952  50.312  49.606  1.00  0.00     0.011 A 
BRANCH  12  17
HETATM   17  O   UNL     1      19.259  50.718  46.041  1.00  0.00    -0.351 OA
BRANCH  17  18
HETATM   18  C   UNL     1      18.128  51.105  45.265  1.00  0.00     0.171 C 
HETATM   19  C   UNL     1      18.270  50.471  43.893  1.00  0.00     0.034 C 
ENDBRANCH  17  18
ENDBRANCH  12  17
ENDBRANCH   1  11
BRANCH   6  20
HETATM   20  S   UNL     1      24.336  47.925  49.402  1.00  0.00    -0.102 SA
BRANCH  20  21
HETATM   21  C   UNL     1      24.421  46.390  50.366  1.00  0.00     0.184 C 
BRANCH  21  22
HETATM   22  C   UNL     1      25.509  46.414  51.428  1.00  0.00     0.231 C 
HETATM   23  N   UNL     1      25.778  45.172  51.976  1.00  0.00    -0.327 N 
HETATM   24  H   UNL     1      25.091  44.448  51.787  1.00  0.00     0.169 HD
HETATM   25  O   UNL     1      26.115  47.457  51.659  1.00  0.00    -0.272 OA
BRANCH  23  26
HETATM   26  C   UNL     1      26.854  44.807  52.806  1.00  0.00     0.034 A 
HETATM   27  C   UNL     1      27.017  45.269  54.112  1.00  0.00     0.030 A 
HETATM   28  C   UNL     1      28.141  44.897  54.857  1.00  0.00     0.009 A 
HETATM   29  C   UNL     1      29.119  44.062  54.308  1.00  0.00    -0.062 A 
HETATM   30  C   UNL     1      30.308  43.655  55.124  1.00  0.00     0.048 C 
HETATM   31  C   UNL     1      28.944  43.584  53.006  1.00  0.00     0.009 A 
HETATM   32  C   UNL     1      27.823  43.960  52.260  1.00  0.00     0.030 A 
ENDBRANCH  23  26
ENDBRANCH  21  22
ENDBRANCH  20  21
ENDBRANCH   6  20
BRANCH   2  33
HETATM   33  C   UNL     1      18.505  47.461  47.686  1.00  0.00     0.255 C 
HETATM   34  N   UNL     1      18.181  47.654  46.357  1.00  0.00    -0.323 N 
HETATM   35  H   UNL     1      18.945  47.810  45.712  1.00  0.00     0.169 HD
HETATM   36  O   UNL     1      17.708  47.244  48.588  1.00  0.00    -0.268 OA
BRANCH  34  37
HETATM   37  C   UNL     1      16.900  47.510  45.777  1.00  0.00     0.035 A 
HETATM   38  C   UNL     1      16.587  46.560  44.801  1.00  0.00     0.029 A 
HETATM   39  C   UNL     1      15.303  46.500  44.251  1.00  0.00     0.002 A 
HETATM   40  C   UNL     1      14.321  47.393  44.665  1.00  0.00     0.000 A 
HETATM   41  C   UNL     1      14.618  48.341  45.641  1.00  0.00     0.002 A 
HETATM   42  C   UNL     1      15.898  48.392  46.202  1.00  0.00     0.029 A 
ENDBRANCH  34  37
ENDBRANCH   2  33
TORSDOF 9
ENDMDL
MODEL 3
REMARK VINA RESULT:      -8.8      4.205      9.392
REMARK  9 active torsions:
REMARK  status: ('A' for Active; 'I' for Inactive)
REMARK    1  A    between atoms: C_2  and  O_3 
REMARK    2  A    between atoms: O_3  and  C_4 
REMARK    3  A    between atoms: C_5  and  C_6 
REMARK    4  A    between atoms: C_7  and  C_8 
REMARK       I    between atoms: C_8  and  N_9 
REMARK    5  A    between atoms: N_9  and  C_10 
REMARK    6  A    between atoms: C_20  and  S_21 
REMARK    7  A    between atoms: S_21  and  C_22 
REMARK    8  A    between atoms: C_22  and  C_23 
REMARK       I    between atoms: C_23  and  N_24 
REMARK    9  A    between atoms: N_24  and  C_25 
ROOT
HETATM    1  C   UNL     1      25.823  43.397  51.278  1.00  0.00     0.107 C 
HETATM    2  C   UNL     1      27.139  42.609  51.332  1.00  0.00     0.046 C 
HETATM    3  C   UNL     1      27.277  41.460  50.630  1.00  0.00     0.019 C 
HETATM    4  C   UNL     1      28.583  40.726  50.428  1.00  0.00     0.069 C 
HETATM    5  N   UNL     1      26.189  40.917  49.957  1.00  0.00    -0.353 N 
HETATM    6  C   UNL     1      24.999  41.587  49.716  1.00  0.00     0.087 C 
HETATM    7  C   UNL     1      24.754  42.761  50.349  1.00  0.00     0.055 C 
HETATM    8  C   UNL     1      23.679  43.712  49.850  1.00  0.00     0.019 C 
HETATM    9  N   UNL     1      22.785  44.500  49.438  1.00  0.00    -0.096 N 
HETATM   10  H   UNL     1      26.426  40.245  49.231  1.00  0.00     0.166 HD
ENDROOT
BRANCH   1  11
HETATM   11  C   UNL     1      26.015  44.884  50.918  1.00  0.00    -0.011 A 
HETATM   12  C   UNL     1      25.510  45.925  51.730  1.00  0.00     0.076 A 
HETATM   13  C   UNL     1      25.768  47.256  51.392  1.00  0.00     0.037 A 
HETATM   14  C   UNL     1      26.533  47.564  50.264  1.00  0.00     0.003 A 
HETATM   15  C   UNL     1      27.036  46.546  49.460  1.00  0.00     0.001 A 
HETATM   16  C   UNL     1      26.778  45.215  49.781  1.00  0.00     0.011 A 
BRANCH  12  17
HETATM   17  O   UNL     1      24.788  45.537  52.829  1.00  0.00    -0.351 OA
BRANCH  17  18
HETATM   18  C   UNL     1      25.443  45.573  54.095  1.00  0.00     0.171 C 
HETATM   19  C   UNL     1      25.071  44.306  54.844  1.00  0.00     0.034 C 
ENDBRANCH  17  18
ENDBRANCH  12  17
ENDBRANCH   1  11
BRANCH   6  20
HETATM   20  S   UNL     1      23.934  41.036  48.427  1.00  0.00    -0.102 SA
BRANCH  20  21
HETATM   21  C   UNL     1      24.780  41.638  46.939  1.00  0.00     0.184 C 
BRANCH  21  22
HETATM   22  C   UNL     1      25.851  40.683  46.437  1.00  0.00     0.231 C 
HETATM   23  N   UNL     1      26.300  40.973  45.160  1.00  0.00    -0.327 N 
HETATM   24  H   UNL     1      25.727  41.621  44.628  1.00  0.00     0.169 HD
HETATM   25  O   UNL     1      26.297  39.816  47.184  1.00  0.00    -0.272 OA
BRANCH  23  26
HETATM   26  C   UNL     1      27.416  40.437  44.493  1.00  0.00     0.034 A 
HETATM   27  C   UNL     1      27.727  39.077  44.470  1.00  0.00     0.030 A 
HETATM   28  C   UNL     1      28.883  38.628  43.823  1.00  0.00     0.009 A 
HETATM   29  C   UNL     1      29.747  39.530  43.194  1.00  0.00    -0.062 A 
HETATM   30  C   UNL     1      30.972  39.034  42.488  1.00  0.00     0.048 C 
HETATM   31  C   UNL     1      29.424  40.890  43.200  1.00  0.00     0.009 A 
HETATM   32  C   UNL     1      28.271  41.339  43.851  1.00  0.00     0.030 A 
ENDBRANCH  23  26
ENDBRANCH  21  22
ENDBRANCH  20  21
ENDBRANCH   6  20
BRANCH   2  33
HETATM   33  C   UNL     1      28.270  43.206  52.120  1.00  0.00     0.255 C 
HETATM   34  N   UNL     1      28.006  43.321  53.472  1.00  0.00    -0.323 N 
HETATM   35  H   UNL     1      27.109  42.987  53.799  1.00  0.00     0.169 HD
HETATM   36  O   UNL     1      29.308  43.544  51.568  1.00  0.00    -0.268 OA
BRANCH  34  37
HETATM   37  C   UNL     1      28.919  43.723  54.474  1.00  0.00     0.035 A 
HETATM   38  C   UNL     1      28.898  44.976  55.092  1.00  0.00     0.029 A 
HETATM   39  C   UNL     1      29.856  45.313  56.053  1.00  0.00     0.002 A 
HETATM   40  C   UNL     1      30.850  44.404  56.400  1.00  0.00     0.000 A 
HETATM   41  C   UNL     1      30.879  43.150  55.796  1.00  0.00     0.002 A 
HETATM   42  C   UNL     1      29.912  42.807  54.844  1.00  0.00     0.029 A 
ENDBRANCH  34  37
ENDBRANCH   2  33
TORSDOF 9
ENDMDL
MODEL 4
REMARK VINA RESULT:      -8.7      4.030      9.076
REMARK  9 active torsions:
REMARK  status: ('A' for Active; 'I' for Inactive)
REMARK    1  A    between atoms: C_2  and  O_3 
REMARK    2  A    between atoms: O_3  and  C_4 
REMARK    3  A    between atoms: C_5  and  C_6 
REMARK    4  A    between atoms: C_7  and  C_8 
REMARK       I    between atoms: C_8  and  N_9 
REMARK    5  A    between atoms: N_9  and  C_10 
REMARK    6  A    between atoms: C_20  and  S_21 
REMARK    7  A    between atoms: S_21  and  C_22 
REMARK    8  A    between atoms: C_22  and  C_23 
REMARK       I    between atoms: C_23  and  N_24 
REMARK    9  A    between atoms: N_24  and  C_25 
ROOT
HETATM    1  C   UNL     1      25.716  43.858  51.395  1.00  0.00     0.107 C 
HETATM    2  C   UNL     1      26.906  42.896  51.516  1.00  0.00     0.046 C 
HETATM    3  C   UNL     1      26.864  41.679  50.921  1.00  0.00     0.019 C 
HETATM    4  C   UNL     1      28.047  40.749  50.782  1.00  0.00     0.069 C 
HETATM    5  N   UNL     1      25.698  41.242  50.306  1.00  0.00    -0.353 N 
HETATM    6  C   UNL     1      24.613  42.053  50.009  1.00  0.00     0.087 C 
HETATM    7  C   UNL     1      24.551  43.303  50.532  1.00  0.00     0.055 C 
HETATM    8  C   UNL     1      23.615  44.351  49.953  1.00  0.00     0.019 C 
HETATM    9  N   UNL     1      22.838  45.220  49.474  1.00  0.00    -0.096 N 
HETATM   10  H   UNL     1      25.822  40.480  49.644  1.00  0.00     0.166 HD
ENDROOT
BRANCH   1  11
HETATM   11  C   UNL     1      26.114  45.262  50.899  1.00  0.00    -0.011 A 
HETATM   12  C   UNL     1      25.800  46.433  51.626  1.00  0.00     0.076 A 
HETATM   13  C   UNL     1      26.242  47.676  51.164  1.00  0.00     0.037 A 
HETATM   14  C   UNL     1      27.002  47.768  49.996  1.00  0.00     0.003 A 
HETATM   15  C   UNL     1      27.318  46.621  49.275  1.00  0.00     0.001 A 
HETATM   16  C   UNL     1      26.877  45.376  49.720  1.00  0.00     0.011 A 
BRANCH  12  17
HETATM   17  O   UNL     1      25.069  46.254  52.772  1.00  0.00    -0.351 OA
BRANCH  17  18
HETATM   18  C   UNL     1      25.780  46.197  54.006  1.00  0.00     0.171 C 
HETATM   19  C   UNL     1      26.031  47.624  54.460  1.00  0.00     0.034 C 
ENDBRANCH  17  18
ENDBRANCH  12  17
ENDBRANCH   1  11
BRANCH   6  20
HETATM   20  S   UNL     1      23.456  41.549  48.781  1.00  0.00    -0.102 SA
BRANCH  20  21
HETATM   21  C   UNL     1      24.194  42.206  47.259  1.00  0.00     0.184 C 
BRANCH  21  22
HETATM   22  C   UNL     1      24.889  41.140  46.426  1.00  0.00     0.231 C 
HETATM   23  N   UNL     1      26.220  40.956  46.757  1.00  0.00    -0.327 N 
HETATM   24  H   UNL     1      26.635  41.681  47.335  1.00  0.00     0.169 HD
HETATM   25  O   UNL     1      24.243  40.477  45.618  1.00  0.00    -0.272 OA
BRANCH  23  26
HETATM   26  C   UNL     1      27.078  39.921  46.345  1.00  0.00     0.034 A 
HETATM   27  C   UNL     1      27.549  39.776  45.040  1.00  0.00     0.030 A 
HETATM   28  C   UNL     1      28.362  38.690  44.699  1.00  0.00     0.009 A 
HETATM   29  C   UNL     1      28.715  37.733  45.655  1.00  0.00    -0.062 A 
HETATM   30  C   UNL     1      29.604  36.585  45.281  1.00  0.00     0.048 C 
HETATM   31  C   UNL     1      28.260  37.890  46.968  1.00  0.00     0.009 A 
HETATM   32  C   UNL     1      27.443  38.972  47.307  1.00  0.00     0.030 A 
ENDBRANCH  23  26
ENDBRANCH  21  22
ENDBRANCH  20  21
ENDBRANCH   6  20
BRANCH   2  33
HETATM   33  C   UNL     1      28.125  43.390  52.241  1.00  0.00     0.255 C 
HETATM   34  N   UNL     1      27.963  43.467  53.611  1.00  0.00    -0.323 N 
HETATM   35  H   UNL     1      27.072  43.175  53.990  1.00  0.00     0.169 HD
HETATM   36  O   UNL     1      29.140  43.686  51.627  1.00  0.00    -0.268 OA
BRANCH  34  37
HETATM   37  C   UNL     1      28.967  43.773  54.558  1.00  0.00     0.035 A 
HETATM   38  C   UNL     1      29.988  42.893  54.926  1.00  0.00     0.029 A 
HETATM   39  C   UNL     1      30.928  43.256  55.895  1.00  0.00     0.002 A 
HETATM   40  C   UNL     1      30.853  44.500  56.512  1.00  0.00     0.000 A 
HETATM   41  C   UNL     1      29.845  45.389  56.150  1.00  0.00     0.002 A 
HETATM   42  C   UNL     1      28.912  45.032  55.170  1.00  0.00     0.029 A 
ENDBRANCH  34  37
ENDBRANCH   2  33
TORSDOF 9
ENDMDL
MODEL 5
REMARK VINA RESULT:      -8.6      1.510      2.084
REMARK  9 active torsions:
REMARK  status: ('A' for Active; 'I' for Inactive)
REMARK    1  A    between atoms: C_2  and  O_3 
REMARK    2  A    between atoms: O_3  and  C_4 
REMARK    3  A    between atoms: C_5  and  C_6 
REMARK    4  A    between atoms: C_7  and  C_8 
REMARK       I    between atoms: C_8  and  N_9 
REMARK    5  A    between atoms: N_9  and  C_10 
REMARK    6  A    between atoms: C_20  and  S_21 
REMARK    7  A    between atoms: S_21  and  C_22 
REMARK    8  A    between atoms: C_22  and  C_23 
REMARK       I    between atoms: C_23  and  N_24 
REMARK    9  A    between atoms: N_24  and  C_25 
ROOT
HETATM    1  C   UNL     1      22.197  44.000  47.736  1.00  0.00     0.107 C 
HETATM    2  C   UNL     1      22.631  45.331  48.364  1.00  0.00     0.046 C 
HETATM    3  C   UNL     1      23.759  45.399  49.110  1.00  0.00     0.019 C 
HETATM    4  C   UNL     1      24.400  46.683  49.585  1.00  0.00     0.069 C 
HETATM    5  N   UNL     1      24.464  44.242  49.419  1.00  0.00    -0.353 N 
HETATM    6  C   UNL     1      24.262  43.012  48.811  1.00  0.00     0.087 C 
HETATM    7  C   UNL     1      23.174  42.828  48.022  1.00  0.00     0.055 C 
HETATM    8  C   UNL     1      23.101  41.667  47.044  1.00  0.00     0.019 C 
HETATM    9  N   UNL     1      23.040  40.703  46.234  1.00  0.00    -0.096 N 
HETATM   10  H   UNL     1      25.426  44.392  49.713  1.00  0.00     0.166 HD
ENDROOT
BRANCH   1  11
HETATM   11  C   UNL     1      21.925  44.098  46.221  1.00  0.00    -0.011 A 
HETATM   12  C   UNL     1      20.634  43.915  45.677  1.00  0.00     0.076 A 
HETATM   13  C   UNL     1      20.430  44.080  44.303  1.00  0.00     0.037 A 
HETATM   14  C   UNL     1      21.492  44.437  43.469  1.00  0.00     0.003 A 
HETATM   15  C   UNL     1      22.766  44.622  43.996  1.00  0.00     0.001 A 
HETATM   16  C   UNL     1      22.984  44.452  45.363  1.00  0.00     0.011 A 
BRANCH  12  17
HETATM   17  O   UNL     1      19.644  43.586  46.567  1.00  0.00    -0.351 OA
BRANCH  17  18
HETATM   18  C   UNL     1      18.733  44.614  46.948  1.00  0.00     0.171 C 
HETATM   19  C   UNL     1      17.502  44.489  46.069  1.00  0.00     0.034 C 
ENDBRANCH  17  18
ENDBRANCH  12  17
ENDBRANCH   1  11
BRANCH   6  20
HETATM   20  S   UNL     1      25.528  41.790  48.873  1.00  0.00    -0.102 SA
BRANCH  20  21
HETATM   21  C   UNL     1      25.746  41.544  50.658  1.00  0.00     0.184 C 
BRANCH  21  22
HETATM   22  C   UNL     1      26.704  42.545  51.283  1.00  0.00     0.231 C 
HETATM   23  N   UNL     1      26.932  42.328  52.631  1.00  0.00    -0.327 N 
HETATM   24  H   UNL     1      26.284  41.696  53.092  1.00  0.00     0.169 HD
HETATM   25  O   UNL     1      27.261  43.383  50.578  1.00  0.00    -0.272 OA
BRANCH  23  26
HETATM   26  C   UNL     1      27.912  42.919  53.449  1.00  0.00     0.034 A 
HETATM   27  C   UNL     1      29.127  42.312  53.767  1.00  0.00     0.030 A 
HETATM   28  C   UNL     1      30.029  42.946  54.627  1.00  0.00     0.009 A 
HETATM   29  C   UNL     1      29.730  44.193  55.184  1.00  0.00    -0.062 A 
HETATM   30  C   UNL     1      30.715  44.870  56.089  1.00  0.00     0.048 C 
HETATM   31  C   UNL     1      28.522  44.810  54.849  1.00  0.00     0.009 A 
HETATM   32  C   UNL     1      27.618  44.174  53.993  1.00  0.00     0.030 A 
ENDBRANCH  23  26
ENDBRANCH  21  22
ENDBRANCH  20  21
ENDBRANCH   6  20
BRANCH   2  33
HETATM   33  C   UNL     1      21.805  46.546  48.050  1.00  0.00     0.255 C 
HETATM   34  N   UNL     1      20.796  46.783  48.964  1.00  0.00    -0.323 N 
HETATM   35  H   UNL     1      20.720  46.146  49.746  1.00  0.00     0.169 HD
HETATM   36  O   UNL     1      22.044  47.226  47.063  1.00  0.00    -0.268 OA
BRANCH  34  37
HETATM   37  C   UNL     1      19.947  47.913  49.001  1.00  0.00     0.035 A 
HETATM   38  C   UNL     1      18.601  47.891  48.626  1.00  0.00     0.029 A 
HETATM   39  C   UNL     1      17.833  49.058  48.659  1.00  0.00     0.002 A 
HETATM   40  C   UNL     1      18.404  50.262  49.061  1.00  0.00     0.000 A 
HETATM   41  C   UNL     1      19.742  50.296  49.443  1.00  0.00     0.002 A 
HETATM   42  C   UNL     1      20.508  49.125  49.423  1.00  0.00     0.029 A 
ENDBRANCH  34  37
ENDBRANCH   2  33
TORSDOF 9
ENDMDL
MODEL 6
REMARK VINA RESULT:      -8.4      3.747      9.895
REMARK  9 active torsions:
REMARK  status: ('A' for Active; 'I' for Inactive)
REMARK    1  A    between atoms: C_2  and  O_3 
REMARK    2  A    between atoms: O_3  and  C_4 
REMARK    3  A    between atoms: C_5  and  C_6 
REMARK    4  A    between atoms: C_7  and  C_8 
REMARK       I    between atoms: C_8  and  N_9 
REMARK    5  A    between atoms: N_9  and  C_10 
REMARK    6  A    between atoms: C_20  and  S_21 
REMARK    7  A    between atoms: S_21  and  C_22 
REMARK    8  A    between atoms: C_22  and  C_23 
REMARK       I    between atoms: C_23  and  N_24 
REMARK    9  A    between atoms: N_24  and  C_25 
ROOT
HETATM    1  C   UNL     1      25.823  43.693  51.426  1.00  0.00     0.107 C 
HETATM    2  C   UNL     1      27.059  42.794  51.570  1.00  0.00     0.046 C 
HETATM    3  C   UNL     1      27.092  41.577  50.978  1.00  0.00     0.019 C 
HETATM    4  C   UNL     1      28.325  40.710  50.862  1.00  0.00     0.069 C 
HETATM    5  N   UNL     1      25.962  41.079  50.342  1.00  0.00    -0.353 N 
HETATM    6  C   UNL     1      24.842  41.831  50.024  1.00  0.00     0.087 C 
HETATM    7  C   UNL     1      24.705  43.077  50.543  1.00  0.00     0.055 C 
HETATM    8  C   UNL     1      23.726  44.073  49.946  1.00  0.00     0.019 C 
HETATM    9  N   UNL     1      22.913  44.900  49.450  1.00  0.00    -0.096 N 
HETATM   10  H   UNL     1      26.139  40.323  49.684  1.00  0.00     0.166 HD
ENDROOT
BRANCH   1  11
HETATM   11  C   UNL     1      26.156  45.116  50.934  1.00  0.00    -0.011 A 
HETATM   12  C   UNL     1      25.788  46.268  51.666  1.00  0.00     0.076 A 
HETATM   13  C   UNL     1      26.172  47.532  51.208  1.00  0.00     0.037 A 
HETATM   14  C   UNL     1      26.927  47.662  50.040  1.00  0.00     0.003 A 
HETATM   15  C   UNL     1      27.295  46.534  49.315  1.00  0.00     0.001 A 
HETATM   16  C   UNL     1      26.912  45.268  49.756  1.00  0.00     0.011 A 
BRANCH  12  17
HETATM   17  O   UNL     1      25.067  46.052  52.811  1.00  0.00    -0.351 OA
BRANCH  17  18
HETATM   18  C   UNL     1      25.783  46.002  54.042  1.00  0.00     0.171 C 
HETATM   19  C   UNL     1      26.106  47.429  54.447  1.00  0.00     0.034 C 
ENDBRANCH  17  18
ENDBRANCH  12  17
ENDBRANCH   1  11
BRANCH   6  20
HETATM   20  S   UNL     1      23.736  41.266  48.776  1.00  0.00    -0.102 SA
BRANCH  20  21
HETATM   21  C   UNL     1      24.538  41.845  47.254  1.00  0.00     0.184 C 
BRANCH  21  22
HETATM   22  C   UNL     1      23.551  42.371  46.225  1.00  0.00     0.231 C 
HETATM   23  N   UNL     1      23.809  43.669  45.820  1.00  0.00    -0.327 N 
HETATM   24  H   UNL     1      24.462  44.190  46.398  1.00  0.00     0.169 HD
HETATM   25  O   UNL     1      22.685  41.627  45.770  1.00  0.00    -0.272 OA
BRANCH  23  26
HETATM   26  C   UNL     1      23.237  44.369  44.743  1.00  0.00     0.034 A 
HETATM   27  C   UNL     1      23.870  44.554  43.514  1.00  0.00     0.030 A 
HETATM   28  C   UNL     1      23.253  45.305  42.508  1.00  0.00     0.009 A 
HETATM   29  C   UNL     1      21.998  45.884  42.715  1.00  0.00    -0.062 A 
HETATM   30  C   UNL     1      21.339  46.670  41.622  1.00  0.00     0.048 C 
HETATM   31  C   UNL     1      21.354  45.681  43.940  1.00  0.00     0.009 A 
HETATM   32  C   UNL     1      21.974  44.934  44.947  1.00  0.00     0.030 A 
ENDBRANCH  23  26
ENDBRANCH  21  22
ENDBRANCH  20  21
ENDBRANCH   6  20
BRANCH   2  33
HETATM   33  C   UNL     1      28.237  43.353  52.317  1.00  0.00     0.255 C 
HETATM   34  N   UNL     1      28.064  43.381  53.688  1.00  0.00    -0.323 N 
HETATM   35  H   UNL     1      27.194  43.017  54.052  1.00  0.00     0.169 HD
HETATM   36  O   UNL     1      29.233  43.736  51.718  1.00  0.00    -0.268 OA
BRANCH  34  37
HETATM   37  C   UNL     1      29.040  43.731  54.649  1.00  0.00     0.035 A 
HETATM   38  C   UNL     1      30.082  42.889  55.045  1.00  0.00     0.029 A 
HETATM   39  C   UNL     1      30.992  43.294  56.027  1.00  0.00     0.002 A 
HETATM   40  C   UNL     1      30.864  44.542  56.628  1.00  0.00     0.000 A 
HETATM   41  C   UNL     1      29.833  45.392  56.238  1.00  0.00     0.002 A 
HETATM   42  C   UNL     1      28.932  44.994  55.246  1.00  0.00     0.029 A 
ENDBRANCH  34  37
ENDBRANCH   2  33
TORSDOF 9
ENDMDL
MODEL 7
REMARK VINA RESULT:      -8.4      4.913      7.647
REMARK  9 active torsions:
REMARK  status: ('A' for Active; 'I' for Inactive)
REMARK    1  A    between atoms: C_2  and  O_3 
REMARK    2  A    between atoms: O_3  and  C_4 
REMARK    3  A    between atoms: C_5  and  C_6 
REMARK    4  A    between atoms: C_7  and  C_8 
REMARK       I    between atoms: C_8  and  N_9 
REMARK    5  A    between atoms: N_9  and  C_10 
REMARK    6  A    between atoms: C_20  and  S_21 
REMARK    7  A    between atoms: S_21  and  C_22 
REMARK    8  A    between atoms: C_22  and  C_23 
REMARK       I    between atoms: C_23  and  N_24 
REMARK    9  A    between atoms: N_24  and  C_25 
ROOT
HETATM    1  C   UNL     1      16.844  48.853  47.479  1.00  0.00     0.107 C 
HETATM    2  C   UNL     1      17.407  49.526  48.737  1.00  0.00     0.046 C 
HETATM    3  C   UNL     1      18.224  48.841  49.572  1.00  0.00     0.019 C 
HETATM    4  C   UNL     1      19.011  49.460  50.705  1.00  0.00     0.069 C 
HETATM    5  N   UNL     1      18.458  47.488  49.366  1.00  0.00    -0.353 N 
HETATM    6  C   UNL     1      18.128  46.799  48.208  1.00  0.00     0.087 C 
HETATM    7  C   UNL     1      17.329  47.391  47.285  1.00  0.00     0.055 C 
HETATM    8  C   UNL     1      17.248  46.863  45.863  1.00  0.00     0.019 C 
HETATM    9  N   UNL     1      17.181  46.424  44.682  1.00  0.00    -0.096 N 
HETATM   10  H   UNL     1      19.285  47.120  49.830  1.00  0.00     0.166 HD
ENDROOT
BRANCH   1  11
HETATM   11  C   UNL     1      17.090  49.662  46.190  1.00  0.00    -0.011 A 
HETATM   12  C   UNL     1      16.028  50.107  45.368  1.00  0.00     0.076 A 
HETATM   13  C   UNL     1      16.303  50.893  44.246  1.00  0.00     0.037 A 
HETATM   14  C   UNL     1      17.617  51.253  43.938  1.00  0.00     0.003 A 
HETATM   15  C   UNL     1      18.667  50.822  44.742  1.00  0.00     0.001 A 
HETATM   16  C   UNL     1      18.409  50.030  45.860  1.00  0.00     0.011 A 
BRANCH  12  17
HETATM   17  O   UNL     1      14.768  49.727  45.752  1.00  0.00    -0.351 OA
BRANCH  17  18
HETATM   18  C   UNL     1      13.672  50.198  44.972  1.00  0.00     0.171 C 
HETATM   19  C   UNL     1      13.044  48.999  44.285  1.00  0.00     0.034 C 
ENDBRANCH  17  18
ENDBRANCH  12  17
ENDBRANCH   1  11
BRANCH   6  20
HETATM   20  S   UNL     1      18.931  45.277  47.839  1.00  0.00    -0.102 SA
BRANCH  20  21
HETATM   21  C   UNL     1      20.419  45.361  48.874  1.00  0.00     0.184 C 
BRANCH  21  22
HETATM   22  C   UNL     1      21.507  46.242  48.282  1.00  0.00     0.231 C 
HETATM   23  N   UNL     1      22.081  47.108  49.197  1.00  0.00    -0.327 N 
HETATM   24  H   UNL     1      21.578  47.221  50.072  1.00  0.00     0.169 HD
HETATM   25  O   UNL     1      21.858  46.082  47.116  1.00  0.00    -0.272 OA
BRANCH  23  26
HETATM   26  C   UNL     1      23.240  47.889  49.040  1.00  0.00     0.034 A 
HETATM   27  C   UNL     1      23.295  49.050  48.269  1.00  0.00     0.030 A 
HETATM   28  C   UNL     1      24.500  49.746  48.125  1.00  0.00     0.009 A 
HETATM   29  C   UNL     1      25.668  49.290  48.744  1.00  0.00    -0.062 A 
HETATM   30  C   UNL     1      26.948  50.055  48.597  1.00  0.00     0.048 C 
HETATM   31  C   UNL     1      25.607  48.137  49.533  1.00  0.00     0.009 A 
HETATM   32  C   UNL     1      24.404  47.440  49.673  1.00  0.00     0.030 A 
ENDBRANCH  23  26
ENDBRANCH  21  22
ENDBRANCH  20  21
ENDBRANCH   6  20
BRANCH   2  33
HETATM   33  C   UNL     1      17.080  50.977  48.950  1.00  0.00     0.255 C 
HETATM   34  N   UNL     1      15.729  51.258  48.885  1.00  0.00    -0.323 N 
HETATM   35  H   UNL     1      15.102  50.481  48.722  1.00  0.00     0.169 HD
HETATM   36  O   UNL     1      17.967  51.794  49.156  1.00  0.00    -0.268 OA
BRANCH  34  37
HETATM   37  C   UNL     1      15.116  52.500  49.169  1.00  0.00     0.035 A 
HETATM   38  C   UNL     1      14.752  53.432  48.195  1.00  0.00     0.029 A 
HETATM   39  C   UNL     1      14.178  54.655  48.557  1.00  0.00     0.002 A 
HETATM   40  C   UNL     1      13.969  54.961  49.897  1.00  0.00     0.000 A 
HETATM   41  C   UNL     1      14.321  54.037  50.878  1.00  0.00     0.002 A 
HETATM   42  C   UNL     1      14.882  52.808  50.516  1.00  0.00     0.029 A 
ENDBRANCH  34  37
ENDBRANCH   2  33
TORSDOF 9
ENDMDL
MODEL 8
REMARK VINA RESULT:      -8.3      3.670      5.984
REMARK  9 active torsions:
REMARK  status: ('A' for Active; 'I' for Inactive)
REMARK    1  A    between atoms: C_2  and  O_3 
REMARK    2  A    between atoms: O_3  and  C_4 
REMARK    3  A    between atoms: C_5  and  C_6 
REMARK    4  A    between atoms: C_7  and  C_8 
REMARK       I    between atoms: C_8  and  N_9 
REMARK    5  A    between atoms: N_9  and  C_10 
REMARK    6  A    between atoms: C_20  and  S_21 
REMARK    7  A    between atoms: S_21  and  C_22 
REMARK    8  A    between atoms: C_22  and  C_23 
REMARK       I    between atoms: C_23  and  N_24 
REMARK    9  A    between atoms: N_24  and  C_25 
ROOT
HETATM    1  C   UNL     1      18.043  47.924  47.225  1.00  0.00     0.107 C 
HETATM    2  C   UNL     1      17.785  48.840  48.430  1.00  0.00     0.046 C 
HETATM    3  C   UNL     1      18.676  48.897  49.448  1.00  0.00     0.019 C 
HETATM    4  C   UNL     1      18.642  49.916  50.564  1.00  0.00     0.069 C 
HETATM    5  N   UNL     1      19.765  48.035  49.473  1.00  0.00    -0.353 N 
HETATM    6  C   UNL     1      20.185  47.267  48.398  1.00  0.00     0.087 C 
HETATM    7  C   UNL     1      19.386  47.149  47.308  1.00  0.00     0.055 C 
HETATM    8  C   UNL     1      19.936  46.659  45.980  1.00  0.00     0.019 C 
HETATM    9  N   UNL     1      20.392  46.250  44.877  1.00  0.00    -0.096 N 
HETATM   10  H   UNL     1      20.527  48.325  50.082  1.00  0.00     0.166 HD
ENDROOT
BRANCH   1  11
HETATM   11  C   UNL     1      17.941  48.653  45.870  1.00  0.00    -0.011 A 
HETATM   12  C   UNL     1      17.003  48.273  44.883  1.00  0.00     0.076 A 
HETATM   13  C   UNL     1      16.908  49.009  43.698  1.00  0.00     0.037 A 
HETATM   14  C   UNL     1      17.723  50.124  43.490  1.00  0.00     0.003 A 
HETATM   15  C   UNL     1      18.647  50.506  44.457  1.00  0.00     0.001 A 
HETATM   16  C   UNL     1      18.759  49.776  45.639  1.00  0.00     0.011 A 
BRANCH  12  17
HETATM   17  O   UNL     1      16.227  47.182  45.174  1.00  0.00    -0.351 OA
BRANCH  17  18
HETATM   18  C   UNL     1      16.162  46.141  44.203  1.00  0.00     0.171 C 
HETATM   19  C   UNL     1      16.918  44.946  44.755  1.00  0.00     0.034 C 
ENDBRANCH  17  18
ENDBRANCH  12  17
ENDBRANCH   1  11
BRANCH   6  20
HETATM   20  S   UNL     1      21.835  46.654  48.355  1.00  0.00    -0.102 SA
BRANCH  20  21
HETATM   21  C   UNL     1      22.805  48.112  48.831  1.00  0.00     0.184 C 
BRANCH  21  22
HETATM   22  C   UNL     1      24.069  47.761  49.599  1.00  0.00     0.231 C 
HETATM   23  N   UNL     1      24.119  46.442  50.013  1.00  0.00    -0.327 N 
HETATM   24  H   UNL     1      23.243  45.931  49.965  1.00  0.00     0.169 HD
HETATM   25  O   UNL     1      24.963  48.595  49.722  1.00  0.00    -0.272 OA
BRANCH  23  26
HETATM   26  C   UNL     1      25.218  45.742  50.544  1.00  0.00     0.034 A 
HETATM   27  C   UNL     1      26.206  45.142  49.763  1.00  0.00     0.030 A 
HETATM   28  C   UNL     1      27.243  44.423  50.367  1.00  0.00     0.009 A 
HETATM   29  C   UNL     1      27.306  44.290  51.757  1.00  0.00    -0.062 A 
HETATM   30  C   UNL     1      28.433  43.533  52.392  1.00  0.00     0.048 C 
HETATM   31  C   UNL     1      26.327  44.909  52.540  1.00  0.00     0.009 A 
HETATM   32  C   UNL     1      25.289  45.624  51.936  1.00  0.00     0.030 A 
ENDBRANCH  23  26
ENDBRANCH  21  22
ENDBRANCH  20  21
ENDBRANCH   6  20
BRANCH   2  33
HETATM   33  C   UNL     1      16.563  49.712  48.386  1.00  0.00     0.255 C 
HETATM   34  N   UNL     1      16.846  51.065  48.358  1.00  0.00    -0.323 N 
HETATM   35  H   UNL     1      17.821  51.334  48.352  1.00  0.00     0.169 HD
HETATM   36  O   UNL     1      15.443  49.220  48.380  1.00  0.00    -0.268 OA
BRANCH  34  37
HETATM   37  C   UNL     1      15.913  52.113  48.188  1.00  0.00     0.035 A 
HETATM   38  C   UNL     1      15.352  52.838  49.242  1.00  0.00     0.029 A 
HETATM   39  C   UNL     1      14.410  53.841  48.996  1.00  0.00     0.002 A 
HETATM   40  C   UNL     1      14.013  54.125  47.694  1.00  0.00     0.000 A 
HETATM   41  C   UNL     1      14.568  53.414  46.634  1.00  0.00     0.002 A 
HETATM   42  C   UNL     1      15.522  52.420  46.878  1.00  0.00     0.029 A 
ENDBRANCH  34  37
ENDBRANCH   2  33
TORSDOF 9
ENDMDL
MODEL 9
REMARK VINA RESULT:      -8.2      4.859     11.226
REMARK  9 active torsions:
REMARK  status: ('A' for Active; 'I' for Inactive)
REMARK    1  A    between atoms: C_2  and  O_3 
REMARK    2  A    between atoms: O_3  and  C_4 
REMARK    3  A    between atoms: C_5  and  C_6 
REMARK    4  A    between atoms: C_7  and  C_8 
REMARK       I    between atoms: C_8  and  N_9 
REMARK    5  A    between atoms: N_9  and  C_10 
REMARK    6  A    between atoms: C_20  and  S_21 
REMARK    7  A    between atoms: S_21  and  C_22 
REMARK    8  A    between atoms: C_22  and  C_23 
REMARK       I    between atoms: C_23  and  N_24 
REMARK    9  A    between atoms: N_24  and  C_25 
ROOT
HETATM    1  C   UNL     1      20.147  49.194  47.270  1.00  0.00     0.107 C 
HETATM    2  C   UNL     1      21.147  49.724  48.305  1.00  0.00     0.046 C 
HETATM    3  C   UNL     1      20.773  50.677  49.192  1.00  0.00     0.019 C 
HETATM    4  C   UNL     1      21.591  51.110  50.387  1.00  0.00     0.069 C 
HETATM    5  N   UNL     1      19.522  51.273  49.091  1.00  0.00    -0.353 N 
HETATM    6  C   UNL     1      18.485  50.797  48.301  1.00  0.00     0.087 C 
HETATM    7  C   UNL     1      18.734  49.827  47.387  1.00  0.00     0.055 C 
HETATM    8  C   UNL     1      17.604  49.011  46.781  1.00  0.00     0.019 C 
HETATM    9  N   UNL     1      16.666  48.335  46.277  1.00  0.00    -0.096 N 
HETATM   10  H   UNL     1      19.201  51.742  49.935  1.00  0.00     0.166 HD
ENDROOT
BRANCH   1  11
HETATM   11  C   UNL     1      20.033  47.656  47.262  1.00  0.00    -0.011 A 
HETATM   12  C   UNL     1      19.762  46.917  48.436  1.00  0.00     0.076 A 
HETATM   13  C   UNL     1      19.604  45.530  48.361  1.00  0.00     0.037 A 
HETATM   14  C   UNL     1      19.701  44.872  47.133  1.00  0.00     0.003 A 
HETATM   15  C   UNL     1      19.965  45.591  45.973  1.00  0.00     0.001 A 
HETATM   16  C   UNL     1      20.133  46.973  46.034  1.00  0.00     0.011 A 
BRANCH  12  17
HETATM   17  O   UNL     1      19.662  47.641  49.596  1.00  0.00    -0.351 OA
BRANCH  17  18
HETATM   18  C   UNL     1      18.370  47.770  50.184  1.00  0.00     0.171 C 
HETATM   19  C   UNL     1      18.511  48.638  51.421  1.00  0.00     0.034 C 
ENDBRANCH  17  18
ENDBRANCH  12  17
ENDBRANCH   1  11
BRANCH   6  20
HETATM   20  S   UNL     1      16.829  51.280  48.652  1.00  0.00    -0.102 SA
BRANCH  20  21
HETATM   21  C   UNL     1      17.063  52.736  49.710  1.00  0.00     0.184 C 
BRANCH  21  22
HETATM   22  C   UNL     1      15.785  53.534  49.916  1.00  0.00     0.231 C 
HETATM   23  N   UNL     1      15.578  53.922  51.227  1.00  0.00    -0.327 N 
HETATM   24  H   UNL     1      16.154  53.456  51.922  1.00  0.00     0.169 HD
HETATM   25  O   UNL     1      15.097  53.848  48.948  1.00  0.00    -0.272 OA
BRANCH  23  26
HETATM   26  C   UNL     1      14.630  54.838  51.719  1.00  0.00     0.034 A 
HETATM   27  C   UNL     1      13.329  54.947  51.227  1.00  0.00     0.030 A 
HETATM   28  C   UNL     1      12.461  55.918  51.738  1.00  0.00     0.009 A 
HETATM   29  C   UNL     1      12.880  56.794  52.744  1.00  0.00    -0.062 A 
HETATM   30  C   UNL     1      11.933  57.817  53.296  1.00  0.00     0.048 C 
HETATM   31  C   UNL     1      14.177  56.670  53.250  1.00  0.00     0.009 A 
HETATM   32  C   UNL     1      15.046  55.704  52.736  1.00  0.00     0.030 A 
ENDBRANCH  23  26
ENDBRANCH  21  22
ENDBRANCH  20  21
ENDBRANCH   6  20
BRANCH   2  33
HETATM   33  C   UNL     1      22.509  49.091  48.339  1.00  0.00     0.255 C 
HETATM   34  N   UNL     1      22.667  48.168  49.356  1.00  0.00    -0.323 N 
HETATM   35  H   UNL     1      21.870  47.997  49.954  1.00  0.00     0.169 HD
HETATM   36  O   UNL     1      23.363  49.401  47.521  1.00  0.00    -0.268 OA
BRANCH  34  37
HETATM   37  C   UNL     1      23.785  47.327  49.558  1.00  0.00     0.035 A 
HETATM   38  C   UNL     1      25.017  47.769  50.045  1.00  0.00     0.029 A 
HETATM   39  C   UNL     1      26.088  46.881  50.188  1.00  0.00     0.002 A 
HETATM   40  C   UNL     1      25.940  45.543  49.837  1.00  0.00     0.000 A 
HETATM   41  C   UNL     1      24.715  45.088  49.356  1.00  0.00     0.002 A 
HETATM   42  C   UNL     1      23.639  45.973  49.227  1.00  0.00     0.029 A 
ENDBRANCH  34  37
ENDBRANCH   2  33
TORSDOF 9
ENDMDL
MODEL 10
REMARK VINA RESULT:      -8.2      2.944      9.286
REMARK  9 active torsions:
REMARK  status: ('A' for Active; 'I' for Inactive)
REMARK    1  A    between atoms: C_2  and  O_3 
REMARK    2  A    between atoms: O_3  and  C_4 
REMARK    3  A    between atoms: C_5  and  C_6 
REMARK    4  A    between atoms: C_7  and  C_8 
REMARK       I    between atoms: C_8  and  N_9 
REMARK    5  A    between atoms: N_9  and  C_10 
REMARK    6  A    between atoms: C_20  and  S_21 
REMARK    7  A    between atoms: S_21  and  C_22 
REMARK    8  A    between atoms: C_22  and  C_23 
REMARK       I    between atoms: C_23  and  N_24 
REMARK    9  A    between atoms: N_24  and  C_25 
ROOT
HETATM    1  C   UNL     1      25.762  42.864  48.394  1.00  0.00     0.107 C 
HETATM    2  C   UNL     1      25.688  43.966  49.459  1.00  0.00     0.046 C 
HETATM    3  C   UNL     1      24.532  44.640  49.666  1.00  0.00     0.019 C 
HETATM    4  C   UNL     1      24.279  45.577  50.825  1.00  0.00     0.069 C 
HETATM    5  N   UNL     1      23.442  44.430  48.832  1.00  0.00    -0.353 N 
HETATM    6  C   UNL     1      23.330  43.381  47.933  1.00  0.00     0.087 C 
HETATM    7  C   UNL     1      24.417  42.619  47.657  1.00  0.00     0.055 C 
HETATM    8  C   UNL     1      24.276  41.256  47.000  1.00  0.00     0.019 C 
HETATM    9  N   UNL     1      24.158  40.125  46.454  1.00  0.00    -0.096 N 
HETATM   10  H   UNL     1      22.547  44.730  49.212  1.00  0.00     0.166 HD
ENDROOT
BRANCH   1  11
HETATM   11  C   UNL     1      26.316  41.529  48.932  1.00  0.00    -0.011 A 
HETATM   12  C   UNL     1      27.429  40.887  48.342  1.00  0.00     0.076 A 
HETATM   13  C   UNL     1      27.932  39.712  48.910  1.00  0.00     0.037 A 
HETATM   14  C   UNL     1      27.350  39.177  50.061  1.00  0.00     0.003 A 
HETATM   15  C   UNL     1      26.257  39.804  50.650  1.00  0.00     0.001 A 
HETATM   16  C   UNL     1      25.740  40.971  50.089  1.00  0.00     0.011 A 
BRANCH  12  17
HETATM   17  O   UNL     1      27.953  41.488  47.227  1.00  0.00    -0.351 OA
BRANCH  17  18
HETATM   18  C   UNL     1      28.229  40.660  46.100  1.00  0.00     0.171 C 
HETATM   19  C   UNL     1      27.401  41.174  44.936  1.00  0.00     0.034 C 
ENDBRANCH  17  18
ENDBRANCH  12  17
ENDBRANCH   1  11
BRANCH   6  20
HETATM   20  S   UNL     1      21.741  42.902  47.344  1.00  0.00    -0.102 SA
BRANCH  20  21
HETATM   21  C   UNL     1      21.709  43.621  45.678  1.00  0.00     0.184 C 
BRANCH  21  22
HETATM   22  C   UNL     1      21.688  45.141  45.688  1.00  0.00     0.231 C 
HETATM   23  N   UNL     1      20.918  45.680  46.703  1.00  0.00    -0.327 N 
HETATM   24  H   UNL     1      20.289  45.033  47.171  1.00  0.00     0.169 HD
HETATM   25  O   UNL     1      22.388  45.769  44.897  1.00  0.00    -0.272 OA
BRANCH  23  26
HETATM   26  C   UNL     1      20.858  47.020  47.126  1.00  0.00     0.034 A 
HETATM   27  C   UNL     1      19.775  47.864  46.879  1.00  0.00     0.030 A 
HETATM   28  C   UNL     1      19.813  49.200  47.291  1.00  0.00     0.009 A 
HETATM   29  C   UNL     1      20.932  49.713  47.953  1.00  0.00    -0.062 A 
HETATM   30  C   UNL     1      20.952  51.142  48.408  1.00  0.00     0.048 C 
HETATM   31  C   UNL     1      22.009  48.861  48.219  1.00  0.00     0.009 A 
HETATM   32  C   UNL     1      21.973  47.528  47.802  1.00  0.00     0.030 A 
ENDBRANCH  23  26
ENDBRANCH  21  22
ENDBRANCH  20  21
ENDBRANCH   6  20
BRANCH   2  33
HETATM   33  C   UNL     1      26.912  44.199  50.299  1.00  0.00     0.255 C 
HETATM   34  N   UNL     1      26.864  43.580  51.534  1.00  0.00    -0.323 N 
HETATM   35  H   UNL     1      26.042  43.029  51.745  1.00  0.00     0.169 HD
HETATM   36  O   UNL     1      27.836  44.883  49.883  1.00  0.00    -0.268 OA
BRANCH  34  37
HETATM   37  C   UNL     1      27.912  43.514  52.480  1.00  0.00     0.035 A 
HETATM   38  C   UNL     1      28.000  44.335  53.607  1.00  0.00     0.029 A 
HETATM   39  C   UNL     1      29.086  44.233  54.481  1.00  0.00     0.002 A 
HETATM   40  C   UNL     1      30.100  43.313  54.234  1.00  0.00     0.000 A 
HETATM   41  C   UNL     1      30.022  42.485  53.118  1.00  0.00     0.002 A 
HETATM   42  C   UNL     1      28.929  42.577  52.250  1.00  0.00     0.029 A 
ENDBRANCH  34  37
ENDBRANCH   2  33
TORSDOF 9
ENDMDL
