MODEL 1
REMARK VINA RESULT:     -10.0      0.000      0.000
REMARK  8 active torsions:
REMARK  status: ('A' for Active; 'I' for Inactive)
REMARK    1  A    between atoms: C_2  and  C_3 
REMARK    2  A    between atoms: C_3  and  C_4 
REMARK    3  A    between atoms: C_7  and  N_8 
REMARK       I    between atoms: N_8  and  C_9 
REMARK    4  A    between atoms: C_9  and  C_10 
REMARK    5  A    between atoms: C_13  and  N_14 
REMARK       I    between atoms: N_14  and  C_15 
REMARK    6  A    between atoms: C_15  and  C_16 
REMARK    7  A    between atoms: C_16  and  C_17 
REMARK    8  A    between atoms: C_19  and  N_20 
ROOT
HETATM    1  C   UNL     1      24.940  44.355  51.704  1.00  0.00     0.032 A 
HETATM    2  C   UNL     1      24.343  43.248  51.089  1.00  0.00     0.019 A 
HETATM    3  C   UNL     1      23.577  43.410  49.926  1.00  0.00     0.030 A 
HETATM    4  C   UNL     1      23.367  44.678  49.381  1.00  0.00     0.034 A 
HETATM    5  C   UNL     1      23.927  45.789  50.020  1.00  0.00     0.030 A 
HETATM    6  C   UNL     1      24.718  45.628  51.165  1.00  0.00     0.019 A 
ENDROOT
BRANCH   4   7
HETATM    7  N   UNL     1      22.571  44.914  48.239  1.00  0.00    -0.327 N 
HETATM    8  C   UNL     1      21.197  45.048  48.216  1.00  0.00     0.223 C 
HETATM    9  O   UNL     1      20.459  44.892  49.189  1.00  0.00    -0.273 OA
HETATM   10  H   UNL     1      23.077  44.868  47.365  1.00  0.00     0.169 HD
BRANCH   8  11
HETATM   11  C   UNL     1      20.579  45.509  46.900  1.00  0.00     0.128 C 
BRANCH  11  12
HETATM   12  C   UNL     1      20.442  46.994  46.602  1.00  0.00     0.158 A 
HETATM   13  S   UNL     1      21.459  48.113  47.593  1.00  0.00    -0.077 SA
HETATM   14  C   UNL     1      20.027  48.924  48.204  1.00  0.00     0.168 A 
HETATM   15  N   UNL     1      18.902  48.463  47.761  1.00  0.00    -0.189 NA
HETATM   16  C   UNL     1      19.025  47.472  46.820  1.00  0.00     0.260 A 
HETATM   17  O   UNL     1      18.067  46.966  46.250  1.00  0.00    -0.270 OA
BRANCH  14  18
HETATM   18  N   UNL     1      20.136  49.935  49.136  1.00  0.00    -0.360 N 
HETATM   19  C   UNL     1      20.643  51.278  48.827  1.00  0.00     0.125 C 
HETATM   20  C   UNL     1      19.473  52.179  48.431  1.00  0.00     0.020 C 
HETATM   21  C   UNL     1      18.403  52.208  49.527  1.00  0.00     0.003 C 
HETATM   22  C   UNL     1      17.991  50.795  49.946  1.00  0.00     0.020 C 
HETATM   23  C   UNL     1      19.217  49.946  50.287  1.00  0.00     0.125 C 
ENDBRANCH  14  18
ENDBRANCH  11  12
ENDBRANCH   8  11
ENDBRANCH   4   7
BRANCH   1  24
HETATM   24  C   UNL     1      25.770  44.241  52.947  1.00  0.00     0.256 C 
HETATM   25  N   UNL     1      27.118  44.517  52.796  1.00  0.00    -0.323 N 
HETATM   26  H   UNL     1      27.426  44.860  51.898  1.00  0.00     0.169 HD
HETATM   27  O   UNL     1      25.204  43.935  53.991  1.00  0.00    -0.267 OA
BRANCH  25  28
HETATM   28  C   UNL     1      28.135  44.401  53.768  1.00  0.00     0.035 A 
HETATM   29  C   UNL     1      29.061  43.361  53.818  1.00  0.00     0.030 A 
HETATM   30  C   UNL     1      30.050  43.335  54.811  1.00  0.00     0.010 A 
HETATM   31  C   UNL     1      30.143  44.357  55.764  1.00  0.00    -0.054 A 
HETATM   32  C   UNL     1      29.208  45.398  55.713  1.00  0.00     0.010 A 
HETATM   33  C   UNL     1      28.213  45.417  54.730  1.00  0.00     0.030 A 
BRANCH  31  34
HETATM   34  C   UNL     1      31.214  44.355  56.843  1.00  0.00     0.014 C 
HETATM   35  C   UNL     1      31.805  42.951  57.032  1.00  0.00     0.015 C 
BRANCH  34  36
HETATM   36  C   UNL     1      30.703  44.906  58.189  1.00  0.00     0.004 C 
HETATM   37  C   UNL     1      31.090  46.361  58.423  1.00  0.00     0.006 C 
ENDBRANCH  34  36
ENDBRANCH  31  34
ENDBRANCH  25  28
ENDBRANCH   1  24
TORSDOF 8
ENDMDL
MODEL 2
REMARK VINA RESULT:      -9.9      2.749     12.381
REMARK  8 active torsions:
REMARK  status: ('A' for Active; 'I' for Inactive)
REMARK    1  A    between atoms: C_2  and  C_3 
REMARK    2  A    between atoms: C_3  and  C_4 
REMARK    3  A    between atoms: C_7  and  N_8 
REMARK       I    between atoms: N_8  and  C_9 
REMARK    4  A    between atoms: C_9  and  C_10 
REMARK    5  A    between atoms: C_13  and  N_14 
REMARK       I    between atoms: N_14  and  C_15 
REMARK    6  A    between atoms: C_15  and  C_16 
REMARK    7  A    between atoms: C_16  and  C_17 
REMARK    8  A    between atoms: C_19  and  N_20 
ROOT
HETATM    1  C   UNL     1      23.215  47.540  49.213  1.00  0.00     0.032 A 
HETATM    2  C   UNL     1      24.229  48.056  50.028  1.00  0.00     0.019 A 
HETATM    3  C   UNL     1      25.189  47.205  50.593  1.00  0.00     0.030 A 
HETATM    4  C   UNL     1      25.131  45.826  50.382  1.00  0.00     0.034 A 
HETATM    5  C   UNL     1      24.094  45.304  49.603  1.00  0.00     0.030 A 
HETATM    6  C   UNL     1      23.149  46.155  49.013  1.00  0.00     0.019 A 
ENDROOT
BRANCH   4   7
HETATM    7  N   UNL     1      26.041  44.911  50.956  1.00  0.00    -0.327 N 
HETATM    8  C   UNL     1      25.811  44.121  52.065  1.00  0.00     0.223 C 
HETATM    9  O   UNL     1      24.800  44.170  52.766  1.00  0.00    -0.273 OA
HETATM   10  H   UNL     1      26.969  44.943  50.557  1.00  0.00     0.169 HD
BRANCH   8  11
HETATM   11  C   UNL     1      26.860  43.057  52.374  1.00  0.00     0.128 C 
BRANCH  11  12
HETATM   12  C   UNL     1      27.372  42.884  53.795  1.00  0.00     0.158 A 
HETATM   13  S   UNL     1      27.744  44.398  54.710  1.00  0.00    -0.077 SA
HETATM   14  C   UNL     1      29.418  43.907  54.904  1.00  0.00     0.168 A 
HETATM   15  N   UNL     1      29.721  42.765  54.376  1.00  0.00    -0.189 NA
HETATM   16  C   UNL     1      28.659  42.094  53.826  1.00  0.00     0.260 A 
HETATM   17  O   UNL     1      28.753  40.974  53.338  1.00  0.00    -0.270 OA
BRANCH  14  18
HETATM   18  N   UNL     1      30.325  44.736  55.529  1.00  0.00    -0.360 N 
HETATM   19  C   UNL     1      29.962  46.000  56.182  1.00  0.00     0.125 C 
HETATM   20  C   UNL     1      29.647  45.733  57.654  1.00  0.00     0.020 C 
HETATM   21  C   UNL     1      30.824  45.045  58.354  1.00  0.00     0.003 C 
HETATM   22  C   UNL     1      31.291  43.810  57.580  1.00  0.00     0.020 C 
HETATM   23  C   UNL     1      31.545  44.149  56.110  1.00  0.00     0.125 C 
ENDBRANCH  14  18
ENDBRANCH  11  12
ENDBRANCH   8  11
ENDBRANCH   4   7
BRANCH   1  24
HETATM   24  C   UNL     1      22.163  48.401  48.582  1.00  0.00     0.256 C 
HETATM   25  N   UNL     1      21.419  49.176  49.454  1.00  0.00    -0.323 N 
HETATM   26  H   UNL     1      21.694  49.179  50.425  1.00  0.00     0.169 HD
HETATM   27  O   UNL     1      22.050  48.371  47.361  1.00  0.00    -0.267 OA
BRANCH  25  28
HETATM   28  C   UNL     1      20.317  50.003  49.147  1.00  0.00     0.035 A 
HETATM   29  C   UNL     1      20.380  51.391  49.046  1.00  0.00     0.030 A 
HETATM   30  C   UNL     1      19.237  52.133  48.718  1.00  0.00     0.010 A 
HETATM   31  C   UNL     1      18.012  51.502  48.471  1.00  0.00    -0.054 A 
HETATM   32  C   UNL     1      17.953  50.107  48.577  1.00  0.00     0.010 A 
HETATM   33  C   UNL     1      19.091  49.368  48.917  1.00  0.00     0.030 A 
BRANCH  31  34
HETATM   34  C   UNL     1      16.763  52.286  48.103  1.00  0.00     0.014 C 
HETATM   35  C   UNL     1      15.700  52.180  49.205  1.00  0.00     0.015 C 
BRANCH  34  36
HETATM   36  C   UNL     1      16.171  51.858  46.746  1.00  0.00     0.004 C 
HETATM   37  C   UNL     1      16.951  52.403  45.556  1.00  0.00     0.006 C 
ENDBRANCH  34  36
ENDBRANCH  31  34
ENDBRANCH  25  28
ENDBRANCH   1  24
TORSDOF 8
ENDMDL
MODEL 3
REMARK VINA RESULT:      -9.9      1.959      2.887
REMARK  8 active torsions:
REMARK  status: ('A' for Active; 'I' for Inactive)
REMARK    1  A    between atoms: C_2  and  C_3 
REMARK    2  A    between atoms: C_3  and  C_4 
REMARK    3  A    between atoms: C_7  and  N_8 
REMARK       I    between atoms: N_8  and  C_9 
REMARK    4  A    between atoms: C_9  and  C_10 
REMARK    5  A    between atoms: C_13  and  N_14 
REMARK       I    between atoms: N_14  and  C_15 
REMARK    6  A    between atoms: C_15  and  C_16 
REMARK    7  A    between atoms: C_16  and  C_17 
REMARK    8  A    between atoms: C_19  and  N_20 
ROOT
HETATM    1  C   UNL     1      24.344  46.767  50.033  1.00  0.00     0.032 A 
HETATM    2  C   UNL     1      23.683  47.930  49.621  1.00  0.00     0.019 A 
HETATM    3  C   UNL     1      22.494  47.847  48.884  1.00  0.00     0.030 A 
HETATM    4  C   UNL     1      21.966  46.608  48.519  1.00  0.00     0.034 A 
HETATM    5  C   UNL     1      22.648  45.446  48.893  1.00  0.00     0.030 A 
HETATM    6  C   UNL     1      23.822  45.524  49.654  1.00  0.00     0.019 A 
ENDROOT
BRANCH   4   7
HETATM    7  N   UNL     1      20.796  46.457  47.742  1.00  0.00    -0.327 N 
HETATM    8  C   UNL     1      20.745  46.240  46.379  1.00  0.00     0.223 C 
HETATM    9  O   UNL     1      21.724  46.235  45.631  1.00  0.00    -0.273 OA
HETATM   10  H   UNL     1      19.938  46.636  48.245  1.00  0.00     0.169 HD
BRANCH   8  11
HETATM   11  C   UNL     1      19.380  45.897  45.793  1.00  0.00     0.128 C 
BRANCH  11  12
HETATM   12  C   UNL     1      18.163  46.733  46.161  1.00  0.00     0.158 A 
HETATM   13  S   UNL     1      18.330  48.524  45.984  1.00  0.00    -0.077 SA
HETATM   14  C   UNL     1      18.004  48.755  47.693  1.00  0.00     0.168 A 
HETATM   15  N   UNL     1      17.789  47.670  48.364  1.00  0.00    -0.189 NA
HETATM   16  C   UNL     1      17.769  46.527  47.605  1.00  0.00     0.260 A 
HETATM   17  O   UNL     1      17.519  45.421  48.066  1.00  0.00    -0.270 OA
BRANCH  14  18
HETATM   18  N   UNL     1      18.044  50.015  48.251  1.00  0.00    -0.360 N 
HETATM   19  C   UNL     1      17.925  50.274  49.692  1.00  0.00     0.125 C 
HETATM   20  C   UNL     1      19.319  50.280  50.319  1.00  0.00     0.020 C 
HETATM   21  C   UNL     1      20.231  51.299  49.628  1.00  0.00     0.003 C 
HETATM   22  C   UNL     1      20.229  51.113  48.109  1.00  0.00     0.020 C 
HETATM   23  C   UNL     1      18.800  51.077  47.564  1.00  0.00     0.125 C 
ENDBRANCH  14  18
ENDBRANCH  11  12
ENDBRANCH   8  11
ENDBRANCH   4   7
BRANCH   1  24
HETATM   24  C   UNL     1      25.618  46.794  50.823  1.00  0.00     0.256 C 
HETATM   25  N   UNL     1      25.553  46.230  52.085  1.00  0.00    -0.323 N 
HETATM   26  H   UNL     1      24.697  45.764  52.344  1.00  0.00     0.169 HD
HETATM   27  O   UNL     1      26.610  47.291  50.299  1.00  0.00    -0.267 OA
BRANCH  25  28
HETATM   28  C   UNL     1      26.566  46.200  53.068  1.00  0.00     0.035 A 
HETATM   29  C   UNL     1      26.870  47.262  53.917  1.00  0.00     0.030 A 
HETATM   30  C   UNL     1      27.883  47.138  54.877  1.00  0.00     0.010 A 
HETATM   31  C   UNL     1      28.603  45.945  55.019  1.00  0.00    -0.054 A 
HETATM   32  C   UNL     1      28.297  44.882  54.161  1.00  0.00     0.010 A 
HETATM   33  C   UNL     1      27.294  45.010  53.194  1.00  0.00     0.030 A 
BRANCH  31  34
HETATM   34  C   UNL     1      29.698  45.786  56.061  1.00  0.00     0.014 C 
HETATM   35  C   UNL     1      30.414  44.437  55.907  1.00  0.00     0.015 C 
BRANCH  34  36
HETATM   36  C   UNL     1      29.175  45.953  57.501  1.00  0.00     0.004 C 
HETATM   37  C   UNL     1      30.190  45.532  58.557  1.00  0.00     0.006 C 
ENDBRANCH  34  36
ENDBRANCH  31  34
ENDBRANCH  25  28
ENDBRANCH   1  24
TORSDOF 8
ENDMDL
MODEL 4
REMARK VINA RESULT:      -9.0     14.284     14.891
REMARK  8 active torsions:
REMARK  status: ('A' for Active; 'I' for Inactive)
REMARK    1  A    between atoms: C_2  and  C_3 
REMARK    2  A    between atoms: C_3  and  C_4 
REMARK    3  A    between atoms: C_7  and  N_8 
REMARK       I    between atoms: N_8  and  C_9 
REMARK    4  A    between atoms: C_9  and  C_10 
REMARK    5  A    between atoms: C_13  and  N_14 
REMARK       I    between atoms: N_14  and  C_15 
REMARK    6  A    between atoms: C_15  and  C_16 
REMARK    7  A    between atoms: C_16  and  C_17 
REMARK    8  A    between atoms: C_19  and  N_20 
ROOT
HETATM    1  C   UNL     1      35.502  51.758  42.825  1.00  0.00     0.032 A 
HETATM    2  C   UNL     1      34.218  51.631  43.368  1.00  0.00     0.019 A 
HETATM    3  C   UNL     1      33.256  50.830  42.737  1.00  0.00     0.030 A 
HETATM    4  C   UNL     1      33.548  50.172  41.541  1.00  0.00     0.034 A 
HETATM    5  C   UNL     1      34.817  50.332  40.975  1.00  0.00     0.030 A 
HETATM    6  C   UNL     1      35.790  51.109  41.617  1.00  0.00     0.019 A 
ENDROOT
BRANCH   4   7
HETATM    7  N   UNL     1      32.612  49.386  40.834  1.00  0.00    -0.327 N 
HETATM    8  C   UNL     1      32.495  48.012  40.890  1.00  0.00     0.223 C 
HETATM    9  O   UNL     1      33.258  47.266  41.506  1.00  0.00    -0.273 OA
HETATM   10  H   UNL     1      32.067  49.900  40.156  1.00  0.00     0.169 HD
BRANCH   8  11
HETATM   11  C   UNL     1      31.276  47.402  40.205  1.00  0.00     0.128 C 
BRANCH  11  12
HETATM   12  C   UNL     1      29.877  47.783  40.664  1.00  0.00     0.158 A 
HETATM   13  S   UNL     1      28.839  48.645  39.460  1.00  0.00    -0.077 SA
HETATM   14  C   UNL     1      28.696  50.029  40.529  1.00  0.00     0.168 A 
HETATM   15  N   UNL     1      29.320  49.921  41.658  1.00  0.00    -0.189 NA
HETATM   16  C   UNL     1      29.919  48.704  41.860  1.00  0.00     0.260 A 
HETATM   17  O   UNL     1      30.500  48.407  42.897  1.00  0.00    -0.270 OA
BRANCH  14  18
HETATM   18  N   UNL     1      28.007  51.156  40.131  1.00  0.00    -0.360 N 
HETATM   19  C   UNL     1      27.981  52.410  40.895  1.00  0.00     0.125 C 
HETATM   20  C   UNL     1      29.125  53.310  40.425  1.00  0.00     0.020 C 
HETATM   21  C   UNL     1      29.046  53.557  38.915  1.00  0.00     0.003 C 
HETATM   22  C   UNL     1      28.922  52.245  38.138  1.00  0.00     0.020 C 
HETATM   23  C   UNL     1      27.785  51.385  38.693  1.00  0.00     0.125 C 
ENDBRANCH  14  18
ENDBRANCH  11  12
ENDBRANCH   8  11
ENDBRANCH   4   7
BRANCH   1  24
HETATM   24  C   UNL     1      36.570  52.599  43.455  1.00  0.00     0.256 C 
HETATM   25  N   UNL     1      37.297  51.990  44.462  1.00  0.00    -0.323 N 
HETATM   26  H   UNL     1      37.125  51.010  44.634  1.00  0.00     0.169 HD
HETATM   27  O   UNL     1      36.730  53.739  43.031  1.00  0.00    -0.267 OA
BRANCH  25  28
HETATM   28  C   UNL     1      38.291  52.571  45.280  1.00  0.00     0.035 A 
HETATM   29  C   UNL     1      38.093  53.694  46.079  1.00  0.00     0.030 A 
HETATM   30  C   UNL     1      39.133  54.194  46.874  1.00  0.00     0.010 A 
HETATM   31  C   UNL     1      40.388  53.573  46.897  1.00  0.00    -0.054 A 
HETATM   32  C   UNL     1      40.583  52.447  46.089  1.00  0.00     0.010 A 
HETATM   33  C   UNL     1      39.549  51.955  45.286  1.00  0.00     0.030 A 
BRANCH  31  34
HETATM   34  C   UNL     1      41.527  54.092  47.760  1.00  0.00     0.014 C 
HETATM   35  C   UNL     1      41.830  55.564  47.448  1.00  0.00     0.015 C 
BRANCH  34  36
HETATM   36  C   UNL     1      42.806  53.242  47.628  1.00  0.00     0.004 C 
HETATM   37  C   UNL     1      44.077  54.026  47.932  1.00  0.00     0.006 C 
ENDBRANCH  34  36
ENDBRANCH  31  34
ENDBRANCH  25  28
ENDBRANCH   1  24
TORSDOF 8
ENDMDL
MODEL 5
REMARK VINA RESULT:      -8.7      1.878      2.143
REMARK  8 active torsions:
REMARK  status: ('A' for Active; 'I' for Inactive)
REMARK    1  A    between atoms: C_2  and  C_3 
REMARK    2  A    between atoms: C_3  and  C_4 
REMARK    3  A    between atoms: C_7  and  N_8 
REMARK       I    between atoms: N_8  and  C_9 
REMARK    4  A    between atoms: C_9  and  C_10 
REMARK    5  A    between atoms: C_13  and  N_14 
REMARK       I    between atoms: N_14  and  C_15 
REMARK    6  A    between atoms: C_15  and  C_16 
REMARK    7  A    between atoms: C_16  and  C_17 
REMARK    8  A    between atoms: C_19  and  N_20 
ROOT
HETATM    1  C   UNL     1      25.505  44.279  49.869  1.00  0.00     0.032 A 
HETATM    2  C   UNL     1      25.134  43.085  49.241  1.00  0.00     0.019 A 
HETATM    3  C   UNL     1      23.957  43.017  48.483  1.00  0.00     0.030 A 
HETATM    4  C   UNL     1      23.117  44.127  48.368  1.00  0.00     0.034 A 
HETATM    5  C   UNL     1      23.466  45.309  49.031  1.00  0.00     0.030 A 
HETATM    6  C   UNL     1      24.656  45.388  49.765  1.00  0.00     0.019 A 
ENDROOT
BRANCH   4   7
HETATM    7  N   UNL     1      21.898  44.112  47.656  1.00  0.00    -0.327 N 
HETATM    8  C   UNL     1      21.627  44.800  46.490  1.00  0.00     0.223 C 
HETATM    9  O   UNL     1      22.394  45.599  45.951  1.00  0.00    -0.273 OA
HETATM   10  H   UNL     1      21.147  43.630  48.131  1.00  0.00     0.169 HD
BRANCH   8  11
HETATM   11  C   UNL     1      20.315  44.464  45.790  1.00  0.00     0.128 C 
BRANCH  11  12
HETATM   12  C   UNL     1      19.086  45.329  46.023  1.00  0.00     0.158 A 
HETATM   13  S   UNL     1      19.139  47.006  45.350  1.00  0.00    -0.077 SA
HETATM   14  C   UNL     1      18.934  47.690  46.953  1.00  0.00     0.168 A 
HETATM   15  N   UNL     1      18.831  46.826  47.911  1.00  0.00    -0.189 NA
HETATM   16  C   UNL     1      18.815  45.518  47.497  1.00  0.00     0.260 A 
HETATM   17  O   UNL     1      18.663  44.574  48.263  1.00  0.00    -0.270 OA
BRANCH  14  18
HETATM   18  N   UNL     1      18.947  49.056  47.142  1.00  0.00    -0.360 N 
HETATM   19  C   UNL     1      18.558  50.026  46.110  1.00  0.00     0.125 C 
HETATM   20  C   UNL     1      17.064  50.326  46.239  1.00  0.00     0.020 C 
HETATM   21  C   UNL     1      16.720  50.819  47.648  1.00  0.00     0.003 C 
HETATM   22  C   UNL     1      17.264  49.873  48.721  1.00  0.00     0.020 C 
HETATM   23  C   UNL     1      18.751  49.591  48.500  1.00  0.00     0.125 C 
ENDBRANCH  14  18
ENDBRANCH  11  12
ENDBRANCH   8  11
ENDBRANCH   4   7
BRANCH   1  24
HETATM   24  C   UNL     1      26.752  44.410  50.691  1.00  0.00     0.256 C 
HETATM   25  N   UNL     1      26.655  43.979  52.002  1.00  0.00    -0.323 N 
HETATM   26  H   UNL     1      25.797  43.528  52.282  1.00  0.00     0.169 HD
HETATM   27  O   UNL     1      27.753  44.867  50.148  1.00  0.00    -0.267 OA
BRANCH  25  28
HETATM   28  C   UNL     1      27.636  44.068  53.013  1.00  0.00     0.035 A 
HETATM   29  C   UNL     1      28.726  43.208  53.129  1.00  0.00     0.030 A 
HETATM   30  C   UNL     1      29.663  43.381  54.157  1.00  0.00     0.010 A 
HETATM   31  C   UNL     1      29.538  44.426  55.080  1.00  0.00    -0.054 A 
HETATM   32  C   UNL     1      28.439  45.285  54.962  1.00  0.00     0.010 A 
HETATM   33  C   UNL     1      27.497  45.105  53.944  1.00  0.00     0.030 A 
BRANCH  31  34
HETATM   34  C   UNL     1      30.548  44.639  56.196  1.00  0.00     0.014 C 
HETATM   35  C   UNL     1      31.336  43.352  56.480  1.00  0.00     0.015 C 
BRANCH  34  36
HETATM   36  C   UNL     1      29.901  45.167  57.491  1.00  0.00     0.004 C 
HETATM   37  C   UNL     1      30.718  46.263  58.163  1.00  0.00     0.006 C 
ENDBRANCH  34  36
ENDBRANCH  31  34
ENDBRANCH  25  28
ENDBRANCH   1  24
TORSDOF 8
ENDMDL
MODEL 6
REMARK VINA RESULT:      -8.7      3.889     13.320
REMARK  8 active torsions:
REMARK  status: ('A' for Active; 'I' for Inactive)
REMARK    1  A    between atoms: C_2  and  C_3 
REMARK    2  A    between atoms: C_3  and  C_4 
REMARK    3  A    between atoms: C_7  and  N_8 
REMARK       I    between atoms: N_8  and  C_9 
REMARK    4  A    between atoms: C_9  and  C_10 
REMARK    5  A    between atoms: C_13  and  N_14 
REMARK       I    between atoms: N_14  and  C_15 
REMARK    6  A    between atoms: C_15  and  C_16 
REMARK    7  A    between atoms: C_16  and  C_17 
REMARK    8  A    between atoms: C_19  and  N_20 
ROOT
HETATM    1  C   UNL     1      20.822  50.493  48.475  1.00  0.00     0.032 A 
HETATM    2  C   UNL     1      21.929  51.091  49.090  1.00  0.00     0.019 A 
HETATM    3  C   UNL     1      23.010  50.309  49.520  1.00  0.00     0.030 A 
HETATM    4  C   UNL     1      22.990  48.921  49.373  1.00  0.00     0.034 A 
HETATM    5  C   UNL     1      21.866  48.319  48.798  1.00  0.00     0.030 A 
HETATM    6  C   UNL     1      20.796  49.099  48.342  1.00  0.00     0.019 A 
ENDROOT
BRANCH   4   7
HETATM    7  N   UNL     1      24.027  48.074  49.822  1.00  0.00    -0.327 N 
HETATM    8  C   UNL     1      25.366  48.188  49.508  1.00  0.00     0.223 C 
HETATM    9  O   UNL     1      25.834  49.003  48.712  1.00  0.00    -0.273 OA
HETATM   10  H   UNL     1      23.707  47.261  50.330  1.00  0.00     0.169 HD
BRANCH   8  11
HETATM   11  C   UNL     1      26.327  47.289  50.278  1.00  0.00     0.128 C 
BRANCH  11  12
HETATM   12  C   UNL     1      25.827  45.987  50.886  1.00  0.00     0.158 A 
HETATM   13  S   UNL     1      25.693  45.937  52.688  1.00  0.00    -0.077 SA
HETATM   14  C   UNL     1      26.830  44.603  52.768  1.00  0.00     0.168 A 
HETATM   15  N   UNL     1      27.287  44.200  51.627  1.00  0.00    -0.189 NA
HETATM   16  C   UNL     1      26.738  44.831  50.540  1.00  0.00     0.260 A 
HETATM   17  O   UNL     1      27.008  44.534  49.383  1.00  0.00    -0.270 OA
BRANCH  14  18
HETATM   18  N   UNL     1      27.227  44.090  53.985  1.00  0.00    -0.360 N 
HETATM   19  C   UNL     1      27.980  42.838  54.137  1.00  0.00     0.125 C 
HETATM   20  C   UNL     1      29.477  43.146  54.118  1.00  0.00     0.020 C 
HETATM   21  C   UNL     1      29.844  44.170  55.197  1.00  0.00     0.003 C 
HETATM   22  C   UNL     1      28.949  45.409  55.121  1.00  0.00     0.020 C 
HETATM   23  C   UNL     1      27.471  45.016  55.104  1.00  0.00     0.125 C 
ENDBRANCH  14  18
ENDBRANCH  11  12
ENDBRANCH   8  11
ENDBRANCH   4   7
BRANCH   1  24
HETATM   24  C   UNL     1      19.639  51.278  47.996  1.00  0.00     0.256 C 
HETATM   25  N   UNL     1      18.802  50.622  47.110  1.00  0.00    -0.323 N 
HETATM   26  H   UNL     1      18.991  49.648  46.926  1.00  0.00     0.169 HD
HETATM   27  O   UNL     1      19.491  52.417  48.427  1.00  0.00    -0.267 OA
BRANCH  25  28
HETATM   28  C   UNL     1      17.677  51.147  46.438  1.00  0.00     0.035 A 
HETATM   29  C   UNL     1      17.701  51.646  45.137  1.00  0.00     0.030 A 
HETATM   30  C   UNL     1      16.530  52.133  44.540  1.00  0.00     0.010 A 
HETATM   31  C   UNL     1      15.309  52.118  45.226  1.00  0.00    -0.054 A 
HETATM   32  C   UNL     1      15.291  51.620  46.535  1.00  0.00     0.010 A 
HETATM   33  C   UNL     1      16.462  51.145  47.135  1.00  0.00     0.030 A 
BRANCH  31  34
HETATM   34  C   UNL     1      14.026  52.631  44.594  1.00  0.00     0.014 C 
HETATM   35  C   UNL     1      13.628  51.779  43.381  1.00  0.00     0.015 C 
BRANCH  34  36
HETATM   36  C   UNL     1      14.112  54.118  44.198  1.00  0.00     0.004 C 
HETATM   37  C   UNL     1      14.179  55.054  45.399  1.00  0.00     0.006 C 
ENDBRANCH  34  36
ENDBRANCH  31  34
ENDBRANCH  25  28
ENDBRANCH   1  24
TORSDOF 8
ENDMDL
MODEL 7
REMARK VINA RESULT:      -8.5      5.728      8.623
REMARK  8 active torsions:
REMARK  status: ('A' for Active; 'I' for Inactive)
REMARK    1  A    between atoms: C_2  and  C_3 
REMARK    2  A    between atoms: C_3  and  C_4 
REMARK    3  A    between atoms: C_7  and  N_8 
REMARK       I    between atoms: N_8  and  C_9 
REMARK    4  A    between atoms: C_9  and  C_10 
REMARK    5  A    between atoms: C_13  and  N_14 
REMARK       I    between atoms: N_14  and  C_15 
REMARK    6  A    between atoms: C_15  and  C_16 
REMARK    7  A    between atoms: C_16  and  C_17 
REMARK    8  A    between atoms: C_19  and  N_20 
ROOT
HETATM    1  C   UNL     1      25.152  42.521  50.799  1.00  0.00     0.032 A 
HETATM    2  C   UNL     1      23.900  42.877  50.286  1.00  0.00     0.019 A 
HETATM    3  C   UNL     1      23.350  42.175  49.204  1.00  0.00     0.030 A 
HETATM    4  C   UNL     1      24.054  41.132  48.599  1.00  0.00     0.034 A 
HETATM    5  C   UNL     1      25.324  40.803  49.084  1.00  0.00     0.030 A 
HETATM    6  C   UNL     1      25.864  41.484  50.183  1.00  0.00     0.019 A 
ENDROOT
BRANCH   4   7
HETATM    7  N   UNL     1      23.576  40.414  47.481  1.00  0.00    -0.327 N 
HETATM    8  C   UNL     1      23.867  40.678  46.158  1.00  0.00     0.223 C 
HETATM    9  O   UNL     1      24.522  41.642  45.761  1.00  0.00    -0.273 OA
HETATM   10  H   UNL     1      22.876  39.719  47.703  1.00  0.00     0.169 HD
BRANCH   8  11
HETATM   11  C   UNL     1      23.407  39.641  45.138  1.00  0.00     0.128 C 
BRANCH  11  12
HETATM   12  C   UNL     1      24.295  38.449  44.813  1.00  0.00     0.158 A 
HETATM   13  S   UNL     1      24.631  37.299  46.166  1.00  0.00    -0.077 SA
HETATM   14  C   UNL     1      26.355  37.597  46.033  1.00  0.00     0.168 A 
HETATM   15  N   UNL     1      26.699  38.438  45.112  1.00  0.00    -0.189 NA
HETATM   16  C   UNL     1      25.660  38.891  44.339  1.00  0.00     0.260 A 
HETATM   17  O   UNL     1      25.812  39.643  43.385  1.00  0.00    -0.270 OA
BRANCH  14  18
HETATM   18  N   UNL     1      27.240  37.002  46.908  1.00  0.00    -0.360 N 
HETATM   19  C   UNL     1      28.635  37.431  47.075  1.00  0.00     0.125 C 
HETATM   20  C   UNL     1      28.709  38.479  48.186  1.00  0.00     0.020 C 
HETATM   21  C   UNL     1      28.114  37.942  49.491  1.00  0.00     0.003 C 
HETATM   22  C   UNL     1      26.716  37.360  49.272  1.00  0.00     0.020 C 
HETATM   23  C   UNL     1      26.716  36.353  48.121  1.00  0.00     0.125 C 
ENDBRANCH  14  18
ENDBRANCH  11  12
ENDBRANCH   8  11
ENDBRANCH   4   7
BRANCH   1  24
HETATM   24  C   UNL     1      25.788  43.234  51.954  1.00  0.00     0.256 C 
HETATM   25  N   UNL     1      27.153  43.052  52.094  1.00  0.00    -0.323 N 
HETATM   26  H   UNL     1      27.631  42.538  51.369  1.00  0.00     0.169 HD
HETATM   27  O   UNL     1      25.072  43.928  52.667  1.00  0.00    -0.267 OA
BRANCH  25  28
HETATM   28  C   UNL     1      27.984  43.527  53.132  1.00  0.00     0.035 A 
HETATM   29  C   UNL     1      27.819  44.754  53.772  1.00  0.00     0.030 A 
HETATM   30  C   UNL     1      28.682  45.138  54.807  1.00  0.00     0.010 A 
HETATM   31  C   UNL     1      29.718  44.298  55.233  1.00  0.00    -0.054 A 
HETATM   32  C   UNL     1      29.883  43.069  54.585  1.00  0.00     0.010 A 
HETATM   33  C   UNL     1      29.029  42.690  53.543  1.00  0.00     0.030 A 
BRANCH  31  34
HETATM   34  C   UNL     1      30.659  44.691  56.361  1.00  0.00     0.014 C 
HETATM   35  C   UNL     1      31.405  43.467  56.909  1.00  0.00     0.015 C 
BRANCH  34  36
HETATM   36  C   UNL     1      29.938  45.434  57.503  1.00  0.00     0.004 C 
HETATM   37  C   UNL     1      30.884  46.256  58.370  1.00  0.00     0.006 C 
ENDBRANCH  34  36
ENDBRANCH  31  34
ENDBRANCH  25  28
ENDBRANCH   1  24
TORSDOF 8
ENDMDL
MODEL 8
REMARK VINA RESULT:      -8.4     13.733     14.302
REMARK  8 active torsions:
REMARK  status: ('A' for Active; 'I' for Inactive)
REMARK    1  A    between atoms: C_2  and  C_3 
REMARK    2  A    between atoms: C_3  and  C_4 
REMARK    3  A    between atoms: C_7  and  N_8 
REMARK       I    between atoms: N_8  and  C_9 
REMARK    4  A    between atoms: C_9  and  C_10 
REMARK    5  A    between atoms: C_13  and  N_14 
REMARK       I    between atoms: N_14  and  C_15 
REMARK    6  A    between atoms: C_15  and  C_16 
REMARK    7  A    between atoms: C_16  and  C_17 
REMARK    8  A    between atoms: C_19  and  N_20 
ROOT
HETATM    1  C   UNL     1      33.552  51.158  42.726  1.00  0.00     0.032 A 
HETATM    2  C   UNL     1      33.933  50.912  41.401  1.00  0.00     0.019 A 
HETATM    3  C   UNL     1      33.098  50.178  40.547  1.00  0.00     0.030 A 
HETATM    4  C   UNL     1      31.891  49.651  41.009  1.00  0.00     0.034 A 
HETATM    5  C   UNL     1      31.530  49.860  42.343  1.00  0.00     0.030 A 
HETATM    6  C   UNL     1      32.347  50.617  43.192  1.00  0.00     0.019 A 
ENDROOT
BRANCH   4   7
HETATM    7  N   UNL     1      31.026  48.869  40.212  1.00  0.00    -0.327 N 
HETATM    8  C   UNL     1      31.065  47.496  40.075  1.00  0.00     0.223 C 
HETATM    9  O   UNL     1      31.925  46.764  40.566  1.00  0.00    -0.273 OA
HETATM   10  H   UNL     1      30.406  49.406  39.623  1.00  0.00     0.169 HD
BRANCH   8  11
HETATM   11  C   UNL     1      29.901  46.852  39.330  1.00  0.00     0.128 C 
BRANCH  11  12
HETATM   12  C   UNL     1      28.555  47.558  39.265  1.00  0.00     0.158 A 
HETATM   13  S   UNL     1      28.527  49.168  38.444  1.00  0.00    -0.077 SA
HETATM   14  C   UNL     1      27.958  49.942  39.913  1.00  0.00     0.168 A 
HETATM   15  N   UNL     1      27.789  49.151  40.923  1.00  0.00    -0.189 NA
HETATM   16  C   UNL     1      28.005  47.824  40.647  1.00  0.00     0.260 A 
HETATM   17  O   UNL     1      27.833  46.932  41.468  1.00  0.00    -0.270 OA
BRANCH  14  18
HETATM   18  N   UNL     1      27.773  51.308  39.961  1.00  0.00    -0.360 N 
HETATM   19  C   UNL     1      27.631  52.069  41.209  1.00  0.00     0.125 C 
HETATM   20  C   UNL     1      29.011  52.542  41.669  1.00  0.00     0.020 C 
HETATM   21  C   UNL     1      29.707  53.359  40.576  1.00  0.00     0.003 C 
HETATM   22  C   UNL     1      29.714  52.614  39.239  1.00  0.00     0.020 C 
HETATM   23  C   UNL     1      28.308  52.139  38.869  1.00  0.00     0.125 C 
ENDBRANCH  14  18
ENDBRANCH  11  12
ENDBRANCH   8  11
ENDBRANCH   4   7
BRANCH   1  24
HETATM   24  C   UNL     1      34.403  51.936  43.683  1.00  0.00     0.256 C 
HETATM   25  N   UNL     1      35.676  52.248  43.239  1.00  0.00    -0.323 N 
HETATM   26  H   UNL     1      35.905  52.017  42.284  1.00  0.00     0.169 HD
HETATM   27  O   UNL     1      33.914  52.248  44.764  1.00  0.00    -0.267 OA
BRANCH  25  28
HETATM   28  C   UNL     1      36.708  52.887  43.960  1.00  0.00     0.035 A 
HETATM   29  C   UNL     1      37.279  52.384  45.127  1.00  0.00     0.030 A 
HETATM   30  C   UNL     1      38.313  53.078  45.769  1.00  0.00     0.010 A 
HETATM   31  C   UNL     1      38.807  54.281  45.250  1.00  0.00    -0.054 A 
HETATM   32  C   UNL     1      38.227  54.785  44.079  1.00  0.00     0.010 A 
HETATM   33  C   UNL     1      37.186  54.098  43.445  1.00  0.00     0.030 A 
BRANCH  31  34
HETATM   34  C   UNL     1      39.935  55.045  45.924  1.00  0.00     0.014 C 
HETATM   35  C   UNL     1      40.673  55.942  44.920  1.00  0.00     0.015 C 
BRANCH  34  36
HETATM   36  C   UNL     1      40.932  54.117  46.646  1.00  0.00     0.004 C 
HETATM   37  C   UNL     1      40.782  54.143  48.162  1.00  0.00     0.006 C 
ENDBRANCH  34  36
ENDBRANCH  31  34
ENDBRANCH  25  28
ENDBRANCH   1  24
TORSDOF 8
ENDMDL
MODEL 9
REMARK VINA RESULT:      -8.3      5.927      8.650
REMARK  8 active torsions:
REMARK  status: ('A' for Active; 'I' for Inactive)
REMARK    1  A    between atoms: C_2  and  C_3 
REMARK    2  A    between atoms: C_3  and  C_4 
REMARK    3  A    between atoms: C_7  and  N_8 
REMARK       I    between atoms: N_8  and  C_9 
REMARK    4  A    between atoms: C_9  and  C_10 
REMARK    5  A    between atoms: C_13  and  N_14 
REMARK       I    between atoms: N_14  and  C_15 
REMARK    6  A    between atoms: C_15  and  C_16 
REMARK    7  A    between atoms: C_16  and  C_17 
REMARK    8  A    between atoms: C_19  and  N_20 
ROOT
HETATM    1  C   UNL     1      25.871  42.655  49.181  1.00  0.00     0.032 A 
HETATM    2  C   UNL     1      26.158  41.388  48.660  1.00  0.00     0.019 A 
HETATM    3  C   UNL     1      25.282  40.777  47.754  1.00  0.00     0.030 A 
HETATM    4  C   UNL     1      24.092  41.404  47.379  1.00  0.00     0.034 A 
HETATM    5  C   UNL     1      23.783  42.652  47.931  1.00  0.00     0.030 A 
HETATM    6  C   UNL     1      24.671  43.278  48.816  1.00  0.00     0.019 A 
ENDROOT
BRANCH   4   7
HETATM    7  N   UNL     1      23.147  40.825  46.504  1.00  0.00    -0.327 N 
HETATM    8  C   UNL     1      21.908  40.328  46.856  1.00  0.00     0.223 C 
HETATM    9  O   UNL     1      21.487  40.242  48.010  1.00  0.00    -0.273 OA
HETATM   10  H   UNL     1      23.487  40.682  45.563  1.00  0.00     0.169 HD
BRANCH   8  11
HETATM   11  C   UNL     1      20.976  39.946  45.711  1.00  0.00     0.128 C 
BRANCH  11  12
HETATM   12  C   UNL     1      20.456  38.521  45.597  1.00  0.00     0.158 A 
HETATM   13  S   UNL     1      19.208  38.018  46.804  1.00  0.00    -0.077 SA
HETATM   14  C   UNL     1      20.250  36.736  47.395  1.00  0.00     0.168 A 
HETATM   15  N   UNL     1      21.398  36.643  46.805  1.00  0.00    -0.189 NA
HETATM   16  C   UNL     1      21.570  37.512  45.758  1.00  0.00     0.260 A 
HETATM   17  O   UNL     1      22.570  37.521  45.050  1.00  0.00    -0.270 OA
BRANCH  14  18
HETATM   18  N   UNL     1      19.860  35.945  48.455  1.00  0.00    -0.360 N 
HETATM   19  C   UNL     1      18.490  35.908  48.985  1.00  0.00     0.125 C 
HETATM   20  C   UNL     1      17.702  34.812  48.267  1.00  0.00     0.020 C 
HETATM   21  C   UNL     1      18.402  33.455  48.394  1.00  0.00     0.003 C 
HETATM   22  C   UNL     1      19.873  33.543  47.980  1.00  0.00     0.020 C 
HETATM   23  C   UNL     1      20.581  34.686  48.709  1.00  0.00     0.125 C 
ENDBRANCH  14  18
ENDBRANCH  11  12
ENDBRANCH   8  11
ENDBRANCH   4   7
BRANCH   1  24
HETATM   24  C   UNL     1      26.771  43.357  50.152  1.00  0.00     0.256 C 
HETATM   25  N   UNL     1      26.946  42.726  51.372  1.00  0.00    -0.323 N 
HETATM   26  H   UNL     1      26.540  41.809  51.485  1.00  0.00     0.169 HD
HETATM   27  O   UNL     1      27.290  44.410  49.799  1.00  0.00    -0.267 OA
BRANCH  25  28
HETATM   28  C   UNL     1      27.660  43.202  52.493  1.00  0.00     0.035 A 
HETATM   29  C   UNL     1      27.249  44.265  53.293  1.00  0.00     0.030 A 
HETATM   30  C   UNL     1      28.013  44.660  54.400  1.00  0.00     0.010 A 
HETATM   31  C   UNL     1      29.196  43.991  54.737  1.00  0.00    -0.054 A 
HETATM   32  C   UNL     1      29.607  42.925  53.928  1.00  0.00     0.010 A 
HETATM   33  C   UNL     1      28.851  42.539  52.816  1.00  0.00     0.030 A 
BRANCH  31  34
HETATM   34  C   UNL     1      30.034  44.395  55.939  1.00  0.00     0.014 C 
HETATM   35  C   UNL     1      30.112  45.922  56.070  1.00  0.00     0.015 C 
BRANCH  34  36
HETATM   36  C   UNL     1      31.450  43.788  55.907  1.00  0.00     0.004 C 
HETATM   37  C   UNL     1      31.910  43.272  57.265  1.00  0.00     0.006 C 
ENDBRANCH  34  36
ENDBRANCH  31  34
ENDBRANCH  25  28
ENDBRANCH   1  24
TORSDOF 8
ENDMDL
MODEL 10
REMARK VINA RESULT:      -8.3      2.359      4.703
REMARK  8 active torsions:
REMARK  status: ('A' for Active; 'I' for Inactive)
REMARK    1  A    between atoms: C_2  and  C_3 
REMARK    2  A    between atoms: C_3  and  C_4 
REMARK    3  A    between atoms: C_7  and  N_8 
REMARK       I    between atoms: N_8  and  C_9 
REMARK    4  A    between atoms: C_9  and  C_10 
REMARK    5  A    between atoms: C_13  and  N_14 
REMARK       I    between atoms: N_14  and  C_15 
REMARK    6  A    between atoms: C_15  and  C_16 
REMARK    7  A    between atoms: C_16  and  C_17 
REMARK    8  A    between atoms: C_19  and  N_20 
ROOT
HETATM    1  C   UNL     1      21.774  45.865  48.282  1.00  0.00     0.032 A 
HETATM    2  C   UNL     1      21.866  47.235  48.007  1.00  0.00     0.019 A 
HETATM    3  C   UNL     1      20.773  47.926  47.466  1.00  0.00     0.030 A 
HETATM    4  C   UNL     1      19.587  47.256  47.160  1.00  0.00     0.034 A 
HETATM    5  C   UNL     1      19.508  45.880  47.394  1.00  0.00     0.030 A 
HETATM    6  C   UNL     1      20.589  45.191  47.961  1.00  0.00     0.019 A 
ENDROOT
BRANCH   4   7
HETATM    7  N   UNL     1      18.466  47.884  46.574  1.00  0.00    -0.327 N 
HETATM    8  C   UNL     1      18.211  48.002  45.223  1.00  0.00     0.223 C 
HETATM    9  O   UNL     1      18.981  47.648  44.329  1.00  0.00    -0.273 OA
HETATM   10  H   UNL     1      17.874  48.372  47.232  1.00  0.00     0.169 HD
BRANCH   8  11
HETATM   11  C   UNL     1      16.836  48.532  44.831  1.00  0.00     0.128 C 
BRANCH  11  12
HETATM   12  C   UNL     1      16.248  49.732  45.558  1.00  0.00     0.158 A 
HETATM   13  S   UNL     1      17.394  51.068  45.970  1.00  0.00    -0.077 SA
HETATM   14  C   UNL     1      17.050  50.878  47.681  1.00  0.00     0.168 A 
HETATM   15  N   UNL     1      16.194  49.951  47.971  1.00  0.00    -0.189 NA
HETATM   16  C   UNL     1      15.638  49.331  46.881  1.00  0.00     0.260 A 
HETATM   17  O   UNL     1      14.766  48.475  46.968  1.00  0.00    -0.270 OA
BRANCH  14  18
HETATM   18  N   UNL     1      17.711  51.641  48.620  1.00  0.00    -0.360 N 
HETATM   19  C   UNL     1      17.775  51.304  50.048  1.00  0.00     0.125 C 
HETATM   20  C   UNL     1      19.016  50.451  50.308  1.00  0.00     0.020 C 
HETATM   21  C   UNL     1      20.286  51.162  49.830  1.00  0.00     0.003 C 
HETATM   22  C   UNL     1      20.148  51.642  48.384  1.00  0.00     0.020 C 
HETATM   23  C   UNL     1      18.865  52.452  48.195  1.00  0.00     0.125 C 
ENDBRANCH  14  18
ENDBRANCH  11  12
ENDBRANCH   8  11
ENDBRANCH   4   7
BRANCH   1  24
HETATM   24  C   UNL     1      22.909  45.076  48.861  1.00  0.00     0.256 C 
HETATM   25  N   UNL     1      23.698  45.745  49.781  1.00  0.00    -0.323 N 
HETATM   26  H   UNL     1      23.403  46.667  50.063  1.00  0.00     0.169 HD
HETATM   27  O   UNL     1      23.045  43.913  48.497  1.00  0.00    -0.267 OA
BRANCH  25  28
HETATM   28  C   UNL     1      24.873  45.278  50.408  1.00  0.00     0.035 A 
HETATM   29  C   UNL     1      26.135  45.284  49.817  1.00  0.00     0.030 A 
HETATM   30  C   UNL     1      27.252  44.816  50.522  1.00  0.00     0.010 A 
HETATM   31  C   UNL     1      27.134  44.347  51.836  1.00  0.00    -0.054 A 
HETATM   32  C   UNL     1      25.863  44.340  52.424  1.00  0.00     0.010 A 
HETATM   33  C   UNL     1      24.746  44.795  51.716  1.00  0.00     0.030 A 
BRANCH  31  34
HETATM   34  C   UNL     1      28.334  43.846  52.622  1.00  0.00     0.014 C 
HETATM   35  C   UNL     1      28.759  42.448  52.151  1.00  0.00     0.015 C 
BRANCH  34  36
HETATM   36  C   UNL     1      28.089  43.845  54.144  1.00  0.00     0.004 C 
HETATM   37  C   UNL     1      29.206  44.522  54.929  1.00  0.00     0.006 C 
ENDBRANCH  34  36
ENDBRANCH  31  34
ENDBRANCH  25  28
ENDBRANCH   1  24
TORSDOF 8
ENDMDL
