MODEL 1
REMARK VINA RESULT:     -10.0      0.000      0.000
REMARK  6 active torsions:
REMARK  status: ('A' for Active; 'I' for Inactive)
REMARK    1  A    between atoms: O_2  and  C_3 
REMARK    2  A    between atoms: C_6  and  C_7 
REMARK    3  A    between atoms: C_7  and  N_8 
REMARK       I    between atoms: N_8  and  C_9 
REMARK    4  A    between atoms: C_9  and  C_10 
REMARK    5  A    between atoms: C_10  and  S_11 
REMARK    6  A    between atoms: S_11  and  C_12 
ROOT
HETATM    1  C   UNL     1      25.469  46.247  51.576  1.00  0.00     0.198 A 
HETATM    2  N   UNL     1      26.464  45.321  51.852  1.00  0.00    -0.257 N 
HETATM    3  C   UNL     1      26.941  45.757  53.089  1.00  0.00     0.173 A 
HETATM    4  C   UNL     1      28.037  45.026  53.770  1.00  0.00     0.053 A 
HETATM    5  C   UNL     1      28.532  43.934  53.090  1.00  0.00     0.090 A 
HETATM    6  S   UNL     1      29.793  43.185  53.951  1.00  0.00    -0.075 SA
HETATM    7  C   UNL     1      29.669  44.320  55.222  1.00  0.00    -0.008 A 
HETATM    8  C   UNL     1      28.672  45.260  55.016  1.00  0.00    -0.028 A 
HETATM    9  C   UNL     1      28.387  46.353  55.999  1.00  0.00     0.041 C 
HETATM   10  C   UNL     1      29.026  46.066  57.368  1.00  0.00     0.005 C 
HETATM   11  C   UNL     1      30.470  45.563  57.229  1.00  0.00     0.005 C 
HETATM   12  C   UNL     1      30.542  44.248  56.437  1.00  0.00     0.047 C 
HETATM   13  N   UNL     1      28.060  43.524  51.882  1.00  0.00    -0.336 N 
HETATM   14  C   UNL     1      27.014  44.169  51.196  1.00  0.00     0.106 A 
HETATM   15  C   UNL     1      26.615  43.680  50.010  1.00  0.00     0.064 C 
HETATM   16  N   UNL     1      26.310  46.829  53.500  1.00  0.00    -0.128 NA
HETATM   17  N   UNL     1      25.383  47.140  52.543  1.00  0.00    -0.122 NA
HETATM   18  H   UNL     1      28.466  42.707  51.436  1.00  0.00     0.168 HD
ENDROOT
BRANCH   1  19
HETATM   19  S   UNL     1      24.454  46.272  50.171  1.00  0.00    -0.080 SA
BRANCH  19  20
HETATM   20  C   UNL     1      24.483  48.049  49.782  1.00  0.00     0.185 C 
BRANCH  20  21
HETATM   21  C   UNL     1      23.376  48.400  48.805  1.00  0.00     0.227 C 
HETATM   22  N   UNL     1      22.145  47.850  49.095  1.00  0.00    -0.356 N 
HETATM   23  H   UNL     1      21.974  47.566  50.052  1.00  0.00     0.162 HD
HETATM   24  O   UNL     1      23.583  49.067  47.793  1.00  0.00    -0.273 OA
BRANCH  22  25
HETATM   25  C   UNL     1      20.999  48.157  48.269  1.00  0.00     0.161 C 
BRANCH  25  26
HETATM   26  C   UNL     1      20.212  49.330  48.794  1.00  0.00    -0.040 A 
HETATM   27  C   UNL     1      20.364  50.596  48.214  1.00  0.00     0.011 A 
HETATM   28  C   UNL     1      19.595  51.675  48.658  1.00  0.00     0.037 A 
HETATM   29  C   UNL     1      18.654  51.511  49.676  1.00  0.00     0.068 A 
HETATM   30  C   UNL     1      18.498  50.255  50.259  1.00  0.00     0.037 A 
HETATM   31  C   UNL     1      19.264  49.171  49.815  1.00  0.00     0.011 A 
BRANCH  29  32
HETATM   32  O   UNL     1      17.961  52.643  50.003  1.00  0.00    -0.356 OA
HETATM   33  C   UNL     1      16.544  52.578  49.896  1.00  0.00     0.210 C 
ENDBRANCH  29  32
ENDBRANCH  25  26
ENDBRANCH  22  25
ENDBRANCH  20  21
ENDBRANCH  19  20
ENDBRANCH   1  19
TORSDOF 6
ENDMDL
MODEL 2
REMARK VINA RESULT:      -9.9      3.225     10.913
REMARK  6 active torsions:
REMARK  status: ('A' for Active; 'I' for Inactive)
REMARK    1  A    between atoms: O_2  and  C_3 
REMARK    2  A    between atoms: C_6  and  C_7 
REMARK    3  A    between atoms: C_7  and  N_8 
REMARK       I    between atoms: N_8  and  C_9 
REMARK    4  A    between atoms: C_9  and  C_10 
REMARK    5  A    between atoms: C_10  and  S_11 
REMARK    6  A    between atoms: S_11  and  C_12 
ROOT
HETATM    1  C   UNL     1      24.387  47.284  49.634  1.00  0.00     0.198 A 
HETATM    2  N   UNL     1      23.113  47.051  49.138  1.00  0.00    -0.257 N 
HETATM    3  C   UNL     1      22.544  48.326  49.169  1.00  0.00     0.173 A 
HETATM    4  C   UNL     1      21.151  48.537  48.705  1.00  0.00     0.053 A 
HETATM    5  C   UNL     1      20.493  47.406  48.275  1.00  0.00     0.090 A 
HETATM    6  S   UNL     1      18.904  47.760  47.784  1.00  0.00    -0.075 SA
HETATM    7  C   UNL     1      19.106  49.417  48.148  1.00  0.00    -0.008 A 
HETATM    8  C   UNL     1      20.371  49.718  48.626  1.00  0.00    -0.028 A 
HETATM    9  C   UNL     1      20.771  51.109  49.013  1.00  0.00     0.041 C 
HETATM   10  C   UNL     1      19.793  52.156  48.455  1.00  0.00     0.005 C 
HETATM   11  C   UNL     1      18.330  51.733  48.651  1.00  0.00     0.005 C 
HETATM   12  C   UNL     1      18.014  50.418  47.922  1.00  0.00     0.047 C 
HETATM   13  N   UNL     1      21.059  46.169  48.255  1.00  0.00    -0.336 N 
HETATM   14  C   UNL     1      22.378  45.911  48.670  1.00  0.00     0.106 A 
HETATM   15  C   UNL     1      22.846  44.653  48.603  1.00  0.00     0.064 C 
HETATM   16  N   UNL     1      23.380  49.216  49.642  1.00  0.00    -0.128 NA
HETATM   17  N   UNL     1      24.542  48.557  49.939  1.00  0.00    -0.122 NA
HETATM   18  H   UNL     1      20.519  45.376  47.920  1.00  0.00     0.168 HD
ENDROOT
BRANCH   1  19
HETATM   19  S   UNL     1      25.635  46.100  49.847  1.00  0.00    -0.080 SA
BRANCH  19  20
HETATM   20  C   UNL     1      25.175  45.432  51.475  1.00  0.00     0.185 C 
BRANCH  20  21
HETATM   21  C   UNL     1      26.031  44.226  51.819  1.00  0.00     0.227 C 
HETATM   22  N   UNL     1      27.277  44.522  52.330  1.00  0.00    -0.356 N 
HETATM   23  H   UNL     1      27.405  45.434  52.751  1.00  0.00     0.162 HD
HETATM   24  O   UNL     1      25.663  43.076  51.590  1.00  0.00    -0.273 OA
BRANCH  22  25
HETATM   25  C   UNL     1      28.162  43.458  52.748  1.00  0.00     0.161 C 
BRANCH  25  26
HETATM   26  C   UNL     1      28.992  43.840  53.946  1.00  0.00    -0.040 A 
HETATM   27  C   UNL     1      28.672  44.984  54.688  1.00  0.00     0.011 A 
HETATM   28  C   UNL     1      29.401  45.312  55.834  1.00  0.00     0.037 A 
HETATM   29  C   UNL     1      30.453  44.503  56.267  1.00  0.00     0.068 A 
HETATM   30  C   UNL     1      30.779  43.363  55.533  1.00  0.00     0.037 A 
HETATM   31  C   UNL     1      30.048  43.030  54.387  1.00  0.00     0.011 A 
BRANCH  29  32
HETATM   32  O   UNL     1      31.072  44.930  57.409  1.00  0.00    -0.356 OA
HETATM   33  C   UNL     1      30.393  45.921  58.171  1.00  0.00     0.210 C 
ENDBRANCH  29  32
ENDBRANCH  25  26
ENDBRANCH  22  25
ENDBRANCH  20  21
ENDBRANCH  19  20
ENDBRANCH   1  19
TORSDOF 6
ENDMDL
MODEL 3
REMARK VINA RESULT:      -9.6      2.189      3.770
REMARK  6 active torsions:
REMARK  status: ('A' for Active; 'I' for Inactive)
REMARK    1  A    between atoms: O_2  and  C_3 
REMARK    2  A    between atoms: C_6  and  C_7 
REMARK    3  A    between atoms: C_7  and  N_8 
REMARK       I    between atoms: N_8  and  C_9 
REMARK    4  A    between atoms: C_9  and  C_10 
REMARK    5  A    between atoms: C_10  and  S_11 
REMARK    6  A    between atoms: S_11  and  C_12 
ROOT
HETATM    1  C   UNL     1      27.221  43.478  51.318  1.00  0.00     0.198 A 
HETATM    2  N   UNL     1      27.235  44.423  52.333  1.00  0.00    -0.257 N 
HETATM    3  C   UNL     1      28.261  43.958  53.158  1.00  0.00     0.173 A 
HETATM    4  C   UNL     1      28.624  44.696  54.392  1.00  0.00     0.053 A 
HETATM    5  C   UNL     1      27.878  45.826  54.647  1.00  0.00     0.090 A 
HETATM    6  S   UNL     1      28.366  46.581  56.091  1.00  0.00    -0.075 SA
HETATM    7  C   UNL     1      29.568  45.398  56.363  1.00  0.00    -0.008 A 
HETATM    8  C   UNL     1      29.621  44.437  55.367  1.00  0.00    -0.028 A 
HETATM    9  C   UNL     1      30.597  43.301  55.401  1.00  0.00     0.041 C 
HETATM   10  C   UNL     1      31.733  43.559  56.405  1.00  0.00     0.005 C 
HETATM   11  C   UNL     1      31.202  44.109  57.737  1.00  0.00     0.005 C 
HETATM   12  C   UNL     1      30.479  45.453  57.551  1.00  0.00     0.047 C 
HETATM   13  N   UNL     1      26.877  46.264  53.836  1.00  0.00    -0.336 N 
HETATM   14  C   UNL     1      26.498  45.613  52.648  1.00  0.00     0.106 A 
HETATM   15  C   UNL     1      25.501  46.133  51.912  1.00  0.00     0.064 C 
HETATM   16  N   UNL     1      28.791  42.854  52.694  1.00  0.00    -0.128 NA
HETATM   17  N   UNL     1      28.132  42.550  51.534  1.00  0.00    -0.122 NA
HETATM   18  H   UNL     1      26.368  47.109  54.080  1.00  0.00     0.168 HD
ENDROOT
BRANCH   1  19
HETATM   19  S   UNL     1      26.172  43.473  49.938  1.00  0.00    -0.080 SA
BRANCH  19  20
HETATM   20  C   UNL     1      24.622  42.918  50.712  1.00  0.00     0.185 C 
BRANCH  20  21
HETATM   21  C   UNL     1      23.424  43.505  49.988  1.00  0.00     0.227 C 
HETATM   22  N   UNL     1      23.724  44.464  49.044  1.00  0.00    -0.356 N 
HETATM   23  H   UNL     1      24.662  44.466  48.661  1.00  0.00     0.162 HD
HETATM   24  O   UNL     1      22.269  43.195  50.275  1.00  0.00    -0.273 OA
BRANCH  22  25
HETATM   25  C   UNL     1      22.672  45.056  48.249  1.00  0.00     0.161 C 
BRANCH  25  26
HETATM   26  C   UNL     1      22.467  46.514  48.565  1.00  0.00    -0.040 A 
HETATM   27  C   UNL     1      21.200  47.094  48.424  1.00  0.00     0.011 A 
HETATM   28  C   UNL     1      20.990  48.431  48.770  1.00  0.00     0.037 A 
HETATM   29  C   UNL     1      22.033  49.211  49.273  1.00  0.00     0.068 A 
HETATM   30  C   UNL     1      23.298  48.643  49.414  1.00  0.00     0.037 A 
HETATM   31  C   UNL     1      23.510  47.303  49.071  1.00  0.00     0.011 A 
BRANCH  29  32
HETATM   32  O   UNL     1      21.688  50.497  49.585  1.00  0.00    -0.356 OA
HETATM   33  C   UNL     1      21.069  51.260  48.556  1.00  0.00     0.210 C 
ENDBRANCH  29  32
ENDBRANCH  25  26
ENDBRANCH  22  25
ENDBRANCH  20  21
ENDBRANCH  19  20
ENDBRANCH   1  19
TORSDOF 6
ENDMDL
MODEL 4
REMARK VINA RESULT:      -9.4      1.820      2.349
REMARK  6 active torsions:
REMARK  status: ('A' for Active; 'I' for Inactive)
REMARK    1  A    between atoms: O_2  and  C_3 
REMARK    2  A    between atoms: C_6  and  C_7 
REMARK    3  A    between atoms: C_7  and  N_8 
REMARK       I    between atoms: N_8  and  C_9 
REMARK    4  A    between atoms: C_9  and  C_10 
REMARK    5  A    between atoms: C_10  and  S_11 
REMARK    6  A    between atoms: S_11  and  C_12 
ROOT
HETATM    1  C   UNL     1      24.684  46.653  50.505  1.00  0.00     0.198 A 
HETATM    2  N   UNL     1      25.350  45.447  50.659  1.00  0.00    -0.257 N 
HETATM    3  C   UNL     1      26.127  45.678  51.795  1.00  0.00     0.173 A 
HETATM    4  C   UNL     1      27.013  44.615  52.328  1.00  0.00     0.053 A 
HETATM    5  C   UNL     1      27.012  43.434  51.619  1.00  0.00     0.090 A 
HETATM    6  S   UNL     1      28.073  42.296  52.305  1.00  0.00    -0.075 SA
HETATM    7  C   UNL     1      28.525  43.385  53.541  1.00  0.00    -0.008 A 
HETATM    8  C   UNL     1      27.872  44.605  53.455  1.00  0.00    -0.028 A 
HETATM    9  C   UNL     1      28.116  45.713  54.433  1.00  0.00     0.041 C 
HETATM   10  C   UNL     1      28.826  45.207  55.700  1.00  0.00     0.005 C 
HETATM   11  C   UNL     1      29.986  44.259  55.362  1.00  0.00     0.005 C 
HETATM   12  C   UNL     1      29.501  43.008  54.612  1.00  0.00     0.047 C 
HETATM   13  N   UNL     1      26.253  43.224  50.509  1.00  0.00    -0.336 N 
HETATM   14  C   UNL     1      25.385  44.190  49.967  1.00  0.00     0.106 A 
HETATM   15  C   UNL     1      24.671  43.880  48.871  1.00  0.00     0.064 C 
HETATM   16  N   UNL     1      25.953  46.891  52.260  1.00  0.00    -0.128 NA
HETATM   17  N   UNL     1      25.045  47.506  51.443  1.00  0.00    -0.122 NA
HETATM   18  H   UNL     1      26.295  42.326  50.036  1.00  0.00     0.168 HD
ENDROOT
BRANCH   1  19
HETATM   19  S   UNL     1      23.531  47.036  49.268  1.00  0.00    -0.080 SA
BRANCH  19  20
HETATM   20  C   UNL     1      23.969  48.772  48.944  1.00  0.00     0.185 C 
BRANCH  20  21
HETATM   21  C   UNL     1      22.880  49.701  49.451  1.00  0.00     0.227 C 
HETATM   22  N   UNL     1      21.611  49.160  49.464  1.00  0.00    -0.356 N 
HETATM   23  H   UNL     1      21.533  48.151  49.477  1.00  0.00     0.162 HD
HETATM   24  O   UNL     1      23.108  50.869  49.758  1.00  0.00    -0.273 OA
BRANCH  22  25
HETATM   25  C   UNL     1      20.500  49.929  49.978  1.00  0.00     0.161 C 
BRANCH  25  26
HETATM   26  C   UNL     1      19.737  50.632  48.886  1.00  0.00    -0.040 A 
HETATM   27  C   UNL     1      19.344  49.933  47.738  1.00  0.00     0.011 A 
HETATM   28  C   UNL     1      18.586  50.563  46.748  1.00  0.00     0.037 A 
HETATM   29  C   UNL     1      18.195  51.896  46.888  1.00  0.00     0.068 A 
HETATM   30  C   UNL     1      18.583  52.601  48.027  1.00  0.00     0.037 A 
HETATM   31  C   UNL     1      19.340  51.971  49.022  1.00  0.00     0.011 A 
BRANCH  29  32
HETATM   32  O   UNL     1      17.445  52.385  45.855  1.00  0.00    -0.356 OA
HETATM   33  C   UNL     1      17.524  51.683  44.621  1.00  0.00     0.210 C 
ENDBRANCH  29  32
ENDBRANCH  25  26
ENDBRANCH  22  25
ENDBRANCH  20  21
ENDBRANCH  19  20
ENDBRANCH   1  19
TORSDOF 6
ENDMDL
MODEL 5
REMARK VINA RESULT:      -9.4      1.676      2.162
REMARK  6 active torsions:
REMARK  status: ('A' for Active; 'I' for Inactive)
REMARK    1  A    between atoms: O_2  and  C_3 
REMARK    2  A    between atoms: C_6  and  C_7 
REMARK    3  A    between atoms: C_7  and  N_8 
REMARK       I    between atoms: N_8  and  C_9 
REMARK    4  A    between atoms: C_9  and  C_10 
REMARK    5  A    between atoms: C_10  and  S_11 
REMARK    6  A    between atoms: S_11  and  C_12 
ROOT
HETATM    1  C   UNL     1      24.216  45.133  49.653  1.00  0.00     0.198 A 
HETATM    2  N   UNL     1      24.961  44.343  50.515  1.00  0.00    -0.257 N 
HETATM    3  C   UNL     1      25.455  45.280  51.425  1.00  0.00     0.173 A 
HETATM    4  C   UNL     1      26.321  44.850  52.549  1.00  0.00     0.053 A 
HETATM    5  C   UNL     1      26.594  43.500  52.602  1.00  0.00     0.090 A 
HETATM    6  S   UNL     1      27.606  43.122  53.916  1.00  0.00    -0.075 SA
HETATM    7  C   UNL     1      27.670  44.759  54.404  1.00  0.00    -0.008 A 
HETATM    8  C   UNL     1      26.922  45.597  53.593  1.00  0.00    -0.028 A 
HETATM    9  C   UNL     1      26.837  47.073  53.831  1.00  0.00     0.041 C 
HETATM   10  C   UNL     1      27.318  47.449  55.242  1.00  0.00     0.005 C 
HETATM   11  C   UNL     1      28.618  46.721  55.614  1.00  0.00     0.005 C 
HETATM   12  C   UNL     1      28.437  45.195  55.614  1.00  0.00     0.047 C 
HETATM   13  N   UNL     1      26.109  42.599  51.706  1.00  0.00    -0.336 N 
HETATM   14  C   UNL     1      25.274  42.947  50.628  1.00  0.00     0.106 A 
HETATM   15  C   UNL     1      24.841  41.979  49.802  1.00  0.00     0.064 C 
HETATM   16  N   UNL     1      25.059  46.494  51.131  1.00  0.00    -0.128 NA
HETATM   17  N   UNL     1      24.280  46.400  50.010  1.00  0.00    -0.122 NA
HETATM   18  H   UNL     1      26.346  41.616  51.805  1.00  0.00     0.168 HD
ENDROOT
BRANCH   1  19
HETATM   19  S   UNL     1      23.311  44.580  48.281  1.00  0.00    -0.080 SA
BRANCH  19  20
HETATM   20  C   UNL     1      21.725  45.420  48.579  1.00  0.00     0.185 C 
BRANCH  20  21
HETATM   21  C   UNL     1      21.806  46.877  48.161  1.00  0.00     0.227 C 
HETATM   22  N   UNL     1      21.663  47.788  49.186  1.00  0.00    -0.356 N 
HETATM   23  H   UNL     1      21.858  47.467  50.127  1.00  0.00     0.162 HD
HETATM   24  O   UNL     1      21.919  47.214  46.984  1.00  0.00    -0.273 OA
BRANCH  22  25
HETATM   25  C   UNL     1      21.777  49.204  48.921  1.00  0.00     0.161 C 
BRANCH  25  26
HETATM   26  C   UNL     1      20.536  49.962  49.312  1.00  0.00    -0.040 A 
HETATM   27  C   UNL     1      20.382  51.303  48.938  1.00  0.00     0.011 A 
HETATM   28  C   UNL     1      19.208  51.995  49.247  1.00  0.00     0.037 A 
HETATM   29  C   UNL     1      18.163  51.362  49.922  1.00  0.00     0.068 A 
HETATM   30  C   UNL     1      18.308  50.028  50.300  1.00  0.00     0.037 A 
HETATM   31  C   UNL     1      19.481  49.332  49.988  1.00  0.00     0.011 A 
BRANCH  29  32
HETATM   32  O   UNL     1      17.068  52.149  50.148  1.00  0.00    -0.356 OA
HETATM   33  C   UNL     1      15.927  51.904  49.334  1.00  0.00     0.210 C 
ENDBRANCH  29  32
ENDBRANCH  25  26
ENDBRANCH  22  25
ENDBRANCH  20  21
ENDBRANCH  19  20
ENDBRANCH   1  19
TORSDOF 6
ENDMDL
MODEL 6
REMARK VINA RESULT:      -9.4      2.177      2.966
REMARK  6 active torsions:
REMARK  status: ('A' for Active; 'I' for Inactive)
REMARK    1  A    between atoms: O_2  and  C_3 
REMARK    2  A    between atoms: C_6  and  C_7 
REMARK    3  A    between atoms: C_7  and  N_8 
REMARK       I    between atoms: N_8  and  C_9 
REMARK    4  A    between atoms: C_9  and  C_10 
REMARK    5  A    between atoms: C_10  and  S_11 
REMARK    6  A    between atoms: S_11  and  C_12 
ROOT
HETATM    1  C   UNL     1      25.756  46.148  52.155  1.00  0.00     0.198 A 
HETATM    2  N   UNL     1      26.804  45.277  52.413  1.00  0.00    -0.257 N 
HETATM    3  C   UNL     1      27.235  45.694  53.673  1.00  0.00     0.173 A 
HETATM    4  C   UNL     1      28.366  45.008  54.344  1.00  0.00     0.053 A 
HETATM    5  C   UNL     1      28.938  43.976  53.632  1.00  0.00     0.090 A 
HETATM    6  S   UNL     1      30.232  43.275  54.485  1.00  0.00    -0.075 SA
HETATM    7  C   UNL     1      30.019  44.351  55.795  1.00  0.00    -0.008 A 
HETATM    8  C   UNL     1      28.967  45.233  55.608  1.00  0.00    -0.028 A 
HETATM    9  C   UNL     1      28.600  46.268  56.626  1.00  0.00     0.041 C 
HETATM   10  C   UNL     1      29.237  45.969  57.994  1.00  0.00     0.005 C 
HETATM   11  C   UNL     1      30.711  45.563  57.860  1.00  0.00     0.005 C 
HETATM   12  C   UNL     1      30.878  44.287  57.020  1.00  0.00     0.047 C 
HETATM   13  N   UNL     1      28.510  43.584  52.402  1.00  0.00    -0.336 N 
HETATM   14  C   UNL     1      27.435  44.188  51.723  1.00  0.00     0.106 A 
HETATM   15  C   UNL     1      27.084  43.720  50.513  1.00  0.00     0.064 C 
HETATM   16  N   UNL     1      26.532  46.708  54.113  1.00  0.00    -0.128 NA
HETATM   17  N   UNL     1      25.601  46.996  53.153  1.00  0.00    -0.122 NA
HETATM   18  H   UNL     1      28.973  42.811  51.933  1.00  0.00     0.168 HD
ENDROOT
BRANCH   1  19
HETATM   19  S   UNL     1      24.761  46.164  50.736  1.00  0.00    -0.080 SA
BRANCH  19  20
HETATM   20  C   UNL     1      25.317  47.716  49.968  1.00  0.00     0.185 C 
BRANCH  20  21
HETATM   21  C   UNL     1      24.162  48.406  49.263  1.00  0.00     0.227 C 
HETATM   22  N   UNL     1      22.909  47.942  49.604  1.00  0.00    -0.356 N 
HETATM   23  H   UNL     1      22.814  47.462  50.490  1.00  0.00     0.162 HD
HETATM   24  O   UNL     1      24.341  49.265  48.402  1.00  0.00    -0.273 OA
BRANCH  22  25
HETATM   25  C   UNL     1      21.729  48.558  49.041  1.00  0.00     0.161 C 
BRANCH  25  26
HETATM   26  C   UNL     1      20.661  47.550  48.706  1.00  0.00    -0.040 A 
HETATM   27  C   UNL     1      19.328  47.956  48.567  1.00  0.00     0.011 A 
HETATM   28  C   UNL     1      18.341  47.038  48.200  1.00  0.00     0.037 A 
HETATM   29  C   UNL     1      18.665  45.702  47.952  1.00  0.00     0.068 A 
HETATM   30  C   UNL     1      19.990  45.289  48.090  1.00  0.00     0.037 A 
HETATM   31  C   UNL     1      20.980  46.208  48.454  1.00  0.00     0.011 A 
BRANCH  29  32
HETATM   32  O   UNL     1      17.609  44.915  47.587  1.00  0.00    -0.356 OA
HETATM   33  C   UNL     1      17.461  44.649  46.198  1.00  0.00     0.210 C 
ENDBRANCH  29  32
ENDBRANCH  25  26
ENDBRANCH  22  25
ENDBRANCH  20  21
ENDBRANCH  19  20
ENDBRANCH   1  19
TORSDOF 6
ENDMDL
MODEL 7
REMARK VINA RESULT:      -9.2      6.171      9.954
REMARK  6 active torsions:
REMARK  status: ('A' for Active; 'I' for Inactive)
REMARK    1  A    between atoms: O_2  and  C_3 
REMARK    2  A    between atoms: C_6  and  C_7 
REMARK    3  A    between atoms: C_7  and  N_8 
REMARK       I    between atoms: N_8  and  C_9 
REMARK    4  A    between atoms: C_9  and  C_10 
REMARK    5  A    between atoms: C_10  and  S_11 
REMARK    6  A    between atoms: S_11  and  C_12 
ROOT
HETATM    1  C   UNL     1      27.291  41.784  51.936  1.00  0.00     0.198 A 
HETATM    2  N   UNL     1      27.266  43.012  52.580  1.00  0.00    -0.257 N 
HETATM    3  C   UNL     1      28.292  42.876  53.518  1.00  0.00     0.173 A 
HETATM    4  C   UNL     1      28.618  43.991  54.439  1.00  0.00     0.053 A 
HETATM    5  C   UNL     1      27.840  45.120  54.301  1.00  0.00     0.090 A 
HETATM    6  S   UNL     1      28.288  46.325  55.415  1.00  0.00    -0.075 SA
HETATM    7  C   UNL     1      29.515  45.334  56.071  1.00  0.00    -0.008 A 
HETATM    8  C   UNL     1      29.607  44.099  55.450  1.00  0.00    -0.028 A 
HETATM    9  C   UNL     1      30.610  43.067  55.864  1.00  0.00     0.041 C 
HETATM   10  C   UNL     1      31.724  43.675  56.732  1.00  0.00     0.005 C 
HETATM   11  C   UNL     1      31.161  44.620  57.803  1.00  0.00     0.005 C 
HETATM   12  C   UNL     1      30.407  45.805  57.178  1.00  0.00     0.047 C 
HETATM   13  N   UNL     1      26.840  45.236  53.385  1.00  0.00    -0.336 N 
HETATM   14  C   UNL     1      26.495  44.218  52.478  1.00  0.00     0.106 A 
HETATM   15  C   UNL     1      25.496  44.435  51.606  1.00  0.00     0.064 C 
HETATM   16  N   UNL     1      28.856  41.696  53.449  1.00  0.00    -0.128 NA
HETATM   17  N   UNL     1      28.221  41.006  52.453  1.00  0.00    -0.122 NA
HETATM   18  H   UNL     1      26.307  46.099  53.332  1.00  0.00     0.168 HD
ENDROOT
BRANCH   1  19
HETATM   19  S   UNL     1      26.262  41.292  50.630  1.00  0.00    -0.080 SA
BRANCH  19  20
HETATM   20  C   UNL     1      27.150  42.026  49.223  1.00  0.00     0.185 C 
BRANCH  20  21
HETATM   21  C   UNL     1      28.030  40.990  48.547  1.00  0.00     0.227 C 
HETATM   22  N   UNL     1      28.428  39.945  49.355  1.00  0.00    -0.356 N 
HETATM   23  H   UNL     1      27.869  39.751  50.177  1.00  0.00     0.162 HD
HETATM   24  O   UNL     1      28.414  41.114  47.386  1.00  0.00    -0.273 OA
BRANCH  22  25
HETATM   25  C   UNL     1      29.222  38.868  48.810  1.00  0.00     0.161 C 
BRANCH  25  26
HETATM   26  C   UNL     1      28.378  37.829  48.118  1.00  0.00    -0.040 A 
HETATM   27  C   UNL     1      28.753  37.342  46.859  1.00  0.00     0.011 A 
HETATM   28  C   UNL     1      28.008  36.337  46.237  1.00  0.00     0.037 A 
HETATM   29  C   UNL     1      26.885  35.791  46.861  1.00  0.00     0.068 A 
HETATM   30  C   UNL     1      26.503  36.271  48.112  1.00  0.00     0.037 A 
HETATM   31  C   UNL     1      27.250  37.275  48.740  1.00  0.00     0.011 A 
BRANCH  29  32
HETATM   32  O   UNL     1      26.257  34.807  46.150  1.00  0.00    -0.356 OA
HETATM   33  C   UNL     1      25.428  33.916  46.886  1.00  0.00     0.210 C 
ENDBRANCH  29  32
ENDBRANCH  25  26
ENDBRANCH  22  25
ENDBRANCH  20  21
ENDBRANCH  19  20
ENDBRANCH   1  19
TORSDOF 6
ENDMDL
MODEL 8
REMARK VINA RESULT:      -9.1      3.562     10.559
REMARK  6 active torsions:
REMARK  status: ('A' for Active; 'I' for Inactive)
REMARK    1  A    between atoms: O_2  and  C_3 
REMARK    2  A    between atoms: C_6  and  C_7 
REMARK    3  A    between atoms: C_7  and  N_8 
REMARK       I    between atoms: N_8  and  C_9 
REMARK    4  A    between atoms: C_9  and  C_10 
REMARK    5  A    between atoms: C_10  and  S_11 
REMARK    6  A    between atoms: S_11  and  C_12 
ROOT
HETATM    1  C   UNL     1      23.579  45.219  48.930  1.00  0.00     0.198 A 
HETATM    2  N   UNL     1      23.751  46.587  49.077  1.00  0.00    -0.257 N 
HETATM    3  C   UNL     1      22.484  47.082  48.760  1.00  0.00     0.173 A 
HETATM    4  C   UNL     1      22.217  48.540  48.797  1.00  0.00     0.053 A 
HETATM    5  C   UNL     1      23.292  49.330  49.143  1.00  0.00     0.090 A 
HETATM    6  S   UNL     1      22.879  50.980  49.136  1.00  0.00    -0.075 SA
HETATM    7  C   UNL     1      21.273  50.628  48.674  1.00  0.00    -0.008 A 
HETATM    8  C   UNL     1      21.031  49.271  48.535  1.00  0.00    -0.028 A 
HETATM    9  C   UNL     1      19.692  48.733  48.133  1.00  0.00     0.041 C 
HETATM   10  C   UNL     1      18.586  49.790  48.289  1.00  0.00     0.005 C 
HETATM   11  C   UNL     1      19.022  51.157  47.742  1.00  0.00     0.005 C 
HETATM   12  C   UNL     1      20.249  51.705  48.487  1.00  0.00     0.047 C 
HETATM   13  N   UNL     1      24.523  48.834  49.445  1.00  0.00    -0.336 N 
HETATM   14  C   UNL     1      24.830  47.461  49.439  1.00  0.00     0.106 A 
HETATM   15  C   UNL     1      26.076  47.072  49.762  1.00  0.00     0.064 C 
HETATM   16  N   UNL     1      21.654  46.118  48.447  1.00  0.00    -0.128 NA
HETATM   17  N   UNL     1      22.347  44.943  48.552  1.00  0.00    -0.122 NA
HETATM   18  H   UNL     1      25.272  49.472  49.697  1.00  0.00     0.168 HD
ENDROOT
BRANCH   1  19
HETATM   19  S   UNL     1      24.785  44.001  49.194  1.00  0.00    -0.080 SA
BRANCH  19  20
HETATM   20  C   UNL     1      24.718  43.866  51.007  1.00  0.00     0.185 C 
BRANCH  20  21
HETATM   21  C   UNL     1      25.839  42.979  51.517  1.00  0.00     0.227 C 
HETATM   22  N   UNL     1      26.625  43.539  52.503  1.00  0.00    -0.356 N 
HETATM   23  H   UNL     1      26.228  44.300  53.040  1.00  0.00     0.162 HD
HETATM   24  O   UNL     1      26.068  41.872  51.035  1.00  0.00    -0.273 OA
BRANCH  22  25
HETATM   25  C   UNL     1      27.689  42.770  53.108  1.00  0.00     0.161 C 
BRANCH  25  26
HETATM   26  C   UNL     1      28.514  43.589  54.065  1.00  0.00    -0.040 A 
HETATM   27  C   UNL     1      28.034  44.818  54.535  1.00  0.00     0.011 A 
HETATM   28  C   UNL     1      28.768  45.556  55.468  1.00  0.00     0.037 A 
HETATM   29  C   UNL     1      29.985  45.079  55.958  1.00  0.00     0.068 A 
HETATM   30  C   UNL     1      30.471  43.857  55.494  1.00  0.00     0.037 A 
HETATM   31  C   UNL     1      29.737  43.115  54.562  1.00  0.00     0.011 A 
BRANCH  29  32
HETATM   32  O   UNL     1      30.592  45.891  56.875  1.00  0.00    -0.356 OA
HETATM   33  C   UNL     1      30.290  45.646  58.243  1.00  0.00     0.210 C 
ENDBRANCH  29  32
ENDBRANCH  25  26
ENDBRANCH  22  25
ENDBRANCH  20  21
ENDBRANCH  19  20
ENDBRANCH   1  19
TORSDOF 6
ENDMDL
MODEL 9
REMARK VINA RESULT:      -9.1      1.941      2.346
REMARK  6 active torsions:
REMARK  status: ('A' for Active; 'I' for Inactive)
REMARK    1  A    between atoms: O_2  and  C_3 
REMARK    2  A    between atoms: C_6  and  C_7 
REMARK    3  A    between atoms: C_7  and  N_8 
REMARK       I    between atoms: N_8  and  C_9 
REMARK    4  A    between atoms: C_9  and  C_10 
REMARK    5  A    between atoms: C_10  and  S_11 
REMARK    6  A    between atoms: S_11  and  C_12 
ROOT
HETATM    1  C   UNL     1      25.048  43.366  51.270  1.00  0.00     0.198 A 
HETATM    2  N   UNL     1      26.327  42.965  51.624  1.00  0.00    -0.257 N 
HETATM    3  C   UNL     1      26.627  43.824  52.682  1.00  0.00     0.173 A 
HETATM    4  C   UNL     1      27.935  43.731  53.376  1.00  0.00     0.053 A 
HETATM    5  C   UNL     1      28.795  42.770  52.891  1.00  0.00     0.090 A 
HETATM    6  S   UNL     1      30.265  42.764  53.747  1.00  0.00    -0.075 SA
HETATM    7  C   UNL     1      29.743  44.040  54.755  1.00  0.00    -0.008 A 
HETATM    8  C   UNL     1      28.458  44.470  54.467  1.00  0.00    -0.028 A 
HETATM    9  C   UNL     1      27.798  45.581  55.223  1.00  0.00     0.041 C 
HETATM   10  C   UNL     1      28.527  45.881  56.544  1.00  0.00     0.005 C 
HETATM   11  C   UNL     1      30.050  45.927  56.356  1.00  0.00     0.005 C 
HETATM   12  C   UNL     1      30.603  44.584  55.855  1.00  0.00     0.047 C 
HETATM   13  N   UNL     1      28.490  41.942  51.856  1.00  0.00    -0.336 N 
HETATM   14  C   UNL     1      27.263  41.976  51.169  1.00  0.00     0.106 A 
HETATM   15  C   UNL     1      27.056  41.108  50.164  1.00  0.00     0.064 C 
HETATM   16  N   UNL     1      25.643  44.654  52.924  1.00  0.00    -0.128 NA
HETATM   17  N   UNL     1      24.648  44.366  52.031  1.00  0.00    -0.122 NA
HETATM   18  H   UNL     1      29.169  41.251  51.551  1.00  0.00     0.168 HD
ENDROOT
BRANCH   1  19
HETATM   19  S   UNL     1      24.071  42.683  50.012  1.00  0.00    -0.080 SA
BRANCH  19  20
HETATM   20  C   UNL     1      22.685  43.862  50.002  1.00  0.00     0.185 C 
BRANCH  20  21
HETATM   21  C   UNL     1      22.912  44.944  48.962  1.00  0.00     0.227 C 
HETATM   22  N   UNL     1      22.394  46.181  49.283  1.00  0.00    -0.356 N 
HETATM   23  H   UNL     1      22.224  46.376  50.262  1.00  0.00     0.162 HD
HETATM   24  O   UNL     1      23.455  44.712  47.884  1.00  0.00    -0.273 OA
BRANCH  22  25
HETATM   25  C   UNL     1      22.595  47.305  48.397  1.00  0.00     0.161 C 
BRANCH  25  26
HETATM   26  C   UNL     1      21.796  48.512  48.813  1.00  0.00    -0.040 A 
HETATM   27  C   UNL     1      20.396  48.467  48.807  1.00  0.00     0.011 A 
HETATM   28  C   UNL     1      19.649  49.563  49.246  1.00  0.00     0.037 A 
HETATM   29  C   UNL     1      20.281  50.718  49.711  1.00  0.00     0.068 A 
HETATM   30  C   UNL     1      21.674  50.772  49.720  1.00  0.00     0.037 A 
HETATM   31  C   UNL     1      22.425  49.674  49.283  1.00  0.00     0.011 A 
BRANCH  29  32
HETATM   32  O   UNL     1      19.434  51.707  50.125  1.00  0.00    -0.356 OA
HETATM   33  C   UNL     1      18.057  51.542  49.810  1.00  0.00     0.210 C 
ENDBRANCH  29  32
ENDBRANCH  25  26
ENDBRANCH  22  25
ENDBRANCH  20  21
ENDBRANCH  19  20
ENDBRANCH   1  19
TORSDOF 6
ENDMDL
MODEL 10
REMARK VINA RESULT:      -9.0      6.317      9.318
REMARK  6 active torsions:
REMARK  status: ('A' for Active; 'I' for Inactive)
REMARK    1  A    between atoms: O_2  and  C_3 
REMARK    2  A    between atoms: C_6  and  C_7 
REMARK    3  A    between atoms: C_7  and  N_8 
REMARK       I    between atoms: N_8  and  C_9 
REMARK    4  A    between atoms: C_9  and  C_10 
REMARK    5  A    between atoms: C_10  and  S_11 
REMARK    6  A    between atoms: S_11  and  C_12 
ROOT
HETATM    1  C   UNL     1      27.798  42.378  51.575  1.00  0.00     0.198 A 
HETATM    2  N   UNL     1      27.668  43.495  52.388  1.00  0.00    -0.257 N 
HETATM    3  C   UNL     1      28.650  43.274  53.355  1.00  0.00     0.173 A 
HETATM    4  C   UNL     1      28.863  44.257  54.445  1.00  0.00     0.053 A 
HETATM    5  C   UNL     1      28.027  45.353  54.425  1.00  0.00     0.090 A 
HETATM    6  S   UNL     1      28.347  46.401  55.726  1.00  0.00    -0.075 SA
HETATM    7  C   UNL     1      29.594  45.388  56.304  1.00  0.00    -0.008 A 
HETATM    8  C   UNL     1      29.790  44.264  55.518  1.00  0.00    -0.028 A 
HETATM    9  C   UNL     1      30.829  43.234  55.838  1.00  0.00     0.041 C 
HETATM   10  C   UNL     1      31.859  43.763  56.850  1.00  0.00     0.005 C 
HETATM   11  C   UNL     1      31.187  44.511  58.010  1.00  0.00     0.005 C 
HETATM   12  C   UNL     1      30.399  45.735  57.519  1.00  0.00     0.047 C 
HETATM   13  N   UNL     1      27.072  45.552  53.478  1.00  0.00    -0.336 N 
HETATM   14  C   UNL     1      26.834  44.662  52.414  1.00  0.00     0.106 A 
HETATM   15  C   UNL     1      25.870  44.955  51.525  1.00  0.00     0.064 C 
HETATM   16  N   UNL     1      29.285  42.147  53.151  1.00  0.00    -0.128 NA
HETATM   17  N   UNL     1      28.744  41.581  52.029  1.00  0.00    -0.122 NA
HETATM   18  H   UNL     1      26.492  46.385  53.518  1.00  0.00     0.168 HD
ENDROOT
BRANCH   1  19
HETATM   19  S   UNL     1      26.868  42.033  50.153  1.00  0.00    -0.080 SA
BRANCH  19  20
HETATM   20  C   UNL     1      26.211  40.392  50.587  1.00  0.00     0.185 C 
BRANCH  20  21
HETATM   21  C   UNL     1      26.715  39.341  49.614  1.00  0.00     0.227 C 
HETATM   22  N   UNL     1      26.006  39.248  48.435  1.00  0.00    -0.356 N 
HETATM   23  H   UNL     1      25.463  40.055  48.152  1.00  0.00     0.162 HD
HETATM   24  O   UNL     1      27.643  38.585  49.893  1.00  0.00    -0.273 OA
BRANCH  22  25
HETATM   25  C   UNL     1      26.425  38.322  47.407  1.00  0.00     0.161 C 
BRANCH  25  26
HETATM   26  C   UNL     1      27.248  38.990  46.337  1.00  0.00    -0.040 A 
HETATM   27  C   UNL     1      27.710  38.251  45.240  1.00  0.00     0.011 A 
HETATM   28  C   UNL     1      28.424  38.875  44.215  1.00  0.00     0.037 A 
HETATM   29  C   UNL     1      28.681  40.247  44.256  1.00  0.00     0.068 A 
HETATM   30  C   UNL     1      28.226  40.990  45.344  1.00  0.00     0.037 A 
HETATM   31  C   UNL     1      27.507  40.368  46.371  1.00  0.00     0.011 A 
BRANCH  29  32
HETATM   32  O   UNL     1      29.375  40.732  43.183  1.00  0.00    -0.356 OA
HETATM   33  C   UNL     1      30.280  39.836  42.550  1.00  0.00     0.210 C 
ENDBRANCH  29  32
ENDBRANCH  25  26
ENDBRANCH  22  25
ENDBRANCH  20  21
ENDBRANCH  19  20
ENDBRANCH   1  19
TORSDOF 6
ENDMDL
