MODEL 1
REMARK VINA RESULT:      -9.1      0.000      0.000
REMARK  7 active torsions:
REMARK  status: ('A' for Active; 'I' for Inactive)
REMARK    1  A    between atoms: O_2  and  C_3 
REMARK    2  A    between atoms: C_6  and  C_7 
REMARK    3  A    between atoms: C_7  and  N_8 
REMARK    4  A    between atoms: C_7  and  C_23 
REMARK       I    between atoms: N_8  and  C_9 
REMARK    5  A    between atoms: C_9  and  C_10 
REMARK    6  A    between atoms: C_10  and  S_11 
REMARK    7  A    between atoms: S_11  and  C_12 
ROOT
HETATM    1  N   UNL     1      26.465  44.953  51.387  1.00  0.00    -0.348 N 
HETATM    2  C   UNL     1      26.171  45.952  50.486  1.00  0.00     0.228 C 
HETATM    3  O   UNL     1      26.840  46.154  49.475  1.00  0.00    -0.273 OA
HETATM    4  H   UNL     1      25.866  44.834  52.191  1.00  0.00     0.163 HD
ENDROOT
BRANCH   1   5
HETATM    5  C   UNL     1      27.535  44.000  51.148  1.00  0.00     0.151 C 
BRANCH   5   6
HETATM    6  C   UNL     1      28.370  43.749  52.400  1.00  0.00    -0.031 A 
HETATM    7  C   UNL     1      29.541  42.978  52.387  1.00  0.00     0.012 A 
HETATM    8  C   UNL     1      30.306  42.823  53.548  1.00  0.00     0.037 A 
HETATM    9  C   UNL     1      29.927  43.443  54.739  1.00  0.00     0.068 A 
HETATM   10  C   UNL     1      28.756  44.195  54.772  1.00  0.00     0.037 A 
HETATM   11  C   UNL     1      27.987  44.349  53.612  1.00  0.00     0.012 A 
BRANCH   9  12
HETATM   12  O   UNL     1      30.773  43.232  55.794  1.00  0.00    -0.356 OA
HETATM   13  C   UNL     1      31.010  44.348  56.643  1.00  0.00     0.210 C 
ENDBRANCH   9  12
ENDBRANCH   5   6
BRANCH   5  14
HETATM   14  C   UNL     1      27.006  42.708  50.533  1.00  0.00    -0.031 A 
HETATM   15  C   UNL     1      26.857  42.616  49.138  1.00  0.00     0.009 A 
HETATM   16  C   UNL     1      26.390  41.441  48.544  1.00  0.00     0.001 A 
HETATM   17  C   UNL     1      26.071  40.340  49.333  1.00  0.00     0.000 A 
HETATM   18  C   UNL     1      26.215  40.412  50.717  1.00  0.00     0.001 A 
HETATM   19  C   UNL     1      26.678  41.586  51.314  1.00  0.00     0.009 A 
ENDBRANCH   5  14
ENDBRANCH   1   5
BRANCH   2  20
HETATM   20  C   UNL     1      24.909  46.747  50.768  1.00  0.00     0.185 C 
BRANCH  20  21
HETATM   21  S   UNL     1      23.752  46.710  49.363  1.00  0.00    -0.081 SA
BRANCH  21  22
HETATM   22  C   UNL     1      23.375  48.395  49.252  1.00  0.00     0.192 A 
HETATM   23  N   UNL     1      22.113  48.899  49.067  1.00  0.00    -0.311 N 
HETATM   24  C   UNL     1      22.270  50.269  49.056  1.00  0.00     0.130 A 
HETATM   25  C   UNL     1      20.890  48.146  48.879  1.00  0.00     0.133 C 
HETATM   26  C   UNL     1      21.187  51.283  48.905  1.00  0.00     0.081 C 
HETATM   27  N   UNL     1      23.547  50.553  49.215  1.00  0.00    -0.134 NA
HETATM   28  C   UNL     1      20.114  50.879  47.903  1.00  0.00     0.008 C 
HETATM   29  C   UNL     1      19.078  49.911  48.475  1.00  0.00     0.002 C 
HETATM   30  C   UNL     1      19.624  48.822  49.397  1.00  0.00     0.020 C 
HETATM   31  N   UNL     1      24.239  49.377  49.334  1.00  0.00    -0.123 NA
ENDBRANCH  21  22
ENDBRANCH  20  21
ENDBRANCH   2  20
TORSDOF 7
ENDMDL
MODEL 2
REMARK VINA RESULT:      -9.0      2.189      4.521
REMARK  7 active torsions:
REMARK  status: ('A' for Active; 'I' for Inactive)
REMARK    1  A    between atoms: O_2  and  C_3 
REMARK    2  A    between atoms: C_6  and  C_7 
REMARK    3  A    between atoms: C_7  and  N_8 
REMARK    4  A    between atoms: C_7  and  C_23 
REMARK       I    between atoms: N_8  and  C_9 
REMARK    5  A    between atoms: C_9  and  C_10 
REMARK    6  A    between atoms: C_10  and  S_11 
REMARK    7  A    between atoms: S_11  and  C_12 
ROOT
HETATM    1  N   UNL     1      26.936  44.837  52.748  1.00  0.00    -0.348 N 
HETATM    2  C   UNL     1      25.591  45.125  52.698  1.00  0.00     0.228 C 
HETATM    3  O   UNL     1      24.740  44.424  53.242  1.00  0.00    -0.273 OA
HETATM    4  H   UNL     1      27.583  45.462  52.289  1.00  0.00     0.163 HD
ENDROOT
BRANCH   1   5
HETATM    5  C   UNL     1      27.452  43.732  53.538  1.00  0.00     0.151 C 
BRANCH   5   6
HETATM    6  C   UNL     1      27.861  42.547  52.670  1.00  0.00    -0.031 A 
HETATM    7  C   UNL     1      28.421  41.376  53.201  1.00  0.00     0.012 A 
HETATM    8  C   UNL     1      28.727  40.292  52.371  1.00  0.00     0.037 A 
HETATM    9  C   UNL     1      28.468  40.347  51.001  1.00  0.00     0.068 A 
HETATM   10  C   UNL     1      27.930  41.510  50.456  1.00  0.00     0.037 A 
HETATM   11  C   UNL     1      27.627  42.598  51.285  1.00  0.00     0.012 A 
BRANCH   9  12
HETATM   12  O   UNL     1      28.791  39.213  50.307  1.00  0.00    -0.356 OA
HETATM   13  C   UNL     1      28.876  39.344  48.893  1.00  0.00     0.210 C 
ENDBRANCH   9  12
ENDBRANCH   5   6
BRANCH   5  14
HETATM   14  C   UNL     1      28.573  44.185  54.468  1.00  0.00    -0.031 A 
HETATM   15  C   UNL     1      28.444  45.397  55.169  1.00  0.00     0.009 A 
HETATM   16  C   UNL     1      29.446  45.831  56.040  1.00  0.00     0.001 A 
HETATM   17  C   UNL     1      30.589  45.059  56.228  1.00  0.00     0.000 A 
HETATM   18  C   UNL     1      30.733  43.853  55.544  1.00  0.00     0.001 A 
HETATM   19  C   UNL     1      29.734  43.419  54.671  1.00  0.00     0.009 A 
ENDBRANCH   5  14
ENDBRANCH   1   5
BRANCH   2  20
HETATM   20  C   UNL     1      25.217  46.418  51.997  1.00  0.00     0.185 C 
BRANCH  20  21
HETATM   21  S   UNL     1      24.615  46.126  50.303  1.00  0.00    -0.081 SA
BRANCH  21  22
HETATM   22  C   UNL     1      24.702  47.737  49.681  1.00  0.00     0.192 A 
HETATM   23  N   UNL     1      23.630  48.444  49.200  1.00  0.00    -0.311 N 
HETATM   24  C   UNL     1      24.142  49.670  48.830  1.00  0.00     0.130 A 
HETATM   25  C   UNL     1      22.264  47.979  49.069  1.00  0.00     0.133 C 
HETATM   26  C   UNL     1      23.374  50.815  48.264  1.00  0.00     0.081 C 
HETATM   27  N   UNL     1      25.438  49.680  49.070  1.00  0.00    -0.134 NA
HETATM   28  C   UNL     1      22.291  50.392  47.282  1.00  0.00     0.008 C 
HETATM   29  C   UNL     1      21.006  49.914  47.958  1.00  0.00     0.002 C 
HETATM   30  C   UNL     1      21.194  49.058  49.210  1.00  0.00     0.020 C 
HETATM   31  N   UNL     1      25.788  48.466  49.599  1.00  0.00    -0.123 NA
ENDBRANCH  21  22
ENDBRANCH  20  21
ENDBRANCH   2  20
TORSDOF 7
ENDMDL
MODEL 3
REMARK VINA RESULT:      -8.8      1.793      4.472
REMARK  7 active torsions:
REMARK  status: ('A' for Active; 'I' for Inactive)
REMARK    1  A    between atoms: O_2  and  C_3 
REMARK    2  A    between atoms: C_6  and  C_7 
REMARK    3  A    between atoms: C_7  and  N_8 
REMARK    4  A    between atoms: C_7  and  C_23 
REMARK       I    between atoms: N_8  and  C_9 
REMARK    5  A    between atoms: C_9  and  C_10 
REMARK    6  A    between atoms: C_10  and  S_11 
REMARK    7  A    between atoms: S_11  and  C_12 
ROOT
HETATM    1  N   UNL     1      26.225  44.516  51.258  1.00  0.00    -0.348 N 
HETATM    2  C   UNL     1      24.935  44.997  51.284  1.00  0.00     0.228 C 
HETATM    3  O   UNL     1      23.989  44.344  51.720  1.00  0.00    -0.273 OA
HETATM    4  H   UNL     1      26.957  45.110  50.897  1.00  0.00     0.163 HD
ENDROOT
BRANCH   1   5
HETATM    5  C   UNL     1      26.572  43.231  51.840  1.00  0.00     0.151 C 
BRANCH   5   6
HETATM    6  C   UNL     1      26.676  42.133  50.787  1.00  0.00    -0.031 A 
HETATM    7  C   UNL     1      26.437  40.781  51.075  1.00  0.00     0.012 A 
HETATM    8  C   UNL     1      26.488  39.816  50.064  1.00  0.00     0.037 A 
HETATM    9  C   UNL     1      26.764  40.179  48.745  1.00  0.00     0.068 A 
HETATM   10  C   UNL     1      27.023  41.514  48.447  1.00  0.00     0.037 A 
HETATM   11  C   UNL     1      26.976  42.481  49.458  1.00  0.00     0.012 A 
BRANCH   9  12
HETATM   12  O   UNL     1      26.760  39.145  47.849  1.00  0.00    -0.356 OA
HETATM   13  C   UNL     1      27.834  38.218  47.953  1.00  0.00     0.210 C 
ENDBRANCH   9  12
ENDBRANCH   5   6
BRANCH   5  14
HETATM   14  C   UNL     1      27.825  43.329  52.704  1.00  0.00    -0.031 A 
HETATM   15  C   UNL     1      27.785  44.064  53.901  1.00  0.00     0.009 A 
HETATM   16  C   UNL     1      28.911  44.159  54.721  1.00  0.00     0.001 A 
HETATM   17  C   UNL     1      30.093  43.518  54.360  1.00  0.00     0.000 A 
HETATM   18  C   UNL     1      30.151  42.782  53.179  1.00  0.00     0.001 A 
HETATM   19  C   UNL     1      29.027  42.688  52.355  1.00  0.00     0.009 A 
ENDBRANCH   5  14
ENDBRANCH   1   5
BRANCH   2  20
HETATM   20  C   UNL     1      24.755  46.431  50.818  1.00  0.00     0.185 C 
BRANCH  20  21
HETATM   21  S   UNL     1      23.785  46.530  49.280  1.00  0.00    -0.081 SA
BRANCH  21  22
HETATM   22  C   UNL     1      23.466  48.230  49.246  1.00  0.00     0.192 A 
HETATM   23  N   UNL     1      22.222  48.786  49.090  1.00  0.00    -0.311 N 
HETATM   24  C   UNL     1      22.426  50.148  49.139  1.00  0.00     0.130 A 
HETATM   25  C   UNL     1      20.973  48.084  48.875  1.00  0.00     0.133 C 
HETATM   26  C   UNL     1      21.379  51.204  49.039  1.00  0.00     0.081 C 
HETATM   27  N   UNL     1      23.714  50.380  49.305  1.00  0.00    -0.134 NA
HETATM   28  C   UNL     1      20.289  50.883  48.026  1.00  0.00     0.008 C 
HETATM   29  C   UNL     1      19.222  49.927  48.559  1.00  0.00     0.002 C 
HETATM   30  C   UNL     1      19.734  48.780  49.429  1.00  0.00     0.020 C 
HETATM   31  N   UNL     1      24.364  49.177  49.367  1.00  0.00    -0.123 NA
ENDBRANCH  21  22
ENDBRANCH  20  21
ENDBRANCH   2  20
TORSDOF 7
ENDMDL
MODEL 4
REMARK VINA RESULT:      -8.7      0.773      1.777
REMARK  7 active torsions:
REMARK  status: ('A' for Active; 'I' for Inactive)
REMARK    1  A    between atoms: O_2  and  C_3 
REMARK    2  A    between atoms: C_6  and  C_7 
REMARK    3  A    between atoms: C_7  and  N_8 
REMARK    4  A    between atoms: C_7  and  C_23 
REMARK       I    between atoms: N_8  and  C_9 
REMARK    5  A    between atoms: C_9  and  C_10 
REMARK    6  A    between atoms: C_10  and  S_11 
REMARK    7  A    between atoms: S_11  and  C_12 
ROOT
HETATM    1  N   UNL     1      26.366  44.864  51.280  1.00  0.00    -0.348 N 
HETATM    2  C   UNL     1      26.063  45.867  50.387  1.00  0.00     0.228 C 
HETATM    3  O   UNL     1      26.761  46.118  49.407  1.00  0.00    -0.273 OA
HETATM    4  H   UNL     1      25.743  44.703  52.059  1.00  0.00     0.163 HD
ENDROOT
BRANCH   1   5
HETATM    5  C   UNL     1      27.486  43.964  51.066  1.00  0.00     0.151 C 
BRANCH   5   6
HETATM    6  C   UNL     1      28.342  43.805  52.318  1.00  0.00    -0.031 A 
HETATM    7  C   UNL     1      28.011  44.402  53.543  1.00  0.00     0.012 A 
HETATM    8  C   UNL     1      28.796  44.181  54.680  1.00  0.00     0.037 A 
HETATM    9  C   UNL     1      29.917  43.352  54.623  1.00  0.00     0.068 A 
HETATM   10  C   UNL     1      30.270  42.769  53.408  1.00  0.00     0.037 A 
HETATM   11  C   UNL     1      29.487  42.992  52.269  1.00  0.00     0.012 A 
BRANCH   9  12
HETATM   12  O   UNL     1      30.584  43.200  55.807  1.00  0.00    -0.356 OA
HETATM   13  C   UNL     1      30.857  44.393  56.534  1.00  0.00     0.210 C 
ENDBRANCH   9  12
ENDBRANCH   5   6
BRANCH   5  14
HETATM   14  C   UNL     1      27.025  42.623  50.503  1.00  0.00    -0.031 A 
HETATM   15  C   UNL     1      27.026  42.419  49.112  1.00  0.00     0.009 A 
HETATM   16  C   UNL     1      26.625  41.198  48.567  1.00  0.00     0.001 A 
HETATM   17  C   UNL     1      26.223  40.160  49.403  1.00  0.00     0.000 A 
HETATM   18  C   UNL     1      26.218  40.342  50.784  1.00  0.00     0.001 A 
HETATM   19  C   UNL     1      26.615  41.564  51.332  1.00  0.00     0.009 A 
ENDBRANCH   5  14
ENDBRANCH   1   5
BRANCH   2  20
HETATM   20  C   UNL     1      24.757  46.601  50.635  1.00  0.00     0.185 C 
BRANCH  20  21
HETATM   21  S   UNL     1      24.577  48.054  49.553  1.00  0.00    -0.081 SA
BRANCH  21  22
HETATM   22  C   UNL     1      22.913  47.884  49.110  1.00  0.00     0.192 A 
HETATM   23  N   UNL     1      22.019  48.920  49.032  1.00  0.00    -0.311 N 
HETATM   24  C   UNL     1      20.832  48.343  48.633  1.00  0.00     0.130 A 
HETATM   25  C   UNL     1      22.265  50.312  49.347  1.00  0.00     0.133 C 
HETATM   26  C   UNL     1      19.545  49.051  48.380  1.00  0.00     0.081 C 
HETATM   27  N   UNL     1      21.014  47.045  48.494  1.00  0.00    -0.134 NA
HETATM   28  C   UNL     1      19.265  50.173  49.370  1.00  0.00     0.008 C 
HETATM   29  C   UNL     1      20.001  51.473  49.046  1.00  0.00     0.002 C 
HETATM   30  C   UNL     1      21.437  51.315  48.549  1.00  0.00     0.020 C 
HETATM   31  N   UNL     1      22.319  46.758  48.798  1.00  0.00    -0.123 NA
ENDBRANCH  21  22
ENDBRANCH  20  21
ENDBRANCH   2  20
TORSDOF 7
ENDMDL
MODEL 5
REMARK VINA RESULT:      -8.6      2.936      5.064
REMARK  7 active torsions:
REMARK  status: ('A' for Active; 'I' for Inactive)
REMARK    1  A    between atoms: O_2  and  C_3 
REMARK    2  A    between atoms: C_6  and  C_7 
REMARK    3  A    between atoms: C_7  and  N_8 
REMARK    4  A    between atoms: C_7  and  C_23 
REMARK       I    between atoms: N_8  and  C_9 
REMARK    5  A    between atoms: C_9  and  C_10 
REMARK    6  A    between atoms: C_10  and  S_11 
REMARK    7  A    between atoms: S_11  and  C_12 
ROOT
HETATM    1  N   UNL     1      24.771  45.342  49.581  1.00  0.00    -0.348 N 
HETATM    2  C   UNL     1      23.756  44.431  49.761  1.00  0.00     0.228 C 
HETATM    3  O   UNL     1      22.990  44.469  50.722  1.00  0.00    -0.273 OA
HETATM    4  H   UNL     1      25.357  45.260  48.762  1.00  0.00     0.163 HD
ENDROOT
BRANCH   1   5
HETATM    5  C   UNL     1      24.943  46.479  50.468  1.00  0.00     0.151 C 
BRANCH   5   6
HETATM    6  C   UNL     1      25.753  46.121  51.710  1.00  0.00    -0.031 A 
HETATM    7  C   UNL     1      25.715  46.884  52.886  1.00  0.00     0.012 A 
HETATM    8  C   UNL     1      26.430  46.484  54.019  1.00  0.00     0.037 A 
HETATM    9  C   UNL     1      27.186  45.311  54.009  1.00  0.00     0.068 A 
HETATM   10  C   UNL     1      27.249  44.553  52.842  1.00  0.00     0.037 A 
HETATM   11  C   UNL     1      26.537  44.954  51.705  1.00  0.00     0.012 A 
BRANCH   9  12
HETATM   12  O   UNL     1      27.817  45.021  55.187  1.00  0.00    -0.356 OA
HETATM   13  C   UNL     1      28.851  45.913  55.584  1.00  0.00     0.210 C 
ENDBRANCH   9  12
ENDBRANCH   5   6
BRANCH   5  14
HETATM   14  C   UNL     1      25.515  47.684  49.728  1.00  0.00    -0.031 A 
HETATM   15  C   UNL     1      24.641  48.632  49.168  1.00  0.00     0.009 A 
HETATM   16  C   UNL     1      25.135  49.754  48.499  1.00  0.00     0.001 A 
HETATM   17  C   UNL     1      26.508  49.949  48.383  1.00  0.00     0.000 A 
HETATM   18  C   UNL     1      27.390  49.021  48.934  1.00  0.00     0.001 A 
HETATM   19  C   UNL     1      26.899  47.897  49.601  1.00  0.00     0.009 A 
ENDBRANCH   5  14
ENDBRANCH   1   5
BRANCH   2  20
HETATM   20  C   UNL     1      23.577  43.410  48.651  1.00  0.00     0.185 C 
BRANCH  20  21
HETATM   21  S   UNL     1      23.104  44.193  47.076  1.00  0.00    -0.081 SA
BRANCH  21  22
HETATM   22  C   UNL     1      21.454  44.576  47.425  1.00  0.00     0.192 A 
HETATM   23  N   UNL     1      21.006  45.815  47.806  1.00  0.00    -0.311 N 
HETATM   24  C   UNL     1      19.643  45.675  47.961  1.00  0.00     0.130 A 
HETATM   25  C   UNL     1      21.807  47.000  48.039  1.00  0.00     0.133 C 
HETATM   26  C   UNL     1      18.682  46.746  48.348  1.00  0.00     0.081 C 
HETATM   27  N   UNL     1      19.310  44.427  47.695  1.00  0.00    -0.134 NA
HETATM   28  C   UNL     1      19.225  47.694  49.408  1.00  0.00     0.008 C 
HETATM   29  C   UNL     1      20.147  48.776  48.845  1.00  0.00     0.002 C 
HETATM   30  C   UNL     1      21.108  48.324  47.747  1.00  0.00     0.020 C 
HETATM   31  N   UNL     1      20.447  43.739  47.364  1.00  0.00    -0.123 NA
ENDBRANCH  21  22
ENDBRANCH  20  21
ENDBRANCH   2  20
TORSDOF 7
ENDMDL
MODEL 6
REMARK VINA RESULT:      -8.5      3.221     10.251
REMARK  7 active torsions:
REMARK  status: ('A' for Active; 'I' for Inactive)
REMARK    1  A    between atoms: O_2  and  C_3 
REMARK    2  A    between atoms: C_6  and  C_7 
REMARK    3  A    between atoms: C_7  and  N_8 
REMARK    4  A    between atoms: C_7  and  C_23 
REMARK       I    between atoms: N_8  and  C_9 
REMARK    5  A    between atoms: C_9  and  C_10 
REMARK    6  A    between atoms: C_10  and  S_11 
REMARK    7  A    between atoms: S_11  and  C_12 
ROOT
HETATM    1  N   UNL     1      22.262  48.226  48.878  1.00  0.00    -0.348 N 
HETATM    2  C   UNL     1      23.552  48.658  48.668  1.00  0.00     0.228 C 
HETATM    3  O   UNL     1      23.878  49.332  47.692  1.00  0.00    -0.273 OA
HETATM    4  H   UNL     1      22.060  47.685  49.707  1.00  0.00     0.163 HD
ENDROOT
BRANCH   1   5
HETATM    5  C   UNL     1      21.171  48.625  48.005  1.00  0.00     0.151 C 
BRANCH   5   6
HETATM    6  C   UNL     1      20.300  47.441  47.597  1.00  0.00    -0.031 A 
HETATM    7  C   UNL     1      20.269  46.239  48.319  1.00  0.00     0.012 A 
HETATM    8  C   UNL     1      19.411  45.202  47.940  1.00  0.00     0.037 A 
HETATM    9  C   UNL     1      18.558  45.345  46.846  1.00  0.00     0.068 A 
HETATM   10  C   UNL     1      18.591  46.526  46.107  1.00  0.00     0.037 A 
HETATM   11  C   UNL     1      19.453  47.564  46.483  1.00  0.00     0.012 A 
BRANCH   9  12
HETATM   12  O   UNL     1      17.753  44.267  46.595  1.00  0.00    -0.356 OA
HETATM   13  C   UNL     1      17.024  44.297  45.374  1.00  0.00     0.210 C 
ENDBRANCH   9  12
ENDBRANCH   5   6
BRANCH   5  14
HETATM   14  C   UNL     1      20.358  49.764  48.612  1.00  0.00    -0.031 A 
HETATM   15  C   UNL     1      20.427  51.046  48.040  1.00  0.00     0.009 A 
HETATM   16  C   UNL     1      19.682  52.105  48.563  1.00  0.00     0.001 A 
HETATM   17  C   UNL     1      18.853  51.898  49.662  1.00  0.00     0.000 A 
HETATM   18  C   UNL     1      18.770  50.634  50.241  1.00  0.00     0.001 A 
HETATM   19  C   UNL     1      19.516  49.574  49.722  1.00  0.00     0.009 A 
ENDBRANCH   5  14
ENDBRANCH   1   5
BRANCH   2  20
HETATM   20  C   UNL     1      24.548  48.326  49.764  1.00  0.00     0.185 C 
BRANCH  20  21
HETATM   21  S   UNL     1      24.591  46.542  50.127  1.00  0.00    -0.081 SA
BRANCH  21  22
HETATM   22  C   UNL     1      25.377  46.577  51.668  1.00  0.00     0.192 A 
HETATM   23  N   UNL     1      26.185  45.582  52.152  1.00  0.00    -0.311 N 
HETATM   24  C   UNL     1      26.605  46.026  53.388  1.00  0.00     0.130 A 
HETATM   25  C   UNL     1      26.491  44.317  51.515  1.00  0.00     0.133 C 
HETATM   26  C   UNL     1      27.526  45.314  54.319  1.00  0.00     0.081 C 
HETATM   27  N   UNL     1      26.069  47.208  53.621  1.00  0.00    -0.134 NA
HETATM   28  C   UNL     1      27.298  43.809  54.364  1.00  0.00     0.008 C 
HETATM   29  C   UNL     1      27.950  43.058  53.203  1.00  0.00     0.002 C 
HETATM   30  C   UNL     1      27.867  43.742  51.839  1.00  0.00     0.020 C 
HETATM   31  N   UNL     1      25.295  47.550  52.543  1.00  0.00    -0.123 NA
ENDBRANCH  21  22
ENDBRANCH  20  21
ENDBRANCH   2  20
TORSDOF 7
ENDMDL
MODEL 7
REMARK VINA RESULT:      -8.5      3.286      7.779
REMARK  7 active torsions:
REMARK  status: ('A' for Active; 'I' for Inactive)
REMARK    1  A    between atoms: O_2  and  C_3 
REMARK    2  A    between atoms: C_6  and  C_7 
REMARK    3  A    between atoms: C_7  and  N_8 
REMARK    4  A    between atoms: C_7  and  C_23 
REMARK       I    between atoms: N_8  and  C_9 
REMARK    5  A    between atoms: C_9  and  C_10 
REMARK    6  A    between atoms: C_10  and  S_11 
REMARK    7  A    between atoms: S_11  and  C_12 
ROOT
HETATM    1  N   UNL     1      25.089  45.189  49.807  1.00  0.00    -0.348 N 
HETATM    2  C   UNL     1      23.968  44.759  49.134  1.00  0.00     0.228 C 
HETATM    3  O   UNL     1      22.875  45.312  49.240  1.00  0.00    -0.273 OA
HETATM    4  H   UNL     1      25.958  44.695  49.666  1.00  0.00     0.163 HD
ENDROOT
BRANCH   1   5
HETATM    5  C   UNL     1      25.078  46.395  50.616  1.00  0.00     0.151 C 
BRANCH   5   6
HETATM    6  C   UNL     1      25.840  46.215  51.925  1.00  0.00    -0.031 A 
HETATM    7  C   UNL     1      25.733  47.117  52.994  1.00  0.00     0.012 A 
HETATM    8  C   UNL     1      26.406  46.880  54.197  1.00  0.00     0.037 A 
HETATM    9  C   UNL     1      27.187  45.736  54.365  1.00  0.00     0.068 A 
HETATM   10  C   UNL     1      27.318  44.841  53.305  1.00  0.00     0.037 A 
HETATM   11  C   UNL     1      26.647  45.078  52.099  1.00  0.00     0.012 A 
BRANCH   9  12
HETATM   12  O   UNL     1      27.771  45.610  55.595  1.00  0.00    -0.356 OA
HETATM   13  C   UNL     1      29.157  45.923  55.668  1.00  0.00     0.210 C 
ENDBRANCH   9  12
ENDBRANCH   5   6
BRANCH   5  14
HETATM   14  C   UNL     1      25.562  47.605  49.823  1.00  0.00    -0.031 A 
HETATM   15  C   UNL     1      24.623  48.498  49.280  1.00  0.00     0.009 A 
HETATM   16  C   UNL     1      25.035  49.623  48.562  1.00  0.00     0.001 A 
HETATM   17  C   UNL     1      26.392  49.875  48.381  1.00  0.00     0.000 A 
HETATM   18  C   UNL     1      27.338  49.002  48.914  1.00  0.00     0.001 A 
HETATM   19  C   UNL     1      26.929  47.875  49.629  1.00  0.00     0.009 A 
ENDBRANCH   5  14
ENDBRANCH   1   5
BRANCH   2  20
HETATM   20  C   UNL     1      24.175  43.600  48.175  1.00  0.00     0.185 C 
BRANCH  20  21
HETATM   21  S   UNL     1      23.650  42.014  48.899  1.00  0.00    -0.081 SA
BRANCH  21  22
HETATM   22  C   UNL     1      25.122  41.551  49.682  1.00  0.00     0.192 A 
HETATM   23  N   UNL     1      26.022  40.649  49.176  1.00  0.00    -0.311 N 
HETATM   24  C   UNL     1      27.040  40.595  50.104  1.00  0.00     0.130 A 
HETATM   25  C   UNL     1      25.899  39.886  47.950  1.00  0.00     0.133 C 
HETATM   26  C   UNL     1      28.279  39.771  50.011  1.00  0.00     0.081 C 
HETATM   27  N   UNL     1      26.752  41.409  51.100  1.00  0.00    -0.134 NA
HETATM   28  C   UNL     1      28.044  38.387  49.423  1.00  0.00     0.008 C 
HETATM   29  C   UNL     1      27.967  38.376  47.896  1.00  0.00     0.002 C 
HETATM   30  C   UNL     1      27.218  39.546  47.262  1.00  0.00     0.020 C 
HETATM   31  N   UNL     1      25.547  42.004  50.836  1.00  0.00    -0.123 NA
ENDBRANCH  21  22
ENDBRANCH  20  21
ENDBRANCH   2  20
TORSDOF 7
ENDMDL
MODEL 8
REMARK VINA RESULT:      -8.4      2.775      4.496
REMARK  7 active torsions:
REMARK  status: ('A' for Active; 'I' for Inactive)
REMARK    1  A    between atoms: O_2  and  C_3 
REMARK    2  A    between atoms: C_6  and  C_7 
REMARK    3  A    between atoms: C_7  and  N_8 
REMARK    4  A    between atoms: C_7  and  C_23 
REMARK       I    between atoms: N_8  and  C_9 
REMARK    5  A    between atoms: C_9  and  C_10 
REMARK    6  A    between atoms: C_10  and  S_11 
REMARK    7  A    between atoms: S_11  and  C_12 
ROOT
HETATM    1  N   UNL     1      24.091  44.222  49.853  1.00  0.00    -0.348 N 
HETATM    2  C   UNL     1      22.747  44.195  49.557  1.00  0.00     0.228 C 
HETATM    3  O   UNL     1      21.910  43.691  50.304  1.00  0.00    -0.273 OA
HETATM    4  H   UNL     1      24.723  44.663  49.201  1.00  0.00     0.163 HD
ENDROOT
BRANCH   1   5
HETATM    5  C   UNL     1      24.602  43.741  51.125  1.00  0.00     0.151 C 
BRANCH   5   6
HETATM    6  C   UNL     1      25.628  42.627  50.947  1.00  0.00    -0.031 A 
HETATM    7  C   UNL     1      25.347  41.442  50.252  1.00  0.00     0.012 A 
HETATM    8  C   UNL     1      26.337  40.473  50.064  1.00  0.00     0.037 A 
HETATM    9  C   UNL     1      27.630  40.670  50.551  1.00  0.00     0.068 A 
HETATM   10  C   UNL     1      27.920  41.834  51.259  1.00  0.00     0.037 A 
HETATM   11  C   UNL     1      26.928  42.804  51.452  1.00  0.00     0.012 A 
BRANCH   9  12
HETATM   12  O   UNL     1      28.511  39.659  50.280  1.00  0.00    -0.356 OA
HETATM   13  C   UNL     1      28.185  38.819  49.178  1.00  0.00     0.210 C 
ENDBRANCH   9  12
ENDBRANCH   5   6
BRANCH   5  14
HETATM   14  C   UNL     1      25.129  44.886  51.984  1.00  0.00    -0.031 A 
HETATM   15  C   UNL     1      25.225  44.719  53.377  1.00  0.00     0.009 A 
HETATM   16  C   UNL     1      25.718  45.743  54.188  1.00  0.00     0.001 A 
HETATM   17  C   UNL     1      26.129  46.946  53.621  1.00  0.00     0.000 A 
HETATM   18  C   UNL     1      26.045  47.128  52.243  1.00  0.00     0.001 A 
HETATM   19  C   UNL     1      25.548  46.108  51.429  1.00  0.00     0.009 A 
ENDBRANCH   5  14
ENDBRANCH   1   5
BRANCH   2  20
HETATM   20  C   UNL     1      22.336  44.907  48.280  1.00  0.00     0.185 C 
BRANCH  20  21
HETATM   21  S   UNL     1      20.832  45.907  48.511  1.00  0.00    -0.081 SA
BRANCH  21  22
HETATM   22  C   UNL     1      21.496  47.488  48.282  1.00  0.00     0.192 A 
HETATM   23  N   UNL     1      20.922  48.647  48.739  1.00  0.00    -0.311 N 
HETATM   24  C   UNL     1      21.783  49.653  48.355  1.00  0.00     0.130 A 
HETATM   25  C   UNL     1      19.659  48.780  49.437  1.00  0.00     0.133 C 
HETATM   26  C   UNL     1      21.624  51.108  48.633  1.00  0.00     0.081 C 
HETATM   27  N   UNL     1      22.797  49.119  47.703  1.00  0.00    -0.134 NA
HETATM   28  C   UNL     1      20.184  51.592  48.522  1.00  0.00     0.008 C 
HETATM   29  C   UNL     1      19.344  51.301  49.766  1.00  0.00     0.002 C 
HETATM   30  C   UNL     1      19.581  49.942  50.423  1.00  0.00     0.020 C 
HETATM   31  N   UNL     1      22.613  47.763  47.654  1.00  0.00    -0.123 NA
ENDBRANCH  21  22
ENDBRANCH  20  21
ENDBRANCH   2  20
TORSDOF 7
ENDMDL
MODEL 9
REMARK VINA RESULT:      -8.4      3.724      8.653
REMARK  7 active torsions:
REMARK  status: ('A' for Active; 'I' for Inactive)
REMARK    1  A    between atoms: O_2  and  C_3 
REMARK    2  A    between atoms: C_6  and  C_7 
REMARK    3  A    between atoms: C_7  and  N_8 
REMARK    4  A    between atoms: C_7  and  C_23 
REMARK       I    between atoms: N_8  and  C_9 
REMARK    5  A    between atoms: C_9  and  C_10 
REMARK    6  A    between atoms: C_10  and  S_11 
REMARK    7  A    between atoms: S_11  and  C_12 
ROOT
HETATM    1  N   UNL     1      25.709  44.064  51.562  1.00  0.00    -0.348 N 
HETATM    2  C   UNL     1      25.604  43.999  52.933  1.00  0.00     0.228 C 
HETATM    3  O   UNL     1      24.658  44.480  53.552  1.00  0.00    -0.273 OA
HETATM    4  H   UNL     1      26.508  43.637  51.115  1.00  0.00     0.163 HD
ENDROOT
BRANCH   1   5
HETATM    5  C   UNL     1      24.648  44.623  50.741  1.00  0.00     0.151 C 
BRANCH   5   6
HETATM    6  C   UNL     1      24.986  46.025  50.244  1.00  0.00    -0.031 A 
HETATM    7  C   UNL     1      26.304  46.472  50.076  1.00  0.00     0.012 A 
HETATM    8  C   UNL     1      26.565  47.746  49.562  1.00  0.00     0.037 A 
HETATM    9  C   UNL     1      25.520  48.594  49.193  1.00  0.00     0.068 A 
HETATM   10  C   UNL     1      24.205  48.171  49.372  1.00  0.00     0.037 A 
HETATM   11  C   UNL     1      23.942  46.897  49.890  1.00  0.00     0.012 A 
BRANCH   9  12
HETATM   12  O   UNL     1      25.909  49.802  48.682  1.00  0.00    -0.356 OA
HETATM   13  C   UNL     1      27.306  50.071  48.697  1.00  0.00     0.210 C 
ENDBRANCH   9  12
ENDBRANCH   5   6
BRANCH   5  14
HETATM   14  C   UNL     1      24.264  43.680  49.606  1.00  0.00    -0.031 A 
HETATM   15  C   UNL     1      22.998  43.796  49.007  1.00  0.00     0.009 A 
HETATM   16  C   UNL     1      22.623  42.958  47.955  1.00  0.00     0.001 A 
HETATM   17  C   UNL     1      23.509  41.994  47.482  1.00  0.00     0.000 A 
HETATM   18  C   UNL     1      24.770  41.866  48.061  1.00  0.00     0.001 A 
HETATM   19  C   UNL     1      25.146  42.700  49.115  1.00  0.00     0.009 A 
ENDBRANCH   5  14
ENDBRANCH   1   5
BRANCH   2  20
HETATM   20  C   UNL     1      26.694  43.216  53.643  1.00  0.00     0.185 C 
BRANCH  20  21
HETATM   21  S   UNL     1      28.359  43.767  53.153  1.00  0.00    -0.081 SA
BRANCH  21  22
HETATM   22  C   UNL     1      28.692  44.870  54.444  1.00  0.00     0.192 A 
HETATM   23  N   UNL     1      29.616  44.653  55.433  1.00  0.00    -0.311 N 
HETATM   24  C   UNL     1      29.566  45.778  56.228  1.00  0.00     0.130 A 
HETATM   25  C   UNL     1      30.434  43.472  55.622  1.00  0.00     0.133 C 
HETATM   26  C   UNL     1      30.398  46.048  57.435  1.00  0.00     0.081 C 
HETATM   27  N   UNL     1      28.660  46.603  55.741  1.00  0.00    -0.134 NA
HETATM   28  C   UNL     1      30.628  44.817  58.300  1.00  0.00     0.008 C 
HETATM   29  C   UNL     1      31.740  43.905  57.782  1.00  0.00     0.002 C 
HETATM   30  C   UNL     1      31.794  43.719  56.267  1.00  0.00     0.020 C 
HETATM   31  N   UNL     1      28.110  46.030  54.625  1.00  0.00    -0.123 NA
ENDBRANCH  21  22
ENDBRANCH  20  21
ENDBRANCH   2  20
TORSDOF 7
ENDMDL
MODEL 10
REMARK VINA RESULT:      -8.3     18.363     20.975
REMARK  7 active torsions:
REMARK  status: ('A' for Active; 'I' for Inactive)
REMARK    1  A    between atoms: O_2  and  C_3 
REMARK    2  A    between atoms: C_6  and  C_7 
REMARK    3  A    between atoms: C_7  and  N_8 
REMARK    4  A    between atoms: C_7  and  C_23 
REMARK       I    between atoms: N_8  and  C_9 
REMARK    5  A    between atoms: C_9  and  C_10 
REMARK    6  A    between atoms: C_10  and  S_11 
REMARK    7  A    between atoms: S_11  and  C_12 
ROOT
HETATM    1  N   UNL     1      37.127  47.478  66.948  1.00  0.00    -0.348 N 
HETATM    2  C   UNL     1      36.652  46.448  67.727  1.00  0.00     0.228 C 
HETATM    3  O   UNL     1      37.221  46.069  68.749  1.00  0.00    -0.273 OA
HETATM    4  H   UNL     1      36.604  47.746  66.126  1.00  0.00     0.163 HD
ENDROOT
BRANCH   1   5
HETATM    5  C   UNL     1      38.287  48.260  67.340  1.00  0.00     0.151 C 
BRANCH   5   6
HETATM    6  C   UNL     1      39.525  47.899  66.525  1.00  0.00    -0.031 A 
HETATM    7  C   UNL     1      40.828  48.175  66.963  1.00  0.00     0.012 A 
HETATM    8  C   UNL     1      41.935  47.774  66.209  1.00  0.00     0.037 A 
HETATM    9  C   UNL     1      41.767  47.077  65.011  1.00  0.00     0.068 A 
HETATM   10  C   UNL     1      40.478  46.812  64.553  1.00  0.00     0.037 A 
HETATM   11  C   UNL     1      39.369  47.217  65.306  1.00  0.00     0.012 A 
BRANCH   9  12
HETATM   12  O   UNL     1      42.929  46.721  64.382  1.00  0.00    -0.356 OA
HETATM   13  C   UNL     1      43.015  45.373  63.935  1.00  0.00     0.210 C 
ENDBRANCH   9  12
ENDBRANCH   5   6
BRANCH   5  14
HETATM   14  C   UNL     1      37.989  49.755  67.313  1.00  0.00    -0.031 A 
HETATM   15  C   UNL     1      37.662  50.419  68.508  1.00  0.00     0.009 A 
HETATM   16  C   UNL     1      37.400  51.790  68.518  1.00  0.00     0.001 A 
HETATM   17  C   UNL     1      37.464  52.521  67.335  1.00  0.00     0.000 A 
HETATM   18  C   UNL     1      37.789  51.881  66.141  1.00  0.00     0.001 A 
HETATM   19  C   UNL     1      38.049  50.510  66.127  1.00  0.00     0.009 A 
ENDBRANCH   5  14
ENDBRANCH   1   5
BRANCH   2  20
HETATM   20  C   UNL     1      35.324  45.850  67.296  1.00  0.00     0.185 C 
BRANCH  20  21
HETATM   21  S   UNL     1      35.523  44.178  66.601  1.00  0.00    -0.081 SA
BRANCH  21  22
HETATM   22  C   UNL     1      36.332  44.571  65.124  1.00  0.00     0.192 A 
HETATM   23  N   UNL     1      37.330  43.820  64.560  1.00  0.00    -0.311 N 
HETATM   24  C   UNL     1      37.669  44.481  63.399  1.00  0.00     0.130 A 
HETATM   25  C   UNL     1      37.927  42.614  65.098  1.00  0.00     0.133 C 
HETATM   26  C   UNL     1      38.697  44.057  62.406  1.00  0.00     0.081 C 
HETATM   27  N   UNL     1      36.921  45.562  63.291  1.00  0.00    -0.134 NA
HETATM   28  C   UNL     1      39.945  43.462  63.042  1.00  0.00     0.008 C 
HETATM   29  C   UNL     1      39.785  41.997  63.447  1.00  0.00     0.002 C 
HETATM   30  C   UNL     1      38.436  41.621  64.058  1.00  0.00     0.020 C 
HETATM   31  N   UNL     1      36.087  45.619  64.375  1.00  0.00    -0.123 NA
ENDBRANCH  21  22
ENDBRANCH  20  21
ENDBRANCH   2  20
TORSDOF 7
ENDMDL
