MODEL 1
REMARK VINA RESULT:     -10.1      0.000      0.000
REMARK  5 active torsions:
REMARK  status: ('A' for Active; 'I' for Inactive)
REMARK    1  A    between atoms: C_2  and  O_3 
REMARK    2  A    between atoms: O_3  and  C_4 
REMARK       I    between atoms: N_10  and  C_11 
REMARK    3  A    between atoms: C_11  and  C_13 
REMARK    4  A    between atoms: C_13  and  C_14 
REMARK    5  A    between atoms: C_17  and  C_20 
ROOT
HETATM    1  C   UNL     1      24.490  45.790  49.936  1.00  0.00    -0.049 A 
HETATM    2  C   UNL     1      25.476  46.768  50.136  1.00  0.00     0.008 A 
HETATM    3  C   UNL     1      26.227  46.785  51.312  1.00  0.00     0.014 A 
HETATM    4  C   UNL     1      26.009  45.806  52.286  1.00  0.00    -0.005 A 
HETATM    5  C   UNL     1      25.011  44.845  52.114  1.00  0.00     0.014 A 
HETATM    6  C   UNL     1      24.259  44.834  50.939  1.00  0.00     0.008 A 
ENDROOT
BRANCH   1   7
HETATM    7  C   UNL     1      23.697  45.750  48.645  1.00  0.00     0.141 C 
BRANCH   7   8
HETATM    8  C   UNL     1      22.201  45.943  48.825  1.00  0.00     0.228 C 
HETATM    9  N   UNL     1      21.672  47.222  48.772  1.00  0.00    -0.317 N 
HETATM   10  C   UNL     1      20.225  47.389  48.978  1.00  0.00     0.137 A 
HETATM   11  C   UNL     1      22.240  48.487  48.519  1.00  0.00     0.046 A 
HETATM   12  C   UNL     1      19.905  48.880  48.904  1.00  0.00     0.061 A 
HETATM   13  C   UNL     1      21.241  49.464  48.576  1.00  0.00    -0.029 A 
HETATM   14  C   UNL     1      21.515  50.807  48.358  1.00  0.00     0.012 A 
HETATM   15  C   UNL     1      22.825  51.182  48.066  1.00  0.00     0.037 A 
HETATM   16  C   UNL     1      23.838  50.217  48.001  1.00  0.00     0.070 A 
HETATM   17  C   UNL     1      23.541  48.863  48.233  1.00  0.00     0.067 A 
HETATM   18  O   UNL     1      21.452  44.977  49.020  1.00  0.00    -0.273 OA
BRANCH  16  19
HETATM   19  O   UNL     1      25.157  50.463  47.722  1.00  0.00    -0.351 OA
BRANCH  19  20
HETATM   20  C   UNL     1      26.093  49.434  48.039  1.00  0.00     0.171 C 
HETATM   21  C   UNL     1      27.249  50.068  48.792  1.00  0.00     0.034 C 
ENDBRANCH  19  20
ENDBRANCH  16  19
ENDBRANCH   7   8
ENDBRANCH   1   7
BRANCH   4  22
HETATM   22  C   UNL     1      26.814  45.793  53.530  1.00  0.00     0.098 A 
HETATM   23  N   UNL     1      26.493  46.656  54.448  1.00  0.00    -0.170 NA
HETATM   24  N   UNL     1      27.238  46.700  55.585  1.00  0.00    -0.242 N 
HETATM   25  C   UNL     1      28.347  45.937  55.856  1.00  0.00     0.272 A 
HETATM   26  H   UNL     1      26.974  47.400  56.271  1.00  0.00     0.192 HD
HETATM   27  O   UNL     1      29.001  46.069  56.885  1.00  0.00    -0.266 OA
HETATM   28  C   UNL     1      28.701  44.929  54.845  1.00  0.00     0.046 A 
HETATM   29  C   UNL     1      29.783  44.064  55.063  1.00  0.00     0.018 A 
HETATM   30  C   UNL     1      27.931  44.826  53.689  1.00  0.00     0.011 A 
HETATM   31  C   UNL     1      30.083  43.079  54.123  1.00  0.00     0.001 A 
HETATM   32  C   UNL     1      29.298  42.951  52.978  1.00  0.00     0.001 A 
HETATM   33  C   UNL     1      28.219  43.815  52.762  1.00  0.00     0.015 A 
ENDBRANCH   4  22
TORSDOF 5
ENDMDL
MODEL 2
REMARK VINA RESULT:      -9.7      1.509      2.446
REMARK  5 active torsions:
REMARK  status: ('A' for Active; 'I' for Inactive)
REMARK    1  A    between atoms: C_2  and  O_3 
REMARK    2  A    between atoms: O_3  and  C_4 
REMARK       I    between atoms: N_10  and  C_11 
REMARK    3  A    between atoms: C_11  and  C_13 
REMARK    4  A    between atoms: C_13  and  C_14 
REMARK    5  A    between atoms: C_17  and  C_20 
ROOT
HETATM    1  C   UNL     1      23.617  45.233  49.121  1.00  0.00    -0.049 A 
HETATM    2  C   UNL     1      23.411  44.337  50.181  1.00  0.00     0.008 A 
HETATM    3  C   UNL     1      24.387  44.167  51.164  1.00  0.00     0.014 A 
HETATM    4  C   UNL     1      25.568  44.913  51.101  1.00  0.00    -0.005 A 
HETATM    5  C   UNL     1      25.800  45.784  50.036  1.00  0.00     0.014 A 
HETATM    6  C   UNL     1      24.824  45.948  49.053  1.00  0.00     0.008 A 
ENDROOT
BRANCH   1   7
HETATM    7  C   UNL     1      22.544  45.442  48.071  1.00  0.00     0.141 C 
BRANCH   7   8
HETATM    8  C   UNL     1      21.193  45.852  48.633  1.00  0.00     0.228 C 
HETATM    9  N   UNL     1      20.928  47.194  48.850  1.00  0.00    -0.317 N 
HETATM   10  C   UNL     1      19.625  47.565  49.422  1.00  0.00     0.137 A 
HETATM   11  C   UNL     1      21.663  48.370  48.604  1.00  0.00     0.046 A 
HETATM   12  C   UNL     1      19.596  49.082  49.591  1.00  0.00     0.061 A 
HETATM   13  C   UNL     1      20.915  49.479  49.010  1.00  0.00    -0.029 A 
HETATM   14  C   UNL     1      21.391  50.776  48.877  1.00  0.00     0.012 A 
HETATM   15  C   UNL     1      22.652  50.969  48.315  1.00  0.00     0.037 A 
HETATM   16  C   UNL     1      23.415  49.870  47.899  1.00  0.00     0.070 A 
HETATM   17  C   UNL     1      22.917  48.565  48.049  1.00  0.00     0.067 A 
HETATM   18  O   UNL     1      20.331  45.005  48.901  1.00  0.00    -0.273 OA
BRANCH  16  19
HETATM   19  O   UNL     1      24.662  49.933  47.333  1.00  0.00    -0.351 OA
BRANCH  19  20
HETATM   20  C   UNL     1      25.722  50.440  48.143  1.00  0.00     0.171 C 
HETATM   21  C   UNL     1      26.447  49.257  48.758  1.00  0.00     0.034 C 
ENDBRANCH  19  20
ENDBRANCH  16  19
ENDBRANCH   7   8
ENDBRANCH   1   7
BRANCH   4  22
HETATM   22  C   UNL     1      26.605  44.765  52.150  1.00  0.00     0.098 A 
HETATM   23  N   UNL     1      27.400  43.740  52.051  1.00  0.00    -0.170 NA
HETATM   24  N   UNL     1      28.336  43.550  53.019  1.00  0.00    -0.242 N 
HETATM   25  C   UNL     1      28.508  44.324  54.141  1.00  0.00     0.272 A 
HETATM   26  H   UNL     1      28.924  42.729  52.924  1.00  0.00     0.192 HD
HETATM   27  O   UNL     1      29.342  44.060  55.000  1.00  0.00    -0.266 OA
HETATM   28  C   UNL     1      27.644  45.509  54.248  1.00  0.00     0.046 A 
HETATM   29  C   UNL     1      27.788  46.390  55.329  1.00  0.00     0.018 A 
HETATM   30  C   UNL     1      26.705  45.759  53.250  1.00  0.00     0.011 A 
HETATM   31  C   UNL     1      26.999  47.536  55.400  1.00  0.00     0.001 A 
HETATM   32  C   UNL     1      26.078  47.808  54.388  1.00  0.00     0.001 A 
HETATM   33  C   UNL     1      25.934  46.928  53.311  1.00  0.00     0.015 A 
ENDBRANCH   4  22
TORSDOF 5
ENDMDL
MODEL 3
REMARK VINA RESULT:      -9.0      1.672      3.673
REMARK  5 active torsions:
REMARK  status: ('A' for Active; 'I' for Inactive)
REMARK    1  A    between atoms: C_2  and  O_3 
REMARK    2  A    between atoms: O_3  and  C_4 
REMARK       I    between atoms: N_10  and  C_11 
REMARK    3  A    between atoms: C_11  and  C_13 
REMARK    4  A    between atoms: C_13  and  C_14 
REMARK    5  A    between atoms: C_17  and  C_20 
ROOT
HETATM    1  C   UNL     1      24.879  46.390  50.720  1.00  0.00    -0.049 A 
HETATM    2  C   UNL     1      24.630  45.370  51.650  1.00  0.00     0.008 A 
HETATM    3  C   UNL     1      25.432  45.234  52.784  1.00  0.00     0.014 A 
HETATM    4  C   UNL     1      26.477  46.138  53.003  1.00  0.00    -0.005 A 
HETATM    5  C   UNL     1      26.755  47.139  52.072  1.00  0.00     0.014 A 
HETATM    6  C   UNL     1      25.955  47.268  50.937  1.00  0.00     0.008 A 
ENDROOT
BRANCH   1   7
HETATM    7  C   UNL     1      23.988  46.559  49.505  1.00  0.00     0.141 C 
BRANCH   7   8
HETATM    8  C   UNL     1      23.262  47.892  49.444  1.00  0.00     0.228 C 
HETATM    9  N   UNL     1      22.024  47.961  48.827  1.00  0.00    -0.317 N 
HETATM   10  C   UNL     1      21.352  49.267  48.753  1.00  0.00     0.137 A 
HETATM   11  C   UNL     1      21.189  46.991  48.238  1.00  0.00     0.046 A 
HETATM   12  C   UNL     1      20.034  49.080  48.006  1.00  0.00     0.061 A 
HETATM   13  C   UNL     1      20.025  47.605  47.765  1.00  0.00    -0.029 A 
HETATM   14  C   UNL     1      19.016  46.885  47.142  1.00  0.00     0.012 A 
HETATM   15  C   UNL     1      19.172  45.508  46.994  1.00  0.00     0.037 A 
HETATM   16  C   UNL     1      20.329  44.874  47.464  1.00  0.00     0.070 A 
HETATM   17  C   UNL     1      21.343  45.623  48.086  1.00  0.00     0.067 A 
HETATM   18  O   UNL     1      23.761  48.913  49.933  1.00  0.00    -0.273 OA
BRANCH  16  19
HETATM   19  O   UNL     1      20.595  43.532  47.379  1.00  0.00    -0.351 OA
BRANCH  19  20
HETATM   20  C   UNL     1      21.783  43.145  46.690  1.00  0.00     0.171 C 
HETATM   21  C   UNL     1      21.442  42.994  45.219  1.00  0.00     0.034 C 
ENDBRANCH  19  20
ENDBRANCH  16  19
ENDBRANCH   7   8
ENDBRANCH   1   7
BRANCH   4  22
HETATM   22  C   UNL     1      27.323  46.025  54.215  1.00  0.00     0.098 A 
HETATM   23  N   UNL     1      27.078  46.858  55.183  1.00  0.00    -0.170 NA
HETATM   24  N   UNL     1      27.863  46.811  56.293  1.00  0.00    -0.242 N 
HETATM   25  C   UNL     1      28.940  45.982  56.487  1.00  0.00     0.272 A 
HETATM   26  H   UNL     1      27.660  47.489  57.019  1.00  0.00     0.192 HD
HETATM   27  O   UNL     1      29.636  46.032  57.496  1.00  0.00    -0.266 OA
HETATM   28  C   UNL     1      29.207  45.007  55.419  1.00  0.00     0.046 A 
HETATM   29  C   UNL     1      30.250  44.080  55.556  1.00  0.00     0.018 A 
HETATM   30  C   UNL     1      28.393  44.997  54.288  1.00  0.00     0.011 A 
HETATM   31  C   UNL     1      30.467  43.128  54.561  1.00  0.00     0.001 A 
HETATM   32  C   UNL     1      29.637  43.094  53.441  1.00  0.00     0.001 A 
HETATM   33  C   UNL     1      28.598  44.019  53.305  1.00  0.00     0.015 A 
ENDBRANCH   4  22
TORSDOF 5
ENDMDL
MODEL 4
REMARK VINA RESULT:      -9.0      2.067      4.321
REMARK  5 active torsions:
REMARK  status: ('A' for Active; 'I' for Inactive)
REMARK    1  A    between atoms: C_2  and  O_3 
REMARK    2  A    between atoms: O_3  and  C_4 
REMARK       I    between atoms: N_10  and  C_11 
REMARK    3  A    between atoms: C_11  and  C_13 
REMARK    4  A    between atoms: C_13  and  C_14 
REMARK    5  A    between atoms: C_17  and  C_20 
ROOT
HETATM    1  C   UNL     1      24.233  47.585  49.392  1.00  0.00    -0.049 A 
HETATM    2  C   UNL     1      23.746  46.397  49.956  1.00  0.00     0.008 A 
HETATM    3  C   UNL     1      24.547  45.639  50.812  1.00  0.00     0.014 A 
HETATM    4  C   UNL     1      25.836  46.081  51.123  1.00  0.00    -0.005 A 
HETATM    5  C   UNL     1      26.345  47.245  50.546  1.00  0.00     0.014 A 
HETATM    6  C   UNL     1      25.543  47.998  49.688  1.00  0.00     0.008 A 
ENDROOT
BRANCH   1   7
HETATM    7  C   UNL     1      23.353  48.427  48.490  1.00  0.00     0.141 C 
BRANCH   7   8
HETATM    8  C   UNL     1      22.760  49.653  49.164  1.00  0.00     0.228 C 
HETATM    9  N   UNL     1      21.395  49.707  49.392  1.00  0.00    -0.317 N 
HETATM   10  C   UNL     1      20.839  50.916  50.019  1.00  0.00     0.137 A 
HETATM   11  C   UNL     1      20.347  48.791  49.173  1.00  0.00     0.046 A 
HETATM   12  C   UNL     1      19.326  50.739  50.130  1.00  0.00     0.061 A 
HETATM   13  C   UNL     1      19.141  49.354  49.600  1.00  0.00    -0.029 A 
HETATM   14  C   UNL     1      17.938  48.668  49.511  1.00  0.00     0.012 A 
HETATM   15  C   UNL     1      17.943  47.377  48.984  1.00  0.00     0.037 A 
HETATM   16  C   UNL     1      19.142  46.795  48.554  1.00  0.00     0.070 A 
HETATM   17  C   UNL     1      20.349  47.510  48.646  1.00  0.00     0.067 A 
HETATM   18  O   UNL     1      23.477  50.602  49.506  1.00  0.00    -0.273 OA
BRANCH  16  19
HETATM   19  O   UNL     1      19.274  45.538  48.023  1.00  0.00    -0.351 OA
BRANCH  19  20
HETATM   20  C   UNL     1      19.666  45.446  46.654  1.00  0.00     0.171 C 
HETATM   21  C   UNL     1      19.098  44.157  46.090  1.00  0.00     0.034 C 
ENDBRANCH  19  20
ENDBRANCH  16  19
ENDBRANCH   7   8
ENDBRANCH   1   7
BRANCH   4  22
HETATM   22  C   UNL     1      26.692  45.303  52.050  1.00  0.00     0.098 A 
HETATM   23  N   UNL     1      27.082  44.130  51.645  1.00  0.00    -0.170 NA
HETATM   24  N   UNL     1      27.834  43.371  52.487  1.00  0.00    -0.242 N 
HETATM   25  C   UNL     1      28.200  43.704  53.767  1.00  0.00     0.272 A 
HETATM   26  H   UNL     1      28.102  42.453  52.149  1.00  0.00     0.192 HD
HETATM   27  O   UNL     1      28.837  42.944  54.489  1.00  0.00    -0.266 OA
HETATM   28  C   UNL     1      27.800  45.043  54.227  1.00  0.00     0.046 A 
HETATM   29  C   UNL     1      28.180  45.493  55.499  1.00  0.00     0.018 A 
HETATM   30  C   UNL     1      27.068  45.865  53.372  1.00  0.00     0.011 A 
HETATM   31  C   UNL     1      27.839  46.781  55.910  1.00  0.00     0.001 A 
HETATM   32  C   UNL     1      27.133  47.619  55.048  1.00  0.00     0.001 A 
HETATM   33  C   UNL     1      26.754  47.169  53.779  1.00  0.00     0.015 A 
ENDBRANCH   4  22
TORSDOF 5
ENDMDL
MODEL 5
REMARK VINA RESULT:      -9.0      2.258      3.594
REMARK  5 active torsions:
REMARK  status: ('A' for Active; 'I' for Inactive)
REMARK    1  A    between atoms: C_2  and  O_3 
REMARK    2  A    between atoms: O_3  and  C_4 
REMARK       I    between atoms: N_10  and  C_11 
REMARK    3  A    between atoms: C_11  and  C_13 
REMARK    4  A    between atoms: C_13  and  C_14 
REMARK    5  A    between atoms: C_17  and  C_20 
ROOT
HETATM    1  C   UNL     1      24.786  46.204  50.820  1.00  0.00    -0.049 A 
HETATM    2  C   UNL     1      25.783  47.169  51.032  1.00  0.00     0.008 A 
HETATM    3  C   UNL     1      26.607  47.100  52.156  1.00  0.00     0.014 A 
HETATM    4  C   UNL     1      26.450  46.049  53.064  1.00  0.00    -0.005 A 
HETATM    5  C   UNL     1      25.443  45.100  52.884  1.00  0.00     0.014 A 
HETATM    6  C   UNL     1      24.618  45.175  51.761  1.00  0.00     0.008 A 
ENDROOT
BRANCH   1   7
HETATM    7  C   UNL     1      23.913  46.259  49.583  1.00  0.00     0.141 C 
BRANCH   7   8
HETATM    8  C   UNL     1      23.837  44.950  48.814  1.00  0.00     0.228 C 
HETATM    9  N   UNL     1      22.701  44.663  48.077  1.00  0.00    -0.317 N 
HETATM   10  C   UNL     1      22.637  43.378  47.364  1.00  0.00     0.137 A 
HETATM   11  C   UNL     1      21.520  45.385  47.811  1.00  0.00     0.046 A 
HETATM   12  C   UNL     1      21.283  43.292  46.662  1.00  0.00     0.061 A 
HETATM   13  C   UNL     1      20.686  44.623  46.986  1.00  0.00    -0.029 A 
HETATM   14  C   UNL     1      19.452  45.092  46.556  1.00  0.00     0.012 A 
HETATM   15  C   UNL     1      19.044  46.363  46.957  1.00  0.00     0.037 A 
HETATM   16  C   UNL     1      19.867  47.141  47.780  1.00  0.00     0.070 A 
HETATM   17  C   UNL     1      21.110  46.645  48.211  1.00  0.00     0.067 A 
HETATM   18  O   UNL     1      24.772  44.140  48.841  1.00  0.00    -0.273 OA
BRANCH  16  19
HETATM   19  O   UNL     1      19.577  48.401  48.237  1.00  0.00    -0.351 OA
BRANCH  19  20
HETATM   20  C   UNL     1      19.777  48.653  49.627  1.00  0.00     0.171 C 
HETATM   21  C   UNL     1      18.489  48.316  50.354  1.00  0.00     0.034 C 
ENDBRANCH  19  20
ENDBRANCH  16  19
ENDBRANCH   7   8
ENDBRANCH   1   7
BRANCH   4  22
HETATM   22  C   UNL     1      27.332  45.946  54.251  1.00  0.00     0.098 A 
HETATM   23  N   UNL     1      27.110  46.779  55.225  1.00  0.00    -0.170 NA
HETATM   24  N   UNL     1      27.928  46.740  56.310  1.00  0.00    -0.242 N 
HETATM   25  C   UNL     1      29.016  45.919  56.474  1.00  0.00     0.272 A 
HETATM   26  H   UNL     1      27.741  47.419  57.041  1.00  0.00     0.192 HD
HETATM   27  O   UNL     1      29.741  45.977  57.462  1.00  0.00    -0.266 OA
HETATM   28  C   UNL     1      29.259  44.944  55.400  1.00  0.00     0.046 A 
HETATM   29  C   UNL     1      30.312  44.025  55.509  1.00  0.00     0.018 A 
HETATM   30  C   UNL     1      28.412  44.926  54.294  1.00  0.00     0.011 A 
HETATM   31  C   UNL     1      30.507  43.072  54.510  1.00  0.00     0.001 A 
HETATM   32  C   UNL     1      29.644  43.029  53.415  1.00  0.00     0.001 A 
HETATM   33  C   UNL     1      28.594  43.947  53.308  1.00  0.00     0.015 A 
ENDBRANCH   4  22
TORSDOF 5
ENDMDL
MODEL 6
REMARK VINA RESULT:      -8.8      4.069     10.415
REMARK  5 active torsions:
REMARK  status: ('A' for Active; 'I' for Inactive)
REMARK    1  A    between atoms: C_2  and  O_3 
REMARK    2  A    between atoms: O_3  and  C_4 
REMARK       I    between atoms: N_10  and  C_11 
REMARK    3  A    between atoms: C_11  and  C_13 
REMARK    4  A    between atoms: C_13  and  C_14 
REMARK    5  A    between atoms: C_17  and  C_20 
ROOT
HETATM    1  C   UNL     1      21.592  49.482  48.937  1.00  0.00    -0.049 A 
HETATM    2  C   UNL     1      20.404  48.873  49.369  1.00  0.00     0.008 A 
HETATM    3  C   UNL     1      19.213  49.599  49.416  1.00  0.00     0.014 A 
HETATM    4  C   UNL     1      19.203  50.937  49.009  1.00  0.00    -0.005 A 
HETATM    5  C   UNL     1      20.383  51.564  48.607  1.00  0.00     0.014 A 
HETATM    6  C   UNL     1      21.572  50.836  48.565  1.00  0.00     0.008 A 
ENDROOT
BRANCH   1   7
HETATM    7  C   UNL     1      22.878  48.684  48.853  1.00  0.00     0.141 C 
BRANCH   7   8
HETATM    8  C   UNL     1      22.722  47.312  48.220  1.00  0.00     0.228 C 
HETATM    9  N   UNL     1      23.417  46.238  48.750  1.00  0.00    -0.317 N 
HETATM   10  C   UNL     1      23.274  44.925  48.103  1.00  0.00     0.137 A 
HETATM   11  C   UNL     1      24.267  46.100  49.866  1.00  0.00     0.046 A 
HETATM   12  C   UNL     1      24.156  43.929  48.852  1.00  0.00     0.061 A 
HETATM   13  C   UNL     1      24.701  44.774  49.958  1.00  0.00    -0.029 A 
HETATM   14  C   UNL     1      25.547  44.347  50.971  1.00  0.00     0.012 A 
HETATM   15  C   UNL     1      25.966  45.273  51.925  1.00  0.00     0.037 A 
HETATM   16  C   UNL     1      25.540  46.605  51.851  1.00  0.00     0.070 A 
HETATM   17  C   UNL     1      24.688  47.019  50.812  1.00  0.00     0.067 A 
HETATM   18  O   UNL     1      21.988  47.143  47.238  1.00  0.00    -0.273 OA
BRANCH  16  19
HETATM   19  O   UNL     1      25.881  47.602  52.728  1.00  0.00    -0.351 OA
BRANCH  19  20
HETATM   20  C   UNL     1      25.973  47.254  54.108  1.00  0.00     0.171 C 
HETATM   21  C   UNL     1      27.399  47.508  54.561  1.00  0.00     0.034 C 
ENDBRANCH  19  20
ENDBRANCH  16  19
ENDBRANCH   7   8
ENDBRANCH   1   7
BRANCH   4  22
HETATM   22  C   UNL     1      17.943  51.717  49.029  1.00  0.00     0.098 A 
HETATM   23  N   UNL     1      17.589  52.234  50.168  1.00  0.00    -0.170 NA
HETATM   24  N   UNL     1      16.416  52.921  50.232  1.00  0.00    -0.242 N 
HETATM   25  C   UNL     1      15.525  53.095  49.202  1.00  0.00     0.272 A 
HETATM   26  H   UNL     1      16.159  53.291  51.140  1.00  0.00     0.192 HD
HETATM   27  O   UNL     1      14.459  53.684  49.348  1.00  0.00    -0.266 OA
HETATM   28  C   UNL     1      15.928  52.551  47.897  1.00  0.00     0.046 A 
HETATM   29  C   UNL     1      15.108  52.733  46.774  1.00  0.00     0.018 A 
HETATM   30  C   UNL     1      17.145  51.881  47.786  1.00  0.00     0.011 A 
HETATM   31  C   UNL     1      15.519  52.255  45.531  1.00  0.00     0.001 A 
HETATM   32  C   UNL     1      16.750  51.611  45.408  1.00  0.00     0.001 A 
HETATM   33  C   UNL     1      17.566  51.430  46.528  1.00  0.00     0.015 A 
ENDBRANCH   4  22
TORSDOF 5
ENDMDL
MODEL 7
REMARK VINA RESULT:      -8.7      4.416     10.932
REMARK  5 active torsions:
REMARK  status: ('A' for Active; 'I' for Inactive)
REMARK    1  A    between atoms: C_2  and  O_3 
REMARK    2  A    between atoms: O_3  and  C_4 
REMARK       I    between atoms: N_10  and  C_11 
REMARK    3  A    between atoms: C_11  and  C_13 
REMARK    4  A    between atoms: C_13  and  C_14 
REMARK    5  A    between atoms: C_17  and  C_20 
ROOT
HETATM    1  C   UNL     1      20.754  49.521  48.542  1.00  0.00    -0.049 A 
HETATM    2  C   UNL     1      19.507  49.003  48.161  1.00  0.00     0.008 A 
HETATM    3  C   UNL     1      18.347  49.763  48.319  1.00  0.00     0.014 A 
HETATM    4  C   UNL     1      18.435  51.057  48.840  1.00  0.00    -0.005 A 
HETATM    5  C   UNL     1      19.664  51.574  49.251  1.00  0.00     0.014 A 
HETATM    6  C   UNL     1      20.821  50.810  49.096  1.00  0.00     0.008 A 
ENDROOT
BRANCH   1   7
HETATM    7  C   UNL     1      22.018  48.709  48.340  1.00  0.00     0.141 C 
BRANCH   7   8
HETATM    8  C   UNL     1      23.219  49.525  47.890  1.00  0.00     0.228 C 
HETATM    9  N   UNL     1      24.469  49.232  48.408  1.00  0.00    -0.317 N 
HETATM   10  C   UNL     1      25.612  50.053  47.982  1.00  0.00     0.137 A 
HETATM   11  C   UNL     1      24.934  48.237  49.292  1.00  0.00     0.046 A 
HETATM   12  C   UNL     1      26.855  49.552  48.713  1.00  0.00     0.061 A 
HETATM   13  C   UNL     1      26.311  48.388  49.478  1.00  0.00    -0.029 A 
HETATM   14  C   UNL     1      27.040  47.537  50.297  1.00  0.00     0.012 A 
HETATM   15  C   UNL     1      26.370  46.499  50.944  1.00  0.00     0.037 A 
HETATM   16  C   UNL     1      24.992  46.329  50.766  1.00  0.00     0.070 A 
HETATM   17  C   UNL     1      24.271  47.207  49.938  1.00  0.00     0.067 A 
HETATM   18  O   UNL     1      23.094  50.446  47.073  1.00  0.00    -0.273 OA
BRANCH  16  19
HETATM   19  O   UNL     1      24.227  45.349  51.344  1.00  0.00    -0.351 OA
BRANCH  19  20
HETATM   20  C   UNL     1      24.867  44.106  51.629  1.00  0.00     0.171 C 
HETATM   21  C   UNL     1      24.278  43.055  50.706  1.00  0.00     0.034 C 
ENDBRANCH  19  20
ENDBRANCH  16  19
ENDBRANCH   7   8
ENDBRANCH   1   7
BRANCH   4  22
HETATM   22  C   UNL     1      17.217  51.889  48.991  1.00  0.00     0.098 A 
HETATM   23  N   UNL     1      16.868  52.206  50.203  1.00  0.00    -0.170 NA
HETATM   24  N   UNL     1      15.732  52.933  50.381  1.00  0.00    -0.242 N 
HETATM   25  C   UNL     1      14.871  53.343  49.393  1.00  0.00     0.272 A 
HETATM   26  H   UNL     1      15.476  53.143  51.340  1.00  0.00     0.192 HD
HETATM   27  O   UNL     1      13.835  53.952  49.635  1.00  0.00    -0.266 OA
HETATM   28  C   UNL     1      15.271  53.027  48.013  1.00  0.00     0.046 A 
HETATM   29  C   UNL     1      14.485  53.457  46.936  1.00  0.00     0.018 A 
HETATM   30  C   UNL     1      16.454  52.323  47.793  1.00  0.00     0.011 A 
HETATM   31  C   UNL     1      14.895  53.196  45.630  1.00  0.00     0.001 A 
HETATM   32  C   UNL     1      16.092  52.519  45.401  1.00  0.00     0.001 A 
HETATM   33  C   UNL     1      16.876  52.089  46.477  1.00  0.00     0.015 A 
ENDBRANCH   4  22
TORSDOF 5
ENDMDL
MODEL 8
REMARK VINA RESULT:      -8.6      4.176      7.055
REMARK  5 active torsions:
REMARK  status: ('A' for Active; 'I' for Inactive)
REMARK    1  A    between atoms: C_2  and  O_3 
REMARK    2  A    between atoms: O_3  and  C_4 
REMARK       I    between atoms: N_10  and  C_11 
REMARK    3  A    between atoms: C_11  and  C_13 
REMARK    4  A    between atoms: C_13  and  C_14 
REMARK    5  A    between atoms: C_17  and  C_20 
ROOT
HETATM    1  C   UNL     1      19.213  47.261  48.217  1.00  0.00    -0.049 A 
HETATM    2  C   UNL     1      19.572  48.208  49.188  1.00  0.00     0.008 A 
HETATM    3  C   UNL     1      20.870  48.718  49.234  1.00  0.00     0.014 A 
HETATM    4  C   UNL     1      21.811  48.296  48.290  1.00  0.00    -0.005 A 
HETATM    5  C   UNL     1      21.478  47.332  47.338  1.00  0.00     0.014 A 
HETATM    6  C   UNL     1      20.180  46.821  47.299  1.00  0.00     0.008 A 
ENDROOT
BRANCH   1   7
HETATM    7  C   UNL     1      17.794  46.732  48.146  1.00  0.00     0.141 C 
BRANCH   7   8
HETATM    8  C   UNL     1      17.196  46.735  46.749  1.00  0.00     0.228 C 
HETATM    9  N   UNL     1      16.528  47.862  46.301  1.00  0.00    -0.317 N 
HETATM   10  C   UNL     1      15.931  47.832  44.957  1.00  0.00     0.137 A 
HETATM   11  C   UNL     1      16.297  49.131  46.868  1.00  0.00     0.046 A 
HETATM   12  C   UNL     1      15.233  49.169  44.718  1.00  0.00     0.061 A 
HETATM   13  C   UNL     1      15.561  49.913  45.972  1.00  0.00    -0.029 A 
HETATM   14  C   UNL     1      15.195  51.219  46.267  1.00  0.00     0.012 A 
HETATM   15  C   UNL     1      15.583  51.760  47.491  1.00  0.00     0.037 A 
HETATM   16  C   UNL     1      16.322  50.994  48.400  1.00  0.00     0.070 A 
HETATM   17  C   UNL     1      16.677  49.670  48.085  1.00  0.00     0.067 A 
HETATM   18  O   UNL     1      17.296  45.746  46.011  1.00  0.00    -0.273 OA
BRANCH  16  19
HETATM   19  O   UNL     1      16.761  51.415  49.628  1.00  0.00    -0.351 OA
BRANCH  19  20
HETATM   20  C   UNL     1      17.634  52.543  49.657  1.00  0.00     0.171 C 
HETATM   21  C   UNL     1      19.053  52.043  49.456  1.00  0.00     0.034 C 
ENDBRANCH  19  20
ENDBRANCH  16  19
ENDBRANCH   7   8
ENDBRANCH   1   7
BRANCH   4  22
HETATM   22  C   UNL     1      23.188  48.845  48.307  1.00  0.00     0.098 A 
HETATM   23  N   UNL     1      23.420  49.875  47.547  1.00  0.00    -0.170 NA
HETATM   24  N   UNL     1      24.683  50.378  47.506  1.00  0.00    -0.242 N 
HETATM   25  C   UNL     1      25.776  49.876  48.169  1.00  0.00     0.272 A 
HETATM   26  H   UNL     1      24.835  51.166  46.886  1.00  0.00     0.192 HD
HETATM   27  O   UNL     1      26.898  50.354  48.042  1.00  0.00    -0.266 OA
HETATM   28  C   UNL     1      25.523  48.736  49.064  1.00  0.00     0.046 A 
HETATM   29  C   UNL     1      26.567  48.195  49.826  1.00  0.00     0.018 A 
HETATM   30  C   UNL     1      24.231  48.225  49.164  1.00  0.00     0.011 A 
HETATM   31  C   UNL     1      26.310  47.146  50.707  1.00  0.00     0.001 A 
HETATM   32  C   UNL     1      25.014  46.649  50.835  1.00  0.00     0.001 A 
HETATM   33  C   UNL     1      23.973  47.190  50.073  1.00  0.00     0.015 A 
ENDBRANCH   4  22
TORSDOF 5
ENDMDL
MODEL 9
REMARK VINA RESULT:      -8.6      2.480      3.947
REMARK  5 active torsions:
REMARK  status: ('A' for Active; 'I' for Inactive)
REMARK    1  A    between atoms: C_2  and  O_3 
REMARK    2  A    between atoms: O_3  and  C_4 
REMARK       I    between atoms: N_10  and  C_11 
REMARK    3  A    between atoms: C_11  and  C_13 
REMARK    4  A    between atoms: C_13  and  C_14 
REMARK    5  A    between atoms: C_17  and  C_20 
ROOT
HETATM    1  C   UNL     1      24.128  46.046  49.770  1.00  0.00    -0.049 A 
HETATM    2  C   UNL     1      25.416  46.602  49.736  1.00  0.00     0.008 A 
HETATM    3  C   UNL     1      26.413  46.131  50.592  1.00  0.00     0.014 A 
HETATM    4  C   UNL     1      26.129  45.083  51.472  1.00  0.00    -0.005 A 
HETATM    5  C   UNL     1      24.846  44.541  51.539  1.00  0.00     0.014 A 
HETATM    6  C   UNL     1      23.850  45.017  50.685  1.00  0.00     0.008 A 
ENDROOT
BRANCH   1   7
HETATM    7  C   UNL     1      23.055  46.533  48.817  1.00  0.00     0.141 C 
BRANCH   7   8
HETATM    8  C   UNL     1      22.430  45.438  47.967  1.00  0.00     0.228 C 
HETATM    9  N   UNL     1      21.054  45.397  47.821  1.00  0.00    -0.317 N 
HETATM   10  C   UNL     1      20.470  44.312  47.018  1.00  0.00     0.137 A 
HETATM   11  C   UNL     1      20.014  46.234  48.273  1.00  0.00     0.046 A 
HETATM   12  C   UNL     1      18.951  44.473  47.038  1.00  0.00     0.061 A 
HETATM   13  C   UNL     1      18.788  45.732  47.827  1.00  0.00    -0.029 A 
HETATM   14  C   UNL     1      17.586  46.363  48.118  1.00  0.00     0.012 A 
HETATM   15  C   UNL     1      17.614  47.534  48.874  1.00  0.00     0.037 A 
HETATM   16  C   UNL     1      18.833  48.053  49.327  1.00  0.00     0.070 A 
HETATM   17  C   UNL     1      20.038  47.395  49.026  1.00  0.00     0.067 A 
HETATM   18  O   UNL     1      23.133  44.585  47.410  1.00  0.00    -0.273 OA
BRANCH  16  19
HETATM   19  O   UNL     1      18.987  49.194  50.072  1.00  0.00    -0.351 OA
BRANCH  19  20
HETATM   20  C   UNL     1      19.621  50.305  49.440  1.00  0.00     0.171 C 
HETATM   21  C   UNL     1      18.910  51.568  49.892  1.00  0.00     0.034 C 
ENDBRANCH  19  20
ENDBRANCH  16  19
ENDBRANCH   7   8
ENDBRANCH   1   7
BRANCH   4  22
HETATM   22  C   UNL     1      27.182  44.554  52.371  1.00  0.00     0.098 A 
HETATM   23  N   UNL     1      27.771  43.453  52.003  1.00  0.00    -0.170 NA
HETATM   24  N   UNL     1      28.712  42.917  52.825  1.00  0.00    -0.242 N 
HETATM   25  C   UNL     1      29.088  43.405  54.052  1.00  0.00     0.272 A 
HETATM   26  H   UNL     1      29.135  42.047  52.520  1.00  0.00     0.192 HD
HETATM   27  O   UNL     1      29.910  42.836  54.763  1.00  0.00    -0.266 OA
HETATM   28  C   UNL     1      28.461  44.669  54.466  1.00  0.00     0.046 A 
HETATM   29  C   UNL     1      28.827  45.273  55.677  1.00  0.00     0.018 A 
HETATM   30  C   UNL     1      27.526  45.270  53.626  1.00  0.00     0.011 A 
HETATM   31  C   UNL     1      28.264  46.496  56.039  1.00  0.00     0.001 A 
HETATM   32  C   UNL     1      27.350  47.118  55.190  1.00  0.00     0.001 A 
HETATM   33  C   UNL     1      26.985  46.514  53.982  1.00  0.00     0.015 A 
ENDBRANCH   4  22
TORSDOF 5
ENDMDL
MODEL 10
REMARK VINA RESULT:      -8.5      3.863      5.019
REMARK  5 active torsions:
REMARK  status: ('A' for Active; 'I' for Inactive)
REMARK    1  A    between atoms: C_2  and  O_3 
REMARK    2  A    between atoms: O_3  and  C_4 
REMARK       I    between atoms: N_10  and  C_11 
REMARK    3  A    between atoms: C_11  and  C_13 
REMARK    4  A    between atoms: C_13  and  C_14 
REMARK    5  A    between atoms: C_17  and  C_20 
ROOT
HETATM    1  C   UNL     1      20.863  45.921  47.060  1.00  0.00    -0.049 A 
HETATM    2  C   UNL     1      20.783  45.446  48.378  1.00  0.00     0.008 A 
HETATM    3  C   UNL     1      21.695  44.498  48.845  1.00  0.00     0.014 A 
HETATM    4  C   UNL     1      22.707  44.038  47.998  1.00  0.00    -0.005 A 
HETATM    5  C   UNL     1      22.781  44.479  46.676  1.00  0.00     0.014 A 
HETATM    6  C   UNL     1      21.865  45.422  46.211  1.00  0.00     0.008 A 
ENDROOT
BRANCH   1   7
HETATM    7  C   UNL     1      19.894  46.975  46.562  1.00  0.00     0.141 C 
BRANCH   7   8
HETATM    8  C   UNL     1      18.936  47.493  47.622  1.00  0.00     0.228 C 
HETATM    9  N   UNL     1      19.361  48.481  48.494  1.00  0.00    -0.317 N 
HETATM   10  C   UNL     1      18.427  48.946  49.531  1.00  0.00     0.137 A 
HETATM   11  C   UNL     1      20.559  49.215  48.605  1.00  0.00     0.046 A 
HETATM   12  C   UNL     1      19.141  50.002  50.372  1.00  0.00     0.061 A 
HETATM   13  C   UNL     1      20.458  50.110  49.674  1.00  0.00    -0.029 A 
HETATM   14  C   UNL     1      21.493  50.971  50.011  1.00  0.00     0.012 A 
HETATM   15  C   UNL     1      22.662  50.938  49.253  1.00  0.00     0.037 A 
HETATM   16  C   UNL     1      22.780  50.050  48.176  1.00  0.00     0.070 A 
HETATM   17  C   UNL     1      21.723  49.182  47.856  1.00  0.00     0.067 A 
HETATM   18  O   UNL     1      17.787  47.043  47.718  1.00  0.00    -0.273 OA
BRANCH  16  19
HETATM   19  O   UNL     1      23.874  49.928  47.359  1.00  0.00    -0.351 OA
BRANCH  19  20
HETATM   20  C   UNL     1      25.154  50.168  47.942  1.00  0.00     0.171 C 
HETATM   21  C   UNL     1      25.486  48.992  48.842  1.00  0.00     0.034 C 
ENDBRANCH  19  20
ENDBRANCH  16  19
ENDBRANCH   7   8
ENDBRANCH   1   7
BRANCH   4  22
HETATM   22  C   UNL     1      23.700  43.051  48.485  1.00  0.00     0.098 A 
HETATM   23  N   UNL     1      23.420  41.794  48.299  1.00  0.00    -0.170 NA
HETATM   24  N   UNL     1      24.289  40.860  48.771  1.00  0.00    -0.242 N 
HETATM   25  C   UNL     1      25.441  41.110  49.476  1.00  0.00     0.272 A 
HETATM   26  H   UNL     1      24.029  39.890  48.630  1.00  0.00     0.192 HD
HETATM   27  O   UNL     1      26.150  40.212  49.916  1.00  0.00    -0.266 OA
HETATM   28  C   UNL     1      25.793  42.526  49.660  1.00  0.00     0.046 A 
HETATM   29  C   UNL     1      26.981  42.876  50.316  1.00  0.00     0.018 A 
HETATM   30  C   UNL     1      24.948  43.509  49.149  1.00  0.00     0.011 A 
HETATM   31  C   UNL     1      27.332  44.219  50.445  1.00  0.00     0.001 A 
HETATM   32  C   UNL     1      26.506  45.206  49.910  1.00  0.00     0.001 A 
HETATM   33  C   UNL     1      25.320  44.856  49.256  1.00  0.00     0.015 A 
ENDBRANCH   4  22
TORSDOF 5
ENDMDL
