MODEL 1
REMARK VINA RESULT:      -8.7      0.000      0.000
REMARK  5 active torsions:
REMARK  status: ('A' for Active; 'I' for Inactive)
REMARK    1  A    between atoms: C_8  and  C_9 
REMARK    2  A    between atoms: N_10  and  N_11 
REMARK       I    between atoms: N_11  and  C_12 
REMARK    3  A    between atoms: C_12  and  C_13 
REMARK    4  A    between atoms: C_13  and  N_14 
REMARK    5  A    between atoms: N_14  and  C_15 
ROOT
HETATM    1  N   UNL     1      25.170  46.667  51.992  1.00  0.00    -0.246 N 
HETATM    2  C   UNL     1      25.246  47.339  50.772  1.00  0.00     0.255 C 
HETATM    3  O   UNL     1      26.153  48.093  50.426  1.00  0.00    -0.270 OA
HETATM    4  H   UNL     1      24.266  46.305  52.283  1.00  0.00     0.192 HD
ENDROOT
BRANCH   1   5
HETATM    5  N   UNL     1      26.080  46.770  53.020  1.00  0.00    -0.184 NA
HETATM    6  C   UNL     1      26.691  45.691  53.401  1.00  0.00     0.152 C 
BRANCH   6   7
HETATM    7  C   UNL     1      27.677  45.753  54.461  1.00  0.00     0.011 A 
HETATM    8  C   UNL     1      28.749  44.829  54.686  1.00  0.00     0.004 A 
HETATM    9  C   UNL     1      29.194  43.660  54.031  1.00  0.00     0.014 A 
HETATM   10  C   UNL     1      29.445  45.260  55.817  1.00  0.00     0.043 A 
HETATM   11  C   UNL     1      30.304  42.968  54.529  1.00  0.00     0.001 A 
HETATM   12  C   UNL     1      30.974  43.424  55.662  1.00  0.00     0.002 A 
HETATM   13  C   UNL     1      30.558  44.581  56.328  1.00  0.00     0.030 A 
HETATM   14  N   UNL     1      28.826  46.408  56.258  1.00  0.00    -0.364 N 
HETATM   15  H   UNL     1      29.122  46.944  57.063  1.00  0.00     0.165 HD
HETATM   16  C   UNL     1      27.764  46.714  55.453  1.00  0.00     0.102 A 
ENDBRANCH   6   7
ENDBRANCH   1   5
BRANCH   2  17
HETATM   17  C   UNL     1      24.065  47.021  49.854  1.00  0.00     0.224 C 
BRANCH  17  18
HETATM   18  N   UNL     1      23.915  48.028  48.802  1.00  0.00    -0.381 N 
HETATM   19  H   UNL     1      24.776  48.403  48.417  1.00  0.00     0.160 HD
BRANCH  18  20
HETATM   20  C   UNL     1      22.848  48.922  48.829  1.00  0.00     0.028 A 
HETATM   21  C   UNL     1      23.108  50.288  48.647  1.00  0.00     0.030 A 
HETATM   22  C   UNL     1      22.072  51.229  48.593  1.00  0.00     0.021 A 
HETATM   23  C   UNL     1      20.751  50.806  48.697  1.00  0.00     0.011 A 
HETATM   24 BR   UNL     1      19.346  52.065  48.611  1.00  0.00    -0.051 Br
HETATM   25  C   UNL     1      20.463  49.454  48.845  1.00  0.00     0.021 A 
HETATM   26  C   UNL     1      21.507  48.522  48.901  1.00  0.00     0.030 A 
ENDBRANCH  18  20
ENDBRANCH  17  18
ENDBRANCH   2  17
TORSDOF 5
ENDMDL
MODEL 2
REMARK VINA RESULT:      -8.6      1.067      1.572
REMARK  5 active torsions:
REMARK  status: ('A' for Active; 'I' for Inactive)
REMARK    1  A    between atoms: C_8  and  C_9 
REMARK    2  A    between atoms: N_10  and  N_11 
REMARK       I    between atoms: N_11  and  C_12 
REMARK    3  A    between atoms: C_12  and  C_13 
REMARK    4  A    between atoms: C_13  and  N_14 
REMARK    5  A    between atoms: N_14  and  C_15 
ROOT
HETATM    1  N   UNL     1      24.423  47.124  51.190  1.00  0.00    -0.246 N 
HETATM    2  C   UNL     1      24.441  47.800  49.970  1.00  0.00     0.255 C 
HETATM    3  O   UNL     1      25.301  48.599  49.608  1.00  0.00    -0.270 OA
HETATM    4  H   UNL     1      23.545  46.716  51.498  1.00  0.00     0.192 HD
ENDROOT
BRANCH   1   5
HETATM    5  N   UNL     1      25.347  47.273  52.200  1.00  0.00    -0.184 NA
HETATM    6  C   UNL     1      25.767  46.204  52.801  1.00  0.00     0.152 C 
BRANCH   6   7
HETATM    7  C   UNL     1      26.760  46.306  53.852  1.00  0.00     0.011 A 
HETATM    8  C   UNL     1      27.803  45.365  54.138  1.00  0.00     0.004 A 
HETATM    9  C   UNL     1      28.208  44.140  53.564  1.00  0.00     0.014 A 
HETATM   10  C   UNL     1      28.517  45.850  55.235  1.00  0.00     0.043 A 
HETATM   11  C   UNL     1      29.297  43.449  54.105  1.00  0.00     0.001 A 
HETATM   12  C   UNL     1      29.985  43.959  55.203  1.00  0.00     0.002 A 
HETATM   13  C   UNL     1      29.609  45.171  55.789  1.00  0.00     0.030 A 
HETATM   14  N   UNL     1      27.937  47.044  55.598  1.00  0.00    -0.364 N 
HETATM   15  H   UNL     1      28.253  47.624  56.363  1.00  0.00     0.165 HD
HETATM   16  C   UNL     1      26.881  47.329  54.776  1.00  0.00     0.102 A 
ENDBRANCH   6   7
ENDBRANCH   1   5
BRANCH   2  17
HETATM   17  C   UNL     1      23.259  47.423  49.075  1.00  0.00     0.224 C 
BRANCH  17  18
HETATM   18  N   UNL     1      22.900  48.516  48.170  1.00  0.00    -0.381 N 
HETATM   19  H   UNL     1      23.671  48.977  47.699  1.00  0.00     0.160 HD
BRANCH  18  20
HETATM   20  C   UNL     1      21.812  49.338  48.454  1.00  0.00     0.028 A 
HETATM   21  C   UNL     1      20.775  48.833  49.252  1.00  0.00     0.030 A 
HETATM   22  C   UNL     1      19.690  49.632  49.632  1.00  0.00     0.021 A 
HETATM   23  C   UNL     1      19.642  50.964  49.234  1.00  0.00     0.011 A 
HETATM   24 BR   UNL     1      18.190  52.054  49.753  1.00  0.00    -0.051 Br
HETATM   25  C   UNL     1      20.673  51.499  48.470  1.00  0.00     0.021 A 
HETATM   26  C   UNL     1      21.752  50.691  48.093  1.00  0.00     0.030 A 
ENDBRANCH  18  20
ENDBRANCH  17  18
ENDBRANCH   2  17
TORSDOF 5
ENDMDL
MODEL 3
REMARK VINA RESULT:      -8.6      3.881      9.328
REMARK  5 active torsions:
REMARK  status: ('A' for Active; 'I' for Inactive)
REMARK    1  A    between atoms: C_8  and  C_9 
REMARK    2  A    between atoms: N_10  and  N_11 
REMARK       I    between atoms: N_11  and  C_12 
REMARK    3  A    between atoms: C_12  and  C_13 
REMARK    4  A    between atoms: C_13  and  N_14 
REMARK    5  A    between atoms: N_14  and  C_15 
ROOT
HETATM    1  N   UNL     1      26.959  44.988  50.628  1.00  0.00    -0.246 N 
HETATM    2  C   UNL     1      26.124  44.258  51.476  1.00  0.00     0.255 C 
HETATM    3  O   UNL     1      24.907  44.397  51.575  1.00  0.00    -0.270 OA
HETATM    4  H   UNL     1      27.956  44.992  50.826  1.00  0.00     0.192 HD
ENDROOT
BRANCH   1   5
HETATM    5  N   UNL     1      26.556  46.006  49.793  1.00  0.00    -0.184 NA
HETATM    6  C   UNL     1      26.518  47.209  50.277  1.00  0.00     0.152 C 
BRANCH   6   7
HETATM    7  C   UNL     1      26.126  48.318  49.430  1.00  0.00     0.011 A 
HETATM    8  C   UNL     1      24.788  48.733  49.129  1.00  0.00     0.004 A 
HETATM    9  C   UNL     1      23.507  48.275  49.508  1.00  0.00     0.014 A 
HETATM   10  C   UNL     1      24.872  49.830  48.270  1.00  0.00     0.043 A 
HETATM   11  C   UNL     1      22.368  48.921  49.015  1.00  0.00     0.001 A 
HETATM   12  C   UNL     1      22.487  50.011  48.157  1.00  0.00     0.002 A 
HETATM   13  C   UNL     1      23.742  50.488  47.768  1.00  0.00     0.030 A 
HETATM   14  N   UNL     1      26.209  50.079  48.063  1.00  0.00    -0.364 N 
HETATM   15  H   UNL     1      26.569  50.825  47.483  1.00  0.00     0.165 HD
HETATM   16  C   UNL     1      26.972  49.178  48.754  1.00  0.00     0.102 A 
ENDBRANCH   6   7
ENDBRANCH   1   5
BRANCH   2  17
HETATM   17  C   UNL     1      26.887  43.210  52.287  1.00  0.00     0.224 C 
BRANCH  17  18
HETATM   18  N   UNL     1      28.281  43.604  52.499  1.00  0.00    -0.381 N 
HETATM   19  H   UNL     1      28.979  43.064  51.998  1.00  0.00     0.160 HD
BRANCH  18  20
HETATM   20  C   UNL     1      28.695  44.090  53.737  1.00  0.00     0.028 A 
HETATM   21  C   UNL     1      29.829  43.525  54.339  1.00  0.00     0.030 A 
HETATM   22  C   UNL     1      30.337  44.016  55.547  1.00  0.00     0.021 A 
HETATM   23  C   UNL     1      29.726  45.106  56.159  1.00  0.00     0.011 A 
HETATM   24 BR   UNL     1      30.412  45.786  57.782  1.00  0.00    -0.051 Br
HETATM   25  C   UNL     1      28.621  45.706  55.568  1.00  0.00     0.021 A 
HETATM   26  C   UNL     1      28.119  45.205  54.361  1.00  0.00     0.030 A 
ENDBRANCH  18  20
ENDBRANCH  17  18
ENDBRANCH   2  17
TORSDOF 5
ENDMDL
MODEL 4
REMARK VINA RESULT:      -8.3      1.482      2.041
REMARK  5 active torsions:
REMARK  status: ('A' for Active; 'I' for Inactive)
REMARK    1  A    between atoms: C_8  and  C_9 
REMARK    2  A    between atoms: N_10  and  N_11 
REMARK       I    between atoms: N_11  and  C_12 
REMARK    3  A    between atoms: C_12  and  C_13 
REMARK    4  A    between atoms: C_13  and  N_14 
REMARK    5  A    between atoms: N_14  and  C_15 
ROOT
HETATM    1  N   UNL     1      25.699  45.621  51.256  1.00  0.00    -0.246 N 
HETATM    2  C   UNL     1      25.665  46.285  50.029  1.00  0.00     0.255 C 
HETATM    3  O   UNL     1      26.598  46.367  49.233  1.00  0.00    -0.270 OA
HETATM    4  H   UNL     1      24.987  45.849  51.943  1.00  0.00     0.192 HD
ENDROOT
BRANCH   1   5
HETATM    5  N   UNL     1      26.797  44.983  51.788  1.00  0.00    -0.184 NA
HETATM    6  C   UNL     1      26.638  44.321  52.892  1.00  0.00     0.152 C 
BRANCH   6   7
HETATM    7  C   UNL     1      27.757  43.610  53.478  1.00  0.00     0.011 A 
HETATM    8  C   UNL     1      28.696  44.128  54.429  1.00  0.00     0.004 A 
HETATM    9  C   UNL     1      28.854  45.373  55.078  1.00  0.00     0.014 A 
HETATM   10  C   UNL     1      29.611  43.113  54.712  1.00  0.00     0.043 A 
HETATM   11  C   UNL     1      29.914  45.556  55.973  1.00  0.00     0.001 A 
HETATM   12  C   UNL     1      30.811  44.522  56.230  1.00  0.00     0.002 A 
HETATM   13  C   UNL     1      30.676  43.279  55.605  1.00  0.00     0.030 A 
HETATM   14  N   UNL     1      29.238  42.016  53.969  1.00  0.00    -0.364 N 
HETATM   15  H   UNL     1      29.721  41.127  53.980  1.00  0.00     0.165 HD
HETATM   16  C   UNL     1      28.127  42.302  53.225  1.00  0.00     0.102 A 
ENDBRANCH   6   7
ENDBRANCH   1   5
BRANCH   2  17
HETATM   17  C   UNL     1      24.298  46.906  49.739  1.00  0.00     0.224 C 
BRANCH  17  18
HETATM   18  N   UNL     1      24.423  48.290  49.278  1.00  0.00    -0.381 N 
HETATM   19  H   UNL     1      25.267  48.779  49.557  1.00  0.00     0.160 HD
BRANCH  18  20
HETATM   20  C   UNL     1      23.294  49.097  49.153  1.00  0.00     0.028 A 
HETATM   21  C   UNL     1      23.466  50.458  48.861  1.00  0.00     0.030 A 
HETATM   22  C   UNL     1      22.372  51.305  48.654  1.00  0.00     0.021 A 
HETATM   23  C   UNL     1      21.081  50.790  48.711  1.00  0.00     0.011 A 
HETATM   24 BR   UNL     1      19.597  51.922  48.419  1.00  0.00    -0.051 Br
HETATM   25  C   UNL     1      20.882  49.438  48.966  1.00  0.00     0.021 A 
HETATM   26  C   UNL     1      21.984  48.600  49.175  1.00  0.00     0.030 A 
ENDBRANCH  18  20
ENDBRANCH  17  18
ENDBRANCH   2  17
TORSDOF 5
ENDMDL
MODEL 5
REMARK VINA RESULT:      -8.2      1.996      3.127
REMARK  5 active torsions:
REMARK  status: ('A' for Active; 'I' for Inactive)
REMARK    1  A    between atoms: C_8  and  C_9 
REMARK    2  A    between atoms: N_10  and  N_11 
REMARK       I    between atoms: N_11  and  C_12 
REMARK    3  A    between atoms: C_12  and  C_13 
REMARK    4  A    between atoms: C_13  and  N_14 
REMARK    5  A    between atoms: N_14  and  C_15 
ROOT
HETATM    1  N   UNL     1      23.884  46.861  49.616  1.00  0.00    -0.246 N 
HETATM    2  C   UNL     1      24.091  48.212  49.334  1.00  0.00     0.255 C 
HETATM    3  O   UNL     1      25.131  48.833  49.539  1.00  0.00    -0.270 OA
HETATM    4  H   UNL     1      22.926  46.525  49.671  1.00  0.00     0.192 HD
ENDROOT
BRANCH   1   5
HETATM    5  N   UNL     1      24.800  46.017  50.204  1.00  0.00    -0.184 NA
HETATM    6  C   UNL     1      24.609  45.682  51.442  1.00  0.00     0.152 C 
BRANCH   6   7
HETATM    7  C   UNL     1      25.531  44.775  52.097  1.00  0.00     0.011 A 
HETATM    8  C   UNL     1      26.478  45.110  53.119  1.00  0.00     0.004 A 
HETATM    9  C   UNL     1      26.818  46.304  53.793  1.00  0.00     0.014 A 
HETATM   10  C   UNL     1      27.165  43.942  53.454  1.00  0.00     0.043 A 
HETATM   11  C   UNL     1      27.826  46.287  54.763  1.00  0.00     0.001 A 
HETATM   12  C   UNL     1      28.494  45.105  55.071  1.00  0.00     0.002 A 
HETATM   13  C   UNL     1      28.176  43.908  54.423  1.00  0.00     0.030 A 
HETATM   14  N   UNL     1      26.650  42.933  52.673  1.00  0.00    -0.364 N 
HETATM   15  H   UNL     1      26.957  41.970  52.707  1.00  0.00     0.165 HD
HETATM   16  C   UNL     1      25.668  43.421  51.854  1.00  0.00     0.102 A 
ENDBRANCH   6   7
ENDBRANCH   1   5
BRANCH   2  17
HETATM   17  C   UNL     1      22.867  48.870  48.697  1.00  0.00     0.224 C 
BRANCH  17  18
HETATM   18  N   UNL     1      21.639  48.536  49.421  1.00  0.00    -0.381 N 
HETATM   19  H   UNL     1      21.322  47.575  49.341  1.00  0.00     0.160 HD
BRANCH  18  20
HETATM   20  C   UNL     1      20.622  49.478  49.559  1.00  0.00     0.028 A 
HETATM   21  C   UNL     1      20.793  50.744  48.980  1.00  0.00     0.030 A 
HETATM   22  C   UNL     1      19.780  51.710  49.023  1.00  0.00     0.021 A 
HETATM   23  C   UNL     1      18.565  51.408  49.628  1.00  0.00     0.011 A 
HETATM   24 BR   UNL     1      17.187  52.699  49.679  1.00  0.00    -0.051 Br
HETATM   25  C   UNL     1      18.357  50.149  50.181  1.00  0.00     0.021 A 
HETATM   26  C   UNL     1      19.378  49.192  50.136  1.00  0.00     0.030 A 
ENDBRANCH  18  20
ENDBRANCH  17  18
ENDBRANCH   2  17
TORSDOF 5
ENDMDL
MODEL 6
REMARK VINA RESULT:      -8.0      3.542      9.387
REMARK  5 active torsions:
REMARK  status: ('A' for Active; 'I' for Inactive)
REMARK    1  A    between atoms: C_8  and  C_9 
REMARK    2  A    between atoms: N_10  and  N_11 
REMARK       I    between atoms: N_11  and  C_12 
REMARK    3  A    between atoms: C_12  and  C_13 
REMARK    4  A    between atoms: C_13  and  N_14 
REMARK    5  A    between atoms: N_14  and  C_15 
ROOT
HETATM    1  N   UNL     1      26.443  47.331  52.917  1.00  0.00    -0.246 N 
HETATM    2  C   UNL     1      26.517  47.760  54.243  1.00  0.00     0.255 C 
HETATM    3  O   UNL     1      25.591  48.240  54.893  1.00  0.00    -0.270 OA
HETATM    4  H   UNL     1      27.311  47.219  52.401  1.00  0.00     0.192 HD
ENDROOT
BRANCH   1   5
HETATM    5  N   UNL     1      25.328  47.411  52.113  1.00  0.00    -0.184 NA
HETATM    6  C   UNL     1      25.460  47.104  50.860  1.00  0.00     0.152 C 
BRANCH   6   7
HETATM    7  C   UNL     1      24.310  47.147  49.978  1.00  0.00     0.011 A 
HETATM    8  C   UNL     1      23.824  48.289  49.263  1.00  0.00     0.004 A 
HETATM    9  C   UNL     1      24.241  49.634  49.156  1.00  0.00     0.014 A 
HETATM   10  C   UNL     1      22.694  47.887  48.548  1.00  0.00     0.043 A 
HETATM   11  C   UNL     1      23.517  50.520  48.351  1.00  0.00     0.001 A 
HETATM   12  C   UNL     1      22.392  50.087  47.654  1.00  0.00     0.002 A 
HETATM   13  C   UNL     1      21.959  48.761  47.738  1.00  0.00     0.030 A 
HETATM   14  N   UNL     1      22.505  46.550  48.812  1.00  0.00    -0.364 N 
HETATM   15  H   UNL     1      21.759  45.990  48.421  1.00  0.00     0.165 HD
HETATM   16  C   UNL     1      23.469  46.094  49.669  1.00  0.00     0.102 A 
ENDBRANCH   6   7
ENDBRANCH   1   5
BRANCH   2  17
HETATM   17  C   UNL     1      27.905  47.548  54.849  1.00  0.00     0.224 C 
BRANCH  17  18
HETATM   18  N   UNL     1      27.933  46.383  55.734  1.00  0.00    -0.381 N 
HETATM   19  H   UNL     1      28.327  46.533  56.657  1.00  0.00     0.160 HD
BRANCH  18  20
HETATM   20  C   UNL     1      28.131  45.106  55.214  1.00  0.00     0.028 A 
HETATM   21  C   UNL     1      27.010  44.339  54.863  1.00  0.00     0.030 A 
HETATM   22  C   UNL     1      27.144  43.078  54.270  1.00  0.00     0.021 A 
HETATM   23  C   UNL     1      28.412  42.576  53.996  1.00  0.00     0.011 A 
HETATM   24 BR   UNL     1      28.603  40.882  53.183  1.00  0.00    -0.051 Br
HETATM   25  C   UNL     1      29.539  43.330  54.303  1.00  0.00     0.021 A 
HETATM   26  C   UNL     1      29.395  44.588  54.899  1.00  0.00     0.030 A 
ENDBRANCH  18  20
ENDBRANCH  17  18
ENDBRANCH   2  17
TORSDOF 5
ENDMDL
MODEL 7
REMARK VINA RESULT:      -7.9      3.744     10.228
REMARK  5 active torsions:
REMARK  status: ('A' for Active; 'I' for Inactive)
REMARK    1  A    between atoms: C_8  and  C_9 
REMARK    2  A    between atoms: N_10  and  N_11 
REMARK       I    between atoms: N_11  and  C_12 
REMARK    3  A    between atoms: C_12  and  C_13 
REMARK    4  A    between atoms: C_13  and  N_14 
REMARK    5  A    between atoms: N_14  and  C_15 
ROOT
HETATM    1  N   UNL     1      24.785  46.993  50.404  1.00  0.00    -0.246 N 
HETATM    2  C   UNL     1      25.672  46.764  51.457  1.00  0.00     0.255 C 
HETATM    3  O   UNL     1      26.066  47.609  52.257  1.00  0.00    -0.270 OA
HETATM    4  H   UNL     1      24.748  46.311  49.652  1.00  0.00     0.192 HD
ENDROOT
BRANCH   1   5
HETATM    5  N   UNL     1      24.237  48.213  50.072  1.00  0.00    -0.184 NA
HETATM    6  C   UNL     1      23.204  48.221  49.289  1.00  0.00     0.152 C 
BRANCH   6   7
HETATM    7  C   UNL     1      22.575  49.478  48.932  1.00  0.00     0.011 A 
HETATM    8  C   UNL     1      21.228  49.872  49.220  1.00  0.00     0.004 A 
HETATM    9  C   UNL     1      20.145  49.260  49.888  1.00  0.00     0.014 A 
HETATM   10  C   UNL     1      21.041  51.148  48.686  1.00  0.00     0.043 A 
HETATM   11  C   UNL     1      18.925  49.937  49.992  1.00  0.00     0.001 A 
HETATM   12  C   UNL     1      18.771  51.208  49.444  1.00  0.00     0.002 A 
HETATM   13  C   UNL     1      19.827  51.840  48.781  1.00  0.00     0.030 A 
HETATM   14  N   UNL     1      22.231  51.520  48.102  1.00  0.00    -0.364 N 
HETATM   15  H   UNL     1      22.389  52.404  47.640  1.00  0.00     0.165 HD
HETATM   16  C   UNL     1      23.160  50.525  48.244  1.00  0.00     0.102 A 
ENDBRANCH   6   7
ENDBRANCH   1   5
BRANCH   2  17
HETATM   17  C   UNL     1      26.109  45.301  51.544  1.00  0.00     0.224 C 
BRANCH  17  18
HETATM   18  N   UNL     1      25.965  44.778  52.904  1.00  0.00    -0.381 N 
HETATM   19  H   UNL     1      25.162  45.110  53.428  1.00  0.00     0.160 HD
BRANCH  18  20
HETATM   20  C   UNL     1      27.091  44.498  53.675  1.00  0.00     0.028 A 
HETATM   21  C   UNL     1      27.659  43.218  53.601  1.00  0.00     0.030 A 
HETATM   22  C   UNL     1      28.831  42.896  54.295  1.00  0.00     0.021 A 
HETATM   23  C   UNL     1      29.468  43.869  55.059  1.00  0.00     0.011 A 
HETATM   24 BR   UNL     1      31.058  43.450  55.989  1.00  0.00    -0.051 Br
HETATM   25  C   UNL     1      28.946  45.156  55.123  1.00  0.00     0.021 A 
HETATM   26  C   UNL     1      27.771  45.466  54.427  1.00  0.00     0.030 A 
ENDBRANCH  18  20
ENDBRANCH  17  18
ENDBRANCH   2  17
TORSDOF 5
ENDMDL
MODEL 8
REMARK VINA RESULT:      -7.8      4.676      5.620
REMARK  5 active torsions:
REMARK  status: ('A' for Active; 'I' for Inactive)
REMARK    1  A    between atoms: C_8  and  C_9 
REMARK    2  A    between atoms: N_10  and  N_11 
REMARK       I    between atoms: N_11  and  C_12 
REMARK    3  A    between atoms: C_12  and  C_13 
REMARK    4  A    between atoms: C_13  and  N_14 
REMARK    5  A    between atoms: N_14  and  C_15 
ROOT
HETATM    1  N   UNL     1      27.463  42.365  52.515  1.00  0.00    -0.246 N 
HETATM    2  C   UNL     1      28.115  41.236  52.018  1.00  0.00     0.255 C 
HETATM    3  O   UNL     1      29.040  40.644  52.570  1.00  0.00    -0.270 OA
HETATM    4  H   UNL     1      26.920  42.928  51.866  1.00  0.00     0.192 HD
ENDROOT
BRANCH   1   5
HETATM    5  N   UNL     1      27.778  43.020  53.684  1.00  0.00    -0.184 NA
HETATM    6  C   UNL     1      28.535  44.071  53.607  1.00  0.00     0.152 C 
BRANCH   6   7
HETATM    7  C   UNL     1      28.873  44.810  54.807  1.00  0.00     0.011 A 
HETATM    8  C   UNL     1      29.881  44.468  55.766  1.00  0.00     0.004 A 
HETATM    9  C   UNL     1      30.815  43.415  55.879  1.00  0.00     0.014 A 
HETATM   10  C   UNL     1      29.859  45.444  56.764  1.00  0.00     0.043 A 
HETATM   11  C   UNL     1      31.680  43.373  56.978  1.00  0.00     0.001 A 
HETATM   12  C   UNL     1      31.629  44.360  57.958  1.00  0.00     0.002 A 
HETATM   13  C   UNL     1      30.718  45.417  57.870  1.00  0.00     0.030 A 
HETATM   14  N   UNL     1      28.881  46.349  56.422  1.00  0.00    -0.364 N 
HETATM   15  H   UNL     1      28.646  47.169  56.964  1.00  0.00     0.165 HD
HETATM   16  C   UNL     1      28.282  45.980  55.249  1.00  0.00     0.102 A 
ENDBRANCH   6   7
ENDBRANCH   1   5
BRANCH   2  17
HETATM   17  C   UNL     1      27.534  40.764  50.685  1.00  0.00     0.224 C 
BRANCH  17  18
HETATM   18  N   UNL     1      27.501  41.847  49.700  1.00  0.00    -0.381 N 
HETATM   19  H   UNL     1      28.321  42.443  49.665  1.00  0.00     0.160 HD
BRANCH  18  20
HETATM   20  C   UNL     1      26.301  42.484  49.392  1.00  0.00     0.028 A 
HETATM   21  C   UNL     1      25.161  41.701  49.163  1.00  0.00     0.030 A 
HETATM   22  C   UNL     1      23.911  42.282  48.919  1.00  0.00     0.021 A 
HETATM   23  C   UNL     1      23.782  43.667  48.927  1.00  0.00     0.011 A 
HETATM   24 BR   UNL     1      22.098  44.462  48.613  1.00  0.00    -0.051 Br
HETATM   25  C   UNL     1      24.889  44.467  49.184  1.00  0.00     0.021 A 
HETATM   26  C   UNL     1      26.135  43.876  49.423  1.00  0.00     0.030 A 
ENDBRANCH  18  20
ENDBRANCH  17  18
ENDBRANCH   2  17
TORSDOF 5
ENDMDL
MODEL 9
REMARK VINA RESULT:      -7.8      4.091     10.004
REMARK  5 active torsions:
REMARK  status: ('A' for Active; 'I' for Inactive)
REMARK    1  A    between atoms: C_8  and  C_9 
REMARK    2  A    between atoms: N_10  and  N_11 
REMARK       I    between atoms: N_11  and  C_12 
REMARK    3  A    between atoms: C_12  and  C_13 
REMARK    4  A    between atoms: C_13  and  N_14 
REMARK    5  A    between atoms: N_14  and  C_15 
ROOT
HETATM    1  N   UNL     1      25.162  44.896  50.543  1.00  0.00    -0.246 N 
HETATM    2  C   UNL     1      25.215  43.647  51.163  1.00  0.00     0.255 C 
HETATM    3  O   UNL     1      24.244  42.956  51.464  1.00  0.00    -0.270 OA
HETATM    4  H   UNL     1      25.983  45.492  50.596  1.00  0.00     0.192 HD
ENDROOT
BRANCH   1   5
HETATM    5  N   UNL     1      24.011  45.571  50.204  1.00  0.00    -0.184 NA
HETATM    6  C   UNL     1      24.076  46.436  49.239  1.00  0.00     0.152 C 
BRANCH   6   7
HETATM    7  C   UNL     1      22.885  47.153  48.827  1.00  0.00     0.011 A 
HETATM    8  C   UNL     1      22.728  48.575  48.750  1.00  0.00     0.004 A 
HETATM    9  C   UNL     1      23.576  49.674  49.007  1.00  0.00     0.014 A 
HETATM   10  C   UNL     1      21.424  48.830  48.321  1.00  0.00     0.043 A 
HETATM   11  C   UNL     1      23.093  50.976  48.833  1.00  0.00     0.001 A 
HETATM   12  C   UNL     1      21.785  51.196  48.407  1.00  0.00     0.002 A 
HETATM   13  C   UNL     1      20.925  50.126  48.141  1.00  0.00     0.030 A 
HETATM   14  N   UNL     1      20.814  47.611  48.135  1.00  0.00    -0.364 N 
HETATM   15  H   UNL     1      19.861  47.490  47.819  1.00  0.00     0.165 HD
HETATM   16  C   UNL     1      21.681  46.596  48.436  1.00  0.00     0.102 A 
ENDBRANCH   6   7
ENDBRANCH   1   5
BRANCH   2  17
HETATM   17  C   UNL     1      26.649  43.184  51.421  1.00  0.00     0.224 C 
BRANCH  17  18
HETATM   18  N   UNL     1      27.485  44.276  51.924  1.00  0.00    -0.381 N 
HETATM   19  H   UNL     1      27.853  44.914  51.226  1.00  0.00     0.160 HD
BRANCH  18  20
HETATM   20  C   UNL     1      28.307  44.082  53.032  1.00  0.00     0.028 A 
HETATM   21  C   UNL     1      29.364  43.166  52.935  1.00  0.00     0.030 A 
HETATM   22  C   UNL     1      30.268  42.978  53.987  1.00  0.00     0.021 A 
HETATM   23  C   UNL     1      30.137  43.731  55.150  1.00  0.00     0.011 A 
HETATM   24 BR   UNL     1      31.360  43.496  56.571  1.00  0.00    -0.051 Br
HETATM   25  C   UNL     1      29.118  44.670  55.260  1.00  0.00     0.021 A 
HETATM   26  C   UNL     1      28.218  44.847  54.203  1.00  0.00     0.030 A 
ENDBRANCH  18  20
ENDBRANCH  17  18
ENDBRANCH   2  17
TORSDOF 5
ENDMDL
MODEL 10
REMARK VINA RESULT:      -7.8      2.328      3.133
REMARK  5 active torsions:
REMARK  status: ('A' for Active; 'I' for Inactive)
REMARK    1  A    between atoms: C_8  and  C_9 
REMARK    2  A    between atoms: N_10  and  N_11 
REMARK       I    between atoms: N_11  and  C_12 
REMARK    3  A    between atoms: C_12  and  C_13 
REMARK    4  A    between atoms: C_13  and  N_14 
REMARK    5  A    between atoms: N_14  and  C_15 
ROOT
HETATM    1  N   UNL     1      25.797  46.241  49.570  1.00  0.00    -0.246 N 
HETATM    2  C   UNL     1      25.330  47.362  50.257  1.00  0.00     0.255 C 
HETATM    3  O   UNL     1      25.462  47.570  51.461  1.00  0.00    -0.270 OA
HETATM    4  H   UNL     1      25.397  46.037  48.658  1.00  0.00     0.192 HD
ENDROOT
BRANCH   1   5
HETATM    5  N   UNL     1      26.448  45.169  50.140  1.00  0.00    -0.184 NA
HETATM    6  C   UNL     1      25.726  44.232  50.672  1.00  0.00     0.152 C 
BRANCH   6   7
HETATM    7  C   UNL     1      26.364  43.071  51.260  1.00  0.00     0.011 A 
HETATM    8  C   UNL     1      27.372  43.075  52.279  1.00  0.00     0.004 A 
HETATM    9  C   UNL     1      28.031  44.088  53.008  1.00  0.00     0.014 A 
HETATM   10  C   UNL     1      27.711  41.746  52.538  1.00  0.00     0.043 A 
HETATM   11  C   UNL     1      28.999  43.740  53.957  1.00  0.00     0.001 A 
HETATM   12  C   UNL     1      29.316  42.404  54.188  1.00  0.00     0.002 A 
HETATM   13  C   UNL     1      28.676  41.380  53.484  1.00  0.00     0.030 A 
HETATM   14  N   UNL     1      26.933  40.963  51.715  1.00  0.00    -0.364 N 
HETATM   15  H   UNL     1      26.962  39.953  51.692  1.00  0.00     0.165 HD
HETATM   16  C   UNL     1      26.121  41.747  50.943  1.00  0.00     0.102 A 
ENDBRANCH   6   7
ENDBRANCH   1   5
BRANCH   2  17
HETATM   17  C   UNL     1      24.632  48.363  49.335  1.00  0.00     0.224 C 
BRANCH  17  18
HETATM   18  N   UNL     1      23.242  47.980  49.079  1.00  0.00    -0.381 N 
HETATM   19  H   UNL     1      23.104  47.187  48.461  1.00  0.00     0.160 HD
BRANCH  18  20
HETATM   20  C   UNL     1      22.243  48.949  49.019  1.00  0.00     0.028 A 
HETATM   21  C   UNL     1      22.602  50.269  48.708  1.00  0.00     0.030 A 
HETATM   22  C   UNL     1      21.638  51.274  48.563  1.00  0.00     0.021 A 
HETATM   23  C   UNL     1      20.290  50.960  48.704  1.00  0.00     0.011 A 
HETATM   24 BR   UNL     1      18.979  52.305  48.497  1.00  0.00    -0.051 Br
HETATM   25  C   UNL     1      19.904  49.653  48.980  1.00  0.00     0.021 A 
HETATM   26  C   UNL     1      20.877  48.657  49.126  1.00  0.00     0.030 A 
ENDBRANCH  18  20
ENDBRANCH  17  18
ENDBRANCH   2  17
TORSDOF 5
ENDMDL
