MODEL 1
REMARK VINA RESULT:      -9.6      0.000      0.000
REMARK  5 active torsions:
REMARK  status: ('A' for Active; 'I' for Inactive)
REMARK    1  A    between atoms: C_7  and  C_8 
REMARK    2  A    between atoms: C_10  and  N_11 
REMARK       I    between atoms: N_11  and  C_12 
REMARK    3  A    between atoms: C_12  and  C_13 
REMARK    4  A    between atoms: C_15  and  O_16 
REMARK    5  A    between atoms: C_19  and  O_20 
ROOT
HETATM    1  C   UNL     1      24.438  49.343  48.810  1.00  0.00     0.019 A 
HETATM    2  C   UNL     1      24.761  48.320  49.720  1.00  0.00     0.045 A 
HETATM    3  C   UNL     1      26.090  47.969  49.974  1.00  0.00     0.035 A 
HETATM    4  C   UNL     1      27.110  48.644  49.292  1.00  0.00     0.029 A 
HETATM    5  C   UNL     1      26.805  49.646  48.367  1.00  0.00     0.003 A 
HETATM    6  C   UNL     1      25.477  49.995  48.132  1.00  0.00     0.016 A 
ENDROOT
BRANCH   3   7
HETATM    7  N   UNL     1      26.483  46.986  50.914  1.00  0.00    -0.323 N 
HETATM    8  C   UNL     1      26.124  46.918  52.250  1.00  0.00     0.256 C 
HETATM    9  O   UNL     1      25.347  47.679  52.819  1.00  0.00    -0.267 OA
HETATM   10  H   UNL     1      27.118  46.290  50.554  1.00  0.00     0.169 HD
BRANCH   8  11
HETATM   11  C   UNL     1      26.751  45.828  53.067  1.00  0.00     0.037 A 
HETATM   12  C   UNL     1      27.333  46.204  54.290  1.00  0.00     0.054 A 
HETATM   13  C   UNL     1      27.934  45.253  55.111  1.00  0.00     0.071 A 
HETATM   14  C   UNL     1      27.970  43.924  54.694  1.00  0.00     0.073 A 
HETATM   15  C   UNL     1      27.390  43.528  53.486  1.00  0.00     0.071 A 
HETATM   16  C   UNL     1      26.766  44.480  52.677  1.00  0.00     0.054 A 
BRANCH  13  17
HETATM   17  O   UNL     1      28.521  45.496  56.323  1.00  0.00    -0.356 OA
HETATM   18  C   UNL     1      29.938  45.616  56.335  1.00  0.00     0.210 C 
ENDBRANCH  13  17
BRANCH  15  19
HETATM   19  O   UNL     1      27.491  42.190  53.222  1.00  0.00    -0.356 OA
HETATM   20  C   UNL     1      28.791  41.614  53.239  1.00  0.00     0.210 C 
ENDBRANCH  15  19
ENDBRANCH   8  11
ENDBRANCH   3   7
BRANCH   1  21
HETATM   21  C   UNL     1      23.054  49.764  48.590  1.00  0.00     0.181 A 
HETATM   22  O   UNL     1      22.423  50.374  49.645  1.00  0.00    -0.289 OA
HETATM   23  C   UNL     1      21.196  50.703  49.153  1.00  0.00     0.106 A 
HETATM   24  C   UNL     1      21.140  50.277  47.838  1.00  0.00     0.094 A 
HETATM   25  C   UNL     1      20.170  51.354  49.822  1.00  0.00     0.040 A 
HETATM   26  C   UNL     1      19.973  50.519  47.098  1.00  0.00     0.041 A 
HETATM   27  N   UNL     1      22.321  49.668  47.493  1.00  0.00    -0.221 NA
HETATM   28  C   UNL     1      18.909  51.200  47.723  1.00  0.00    -0.060 A 
HETATM   29  C   UNL     1      17.640  51.462  46.963  1.00  0.00     0.048 C 
HETATM   30  C   UNL     1      19.012  51.591  49.071  1.00  0.00     0.009 A 
ENDBRANCH   1  21
TORSDOF 5
ENDMDL
MODEL 2
REMARK VINA RESULT:      -9.4      1.870     10.071
REMARK  5 active torsions:
REMARK  status: ('A' for Active; 'I' for Inactive)
REMARK    1  A    between atoms: C_7  and  C_8 
REMARK    2  A    between atoms: C_10  and  N_11 
REMARK       I    between atoms: N_11  and  C_12 
REMARK    3  A    between atoms: C_12  and  C_13 
REMARK    4  A    between atoms: C_15  and  O_16 
REMARK    5  A    between atoms: C_19  and  O_20 
ROOT
HETATM    1  C   UNL     1      26.099  47.719  49.774  1.00  0.00     0.019 A 
HETATM    2  C   UNL     1      24.755  48.111  49.633  1.00  0.00     0.045 A 
HETATM    3  C   UNL     1      24.402  49.232  48.875  1.00  0.00     0.035 A 
HETATM    4  C   UNL     1      25.415  49.981  48.265  1.00  0.00     0.029 A 
HETATM    5  C   UNL     1      26.756  49.620  48.415  1.00  0.00     0.003 A 
HETATM    6  C   UNL     1      27.094  48.493  49.162  1.00  0.00     0.016 A 
ENDROOT
BRANCH   3   7
HETATM    7  N   UNL     1      23.067  49.649  48.653  1.00  0.00    -0.323 N 
HETATM    8  C   UNL     1      22.329  50.530  49.425  1.00  0.00     0.256 C 
HETATM    9  O   UNL     1      22.745  51.143  50.404  1.00  0.00    -0.267 OA
HETATM   10  H   UNL     1      22.619  49.218  47.859  1.00  0.00     0.169 HD
BRANCH   8  11
HETATM   11  C   UNL     1      20.897  50.738  49.036  1.00  0.00     0.037 A 
HETATM   12  C   UNL     1      20.583  50.616  47.670  1.00  0.00     0.054 A 
HETATM   13  C   UNL     1      19.276  50.791  47.224  1.00  0.00     0.071 A 
HETATM   14  C   UNL     1      18.282  51.111  48.147  1.00  0.00     0.073 A 
HETATM   15  C   UNL     1      18.570  51.228  49.509  1.00  0.00     0.071 A 
HETATM   16  C   UNL     1      19.878  51.027  49.957  1.00  0.00     0.054 A 
BRANCH  13  17
HETATM   17  O   UNL     1      18.851  50.688  45.928  1.00  0.00    -0.356 OA
HETATM   18  C   UNL     1      17.449  50.791  45.704  1.00  0.00     0.210 C 
ENDBRANCH  13  17
BRANCH  15  19
HETATM   19  O   UNL     1      17.489  51.529  50.292  1.00  0.00    -0.356 OA
HETATM   20  C   UNL     1      16.480  52.355  49.726  1.00  0.00     0.210 C 
ENDBRANCH  15  19
ENDBRANCH   8  11
ENDBRANCH   3   7
BRANCH   1  21
HETATM   21  C   UNL     1      26.471  46.509  50.506  1.00  0.00     0.181 A 
HETATM   22  O   UNL     1      26.203  46.499  51.852  1.00  0.00    -0.289 OA
HETATM   23  C   UNL     1      26.592  45.259  52.259  1.00  0.00     0.106 A 
HETATM   24  C   UNL     1      27.077  44.584  51.154  1.00  0.00     0.094 A 
HETATM   25  C   UNL     1      26.520  44.735  53.541  1.00  0.00     0.040 A 
HETATM   26  C   UNL     1      27.526  43.265  51.310  1.00  0.00     0.041 A 
HETATM   27  N   UNL     1      27.010  45.392  50.046  1.00  0.00    -0.221 NA
HETATM   28  C   UNL     1      27.452  42.675  52.589  1.00  0.00    -0.060 A 
HETATM   29  C   UNL     1      27.938  41.269  52.794  1.00  0.00     0.048 C 
HETATM   30  C   UNL     1      26.970  43.416  53.683  1.00  0.00     0.009 A 
ENDBRANCH   1  21
TORSDOF 5
ENDMDL
MODEL 3
REMARK VINA RESULT:      -9.3      1.879      9.904
REMARK  5 active torsions:
REMARK  status: ('A' for Active; 'I' for Inactive)
REMARK    1  A    between atoms: C_7  and  C_8 
REMARK    2  A    between atoms: C_10  and  N_11 
REMARK       I    between atoms: N_11  and  C_12 
REMARK    3  A    between atoms: C_12  and  C_13 
REMARK    4  A    between atoms: C_15  and  O_16 
REMARK    5  A    between atoms: C_19  and  O_20 
ROOT
HETATM    1  C   UNL     1      26.143  47.767  49.729  1.00  0.00     0.019 A 
HETATM    2  C   UNL     1      24.804  48.161  49.545  1.00  0.00     0.045 A 
HETATM    3  C   UNL     1      24.478  49.284  48.778  1.00  0.00     0.035 A 
HETATM    4  C   UNL     1      25.511  50.032  48.202  1.00  0.00     0.029 A 
HETATM    5  C   UNL     1      26.846  49.669  48.395  1.00  0.00     0.003 A 
HETATM    6  C   UNL     1      27.158  48.541  49.151  1.00  0.00     0.016 A 
ENDROOT
BRANCH   3   7
HETATM    7  N   UNL     1      23.152  49.702  48.513  1.00  0.00    -0.323 N 
HETATM    8  C   UNL     1      22.372  50.544  49.287  1.00  0.00     0.256 C 
HETATM    9  O   UNL     1      22.739  51.117  50.310  1.00  0.00    -0.267 OA
HETATM   10  H   UNL     1      22.744  49.303  47.681  1.00  0.00     0.169 HD
BRANCH   8  11
HETATM   11  C   UNL     1      20.958  50.761  48.842  1.00  0.00     0.037 A 
HETATM   12  C   UNL     1      20.050  51.230  49.808  1.00  0.00     0.054 A 
HETATM   13  C   UNL     1      18.717  51.461  49.476  1.00  0.00     0.071 A 
HETATM   14  C   UNL     1      18.287  51.200  48.176  1.00  0.00     0.073 A 
HETATM   15  C   UNL     1      19.175  50.742  47.199  1.00  0.00     0.071 A 
HETATM   16  C   UNL     1      20.517  50.536  47.529  1.00  0.00     0.054 A 
BRANCH  13  17
HETATM   17  O   UNL     1      17.748  51.924  50.323  1.00  0.00    -0.356 OA
HETATM   18  C   UNL     1      16.582  52.475  49.722  1.00  0.00     0.210 C 
ENDBRANCH  13  17
BRANCH  15  19
HETATM   19  O   UNL     1      18.610  50.548  45.968  1.00  0.00    -0.356 OA
HETATM   20  C   UNL     1      17.244  50.156  45.928  1.00  0.00     0.210 C 
ENDBRANCH  15  19
ENDBRANCH   8  11
ENDBRANCH   3   7
BRANCH   1  21
HETATM   21  C   UNL     1      26.490  46.556  50.472  1.00  0.00     0.181 A 
HETATM   22  O   UNL     1      26.191  46.550  51.812  1.00  0.00    -0.289 OA
HETATM   23  C   UNL     1      26.562  45.308  52.229  1.00  0.00     0.106 A 
HETATM   24  C   UNL     1      27.066  44.627  51.136  1.00  0.00     0.094 A 
HETATM   25  C   UNL     1      26.458  44.787  53.510  1.00  0.00     0.040 A 
HETATM   26  C   UNL     1      27.502  43.305  51.304  1.00  0.00     0.041 A 
HETATM   27  N   UNL     1      27.030  45.434  50.025  1.00  0.00    -0.221 NA
HETATM   28  C   UNL     1      27.395  42.718  52.581  1.00  0.00    -0.060 A 
HETATM   29  C   UNL     1      27.866  41.308  52.800  1.00  0.00     0.048 C 
HETATM   30  C   UNL     1      26.894  43.464  53.664  1.00  0.00     0.009 A 
ENDBRANCH   1  21
TORSDOF 5
ENDMDL
MODEL 4
REMARK VINA RESULT:      -9.3      1.294      2.408
REMARK  5 active torsions:
REMARK  status: ('A' for Active; 'I' for Inactive)
REMARK    1  A    between atoms: C_7  and  C_8 
REMARK    2  A    between atoms: C_10  and  N_11 
REMARK       I    between atoms: N_11  and  C_12 
REMARK    3  A    between atoms: C_12  and  C_13 
REMARK    4  A    between atoms: C_15  and  O_16 
REMARK    5  A    between atoms: C_19  and  O_20 
ROOT
HETATM    1  C   UNL     1      23.633  49.241  48.974  1.00  0.00     0.019 A 
HETATM    2  C   UNL     1      24.071  48.117  49.700  1.00  0.00     0.045 A 
HETATM    3  C   UNL     1      25.431  47.811  49.811  1.00  0.00     0.035 A 
HETATM    4  C   UNL     1      26.364  48.635  49.171  1.00  0.00     0.029 A 
HETATM    5  C   UNL     1      25.945  49.741  48.427  1.00  0.00     0.003 A 
HETATM    6  C   UNL     1      24.587  50.043  48.334  1.00  0.00     0.016 A 
ENDROOT
BRANCH   3   7
HETATM    7  N   UNL     1      25.938  46.726  50.566  1.00  0.00    -0.323 N 
HETATM    8  C   UNL     1      25.970  46.613  51.946  1.00  0.00     0.256 C 
HETATM    9  O   UNL     1      25.499  47.424  52.739  1.00  0.00    -0.267 OA
HETATM   10  H   UNL     1      26.343  45.984  50.017  1.00  0.00     0.169 HD
BRANCH   8  11
HETATM   11  C   UNL     1      26.649  45.404  52.513  1.00  0.00     0.037 A 
HETATM   12  C   UNL     1      26.435  44.183  51.849  1.00  0.00     0.054 A 
HETATM   13  C   UNL     1      27.032  43.011  52.308  1.00  0.00     0.071 A 
HETATM   14  C   UNL     1      27.829  43.060  53.450  1.00  0.00     0.073 A 
HETATM   15  C   UNL     1      28.061  44.264  54.120  1.00  0.00     0.071 A 
HETATM   16  C   UNL     1      27.482  45.442  53.642  1.00  0.00     0.054 A 
BRANCH  13  17
HETATM   17  O   UNL     1      26.907  41.772  51.742  1.00  0.00    -0.356 OA
HETATM   18  C   UNL     1      27.963  41.349  50.888  1.00  0.00     0.210 C 
ENDBRANCH  13  17
BRANCH  15  19
HETATM   19  O   UNL     1      28.877  44.155  55.213  1.00  0.00    -0.356 OA
HETATM   20  C   UNL     1      30.146  43.543  55.026  1.00  0.00     0.210 C 
ENDBRANCH  15  19
ENDBRANCH   8  11
ENDBRANCH   3   7
BRANCH   1  21
HETATM   21  C   UNL     1      22.219  49.608  48.911  1.00  0.00     0.181 A 
HETATM   22  O   UNL     1      21.937  50.944  48.775  1.00  0.00    -0.289 OA
HETATM   23  C   UNL     1      20.579  50.990  48.687  1.00  0.00     0.106 A 
HETATM   24  C   UNL     1      20.105  49.694  48.778  1.00  0.00     0.094 A 
HETATM   25  C   UNL     1      19.785  52.116  48.527  1.00  0.00     0.040 A 
HETATM   26  C   UNL     1      18.723  49.471  48.694  1.00  0.00     0.041 A 
HETATM   27  N   UNL     1      21.154  48.823  48.935  1.00  0.00    -0.221 NA
HETATM   28  C   UNL     1      17.872  50.580  48.505  1.00  0.00    -0.060 A 
HETATM   29  C   UNL     1      16.386  50.378  48.426  1.00  0.00     0.048 C 
HETATM   30  C   UNL     1      18.407  51.880  48.442  1.00  0.00     0.009 A 
ENDBRANCH   1  21
TORSDOF 5
ENDMDL
MODEL 5
REMARK VINA RESULT:      -9.2      2.271     10.329
REMARK  5 active torsions:
REMARK  status: ('A' for Active; 'I' for Inactive)
REMARK    1  A    between atoms: C_7  and  C_8 
REMARK    2  A    between atoms: C_10  and  N_11 
REMARK       I    between atoms: N_11  and  C_12 
REMARK    3  A    between atoms: C_12  and  C_13 
REMARK    4  A    between atoms: C_15  and  O_16 
REMARK    5  A    between atoms: C_19  and  O_20 
ROOT
HETATM    1  C   UNL     1      27.249  44.295  51.903  1.00  0.00     0.019 A 
HETATM    2  C   UNL     1      26.266  45.211  51.483  1.00  0.00     0.045 A 
HETATM    3  C   UNL     1      25.531  45.000  50.313  1.00  0.00     0.035 A 
HETATM    4  C   UNL     1      25.797  43.861  49.544  1.00  0.00     0.029 A 
HETATM    5  C   UNL     1      26.786  42.954  49.933  1.00  0.00     0.003 A 
HETATM    6  C   UNL     1      27.503  43.169  51.109  1.00  0.00     0.016 A 
ENDROOT
BRANCH   3   7
HETATM    7  N   UNL     1      24.496  45.855  49.864  1.00  0.00    -0.323 N 
HETATM    8  C   UNL     1      24.597  47.205  49.574  1.00  0.00     0.256 C 
HETATM    9  O   UNL     1      25.631  47.866  49.604  1.00  0.00    -0.267 OA
HETATM   10  H   UNL     1      23.592  45.416  49.786  1.00  0.00     0.169 HD
BRANCH   8  11
HETATM   11  C   UNL     1      23.330  47.917  49.206  1.00  0.00     0.037 A 
HETATM   12  C   UNL     1      22.238  47.118  48.822  1.00  0.00     0.054 A 
HETATM   13  C   UNL     1      21.024  47.699  48.468  1.00  0.00     0.071 A 
HETATM   14  C   UNL     1      20.909  49.088  48.477  1.00  0.00     0.073 A 
HETATM   15  C   UNL     1      21.979  49.901  48.863  1.00  0.00     0.071 A 
HETATM   16  C   UNL     1      23.188  49.313  49.242  1.00  0.00     0.054 A 
BRANCH  13  17
HETATM   17  O   UNL     1      19.893  47.028  48.090  1.00  0.00    -0.356 OA
HETATM   18  C   UNL     1      18.657  47.520  48.595  1.00  0.00     0.210 C 
ENDBRANCH  13  17
BRANCH  15  19
HETATM   19  O   UNL     1      21.709  51.241  48.837  1.00  0.00    -0.356 OA
HETATM   20  C   UNL     1      20.344  51.635  48.785  1.00  0.00     0.210 C 
ENDBRANCH  15  19
ENDBRANCH   8  11
ENDBRANCH   3   7
BRANCH   1  21
HETATM   21  C   UNL     1      27.974  44.473  53.160  1.00  0.00     0.181 A 
HETATM   22  O   UNL     1      29.015  43.609  53.396  1.00  0.00    -0.289 OA
HETATM   23  C   UNL     1      29.533  44.029  54.583  1.00  0.00     0.106 A 
HETATM   24  C   UNL     1      28.788  45.114  55.010  1.00  0.00     0.094 A 
HETATM   25  C   UNL     1      30.617  43.494  55.263  1.00  0.00     0.040 A 
HETATM   26  C   UNL     1      29.139  45.745  56.212  1.00  0.00     0.041 A 
HETATM   27  N   UNL     1      27.789  45.380  54.106  1.00  0.00    -0.221 NA
HETATM   28  C   UNL     1      30.249  45.256  56.930  1.00  0.00    -0.060 A 
HETATM   29  C   UNL     1      30.643  45.900  58.229  1.00  0.00     0.048 C 
HETATM   30  C   UNL     1      30.958  44.135  56.461  1.00  0.00     0.009 A 
ENDBRANCH   1  21
TORSDOF 5
ENDMDL
MODEL 6
REMARK VINA RESULT:      -9.0      2.381     10.185
REMARK  5 active torsions:
REMARK  status: ('A' for Active; 'I' for Inactive)
REMARK    1  A    between atoms: C_7  and  C_8 
REMARK    2  A    between atoms: C_10  and  N_11 
REMARK       I    between atoms: N_11  and  C_12 
REMARK    3  A    between atoms: C_12  and  C_13 
REMARK    4  A    between atoms: C_15  and  O_16 
REMARK    5  A    between atoms: C_19  and  O_20 
ROOT
HETATM    1  C   UNL     1      27.279  44.076  51.925  1.00  0.00     0.019 A 
HETATM    2  C   UNL     1      26.275  44.958  51.486  1.00  0.00     0.045 A 
HETATM    3  C   UNL     1      25.543  44.703  50.322  1.00  0.00     0.035 A 
HETATM    4  C   UNL     1      25.835  43.553  49.579  1.00  0.00     0.029 A 
HETATM    5  C   UNL     1      26.845  42.679  49.988  1.00  0.00     0.003 A 
HETATM    6  C   UNL     1      27.558  42.938  51.157  1.00  0.00     0.016 A 
ENDROOT
BRANCH   3   7
HETATM    7  N   UNL     1      24.488  45.523  49.855  1.00  0.00    -0.323 N 
HETATM    8  C   UNL     1      24.546  46.878  49.574  1.00  0.00     0.256 C 
HETATM    9  O   UNL     1      25.555  47.575  49.630  1.00  0.00    -0.267 OA
HETATM   10  H   UNL     1      23.602  45.052  49.755  1.00  0.00     0.169 HD
BRANCH   8  11
HETATM   11  C   UNL     1      23.263  47.546  49.182  1.00  0.00     0.037 A 
HETATM   12  C   UNL     1      23.098  48.887  49.571  1.00  0.00     0.054 A 
HETATM   13  C   UNL     1      21.937  49.583  49.245  1.00  0.00     0.071 A 
HETATM   14  C   UNL     1      20.927  48.925  48.545  1.00  0.00     0.073 A 
HETATM   15  C   UNL     1      21.074  47.595  48.141  1.00  0.00     0.071 A 
HETATM   16  C   UNL     1      22.251  46.908  48.448  1.00  0.00     0.054 A 
BRANCH  13  17
HETATM   17  O   UNL     1      21.669  50.887  49.558  1.00  0.00    -0.356 OA
HETATM   18  C   UNL     1      20.335  51.190  49.949  1.00  0.00     0.210 C 
ENDBRANCH  13  17
BRANCH  15  19
HETATM   19  O   UNL     1      20.007  47.093  47.449  1.00  0.00    -0.356 OA
HETATM   20  C   UNL     1      19.182  48.018  46.754  1.00  0.00     0.210 C 
ENDBRANCH  15  19
ENDBRANCH   8  11
ENDBRANCH   3   7
BRANCH   1  21
HETATM   21  C   UNL     1      28.001  44.299  53.178  1.00  0.00     0.181 A 
HETATM   22  O   UNL     1      29.044  43.448  53.444  1.00  0.00    -0.289 OA
HETATM   23  C   UNL     1      29.558  43.911  54.617  1.00  0.00     0.106 A 
HETATM   24  C   UNL     1      28.808  45.006  55.005  1.00  0.00     0.094 A 
HETATM   25  C   UNL     1      30.643  43.403  55.317  1.00  0.00     0.040 A 
HETATM   26  C   UNL     1      29.154  45.680  56.186  1.00  0.00     0.041 A 
HETATM   27  N   UNL     1      27.810  45.237  54.091  1.00  0.00    -0.221 NA
HETATM   28  C   UNL     1      30.265  45.220  56.923  1.00  0.00    -0.060 A 
HETATM   29  C   UNL     1      30.654  45.910  58.199  1.00  0.00     0.048 C 
HETATM   30  C   UNL     1      30.980  44.087  56.493  1.00  0.00     0.009 A 
ENDBRANCH   1  21
TORSDOF 5
ENDMDL
MODEL 7
REMARK VINA RESULT:      -8.8      3.258     10.529
REMARK  5 active torsions:
REMARK  status: ('A' for Active; 'I' for Inactive)
REMARK    1  A    between atoms: C_7  and  C_8 
REMARK    2  A    between atoms: C_10  and  N_11 
REMARK       I    between atoms: N_11  and  C_12 
REMARK    3  A    between atoms: C_12  and  C_13 
REMARK    4  A    between atoms: C_15  and  O_16 
REMARK    5  A    between atoms: C_19  and  O_20 
ROOT
HETATM    1  C   UNL     1      27.912  43.347  52.130  1.00  0.00     0.019 A 
HETATM    2  C   UNL     1      26.942  44.125  51.472  1.00  0.00     0.045 A 
HETATM    3  C   UNL     1      26.325  43.677  50.300  1.00  0.00     0.035 A 
HETATM    4  C   UNL     1      26.699  42.436  49.772  1.00  0.00     0.029 A 
HETATM    5  C   UNL     1      27.678  41.661  50.398  1.00  0.00     0.003 A 
HETATM    6  C   UNL     1      28.276  42.114  51.573  1.00  0.00     0.016 A 
ENDROOT
BRANCH   3   7
HETATM    7  N   UNL     1      25.307  44.389  49.620  1.00  0.00    -0.323 N 
HETATM    8  C   UNL     1      23.981  44.513  49.998  1.00  0.00     0.256 C 
HETATM    9  O   UNL     1      23.489  44.070  51.031  1.00  0.00    -0.267 OA
HETATM   10  H   UNL     1      25.599  44.813  48.753  1.00  0.00     0.169 HD
BRANCH   8  11
HETATM   11  C   UNL     1      23.072  45.242  49.055  1.00  0.00     0.037 A 
HETATM   12  C   UNL     1      22.044  44.494  48.454  1.00  0.00     0.054 A 
HETATM   13  C   UNL     1      21.154  45.094  47.568  1.00  0.00     0.071 A 
HETATM   14  C   UNL     1      21.307  46.446  47.266  1.00  0.00     0.073 A 
HETATM   15  C   UNL     1      22.316  47.210  47.858  1.00  0.00     0.071 A 
HETATM   16  C   UNL     1      23.192  46.610  48.767  1.00  0.00     0.054 A 
BRANCH  13  17
HETATM   17  O   UNL     1      20.113  44.474  46.933  1.00  0.00    -0.356 OA
HETATM   18  C   UNL     1      18.801  44.856  47.332  1.00  0.00     0.210 C 
ENDBRANCH  13  17
BRANCH  15  19
HETATM   19  O   UNL     1      22.329  48.524  47.476  1.00  0.00    -0.356 OA
HETATM   20  C   UNL     1      22.853  49.470  48.399  1.00  0.00     0.210 C 
ENDBRANCH  15  19
ENDBRANCH   8  11
ENDBRANCH   3   7
BRANCH   1  21
HETATM   21  C   UNL     1      28.512  43.777  53.393  1.00  0.00     0.181 A 
HETATM   22  O   UNL     1      29.495  42.970  53.911  1.00  0.00    -0.289 OA
HETATM   23  C   UNL     1      29.904  43.625  55.032  1.00  0.00     0.106 A 
HETATM   24  C   UNL     1      29.155  44.783  55.143  1.00  0.00     0.094 A 
HETATM   25  C   UNL     1      30.895  43.233  55.919  1.00  0.00     0.040 A 
HETATM   26  C   UNL     1      29.403  45.649  56.218  1.00  0.00     0.041 A 
HETATM   27  N   UNL     1      28.262  44.864  54.104  1.00  0.00    -0.221 NA
HETATM   28  C   UNL     1      30.419  45.310  57.136  1.00  0.00    -0.060 A 
HETATM   29  C   UNL     1      30.700  46.208  58.307  1.00  0.00     0.048 C 
HETATM   30  C   UNL     1      31.135  44.108  56.987  1.00  0.00     0.009 A 
ENDBRANCH   1  21
TORSDOF 5
ENDMDL
MODEL 8
REMARK VINA RESULT:      -8.7      2.251      2.900
REMARK  5 active torsions:
REMARK  status: ('A' for Active; 'I' for Inactive)
REMARK    1  A    between atoms: C_7  and  C_8 
REMARK    2  A    between atoms: C_10  and  N_11 
REMARK       I    between atoms: N_11  and  C_12 
REMARK    3  A    between atoms: C_12  and  C_13 
REMARK    4  A    between atoms: C_15  and  O_16 
REMARK    5  A    between atoms: C_19  and  O_20 
ROOT
HETATM    1  C   UNL     1      22.992  46.559  48.796  1.00  0.00     0.019 A 
HETATM    2  C   UNL     1      23.885  46.498  49.881  1.00  0.00     0.045 A 
HETATM    3  C   UNL     1      24.729  45.398  50.065  1.00  0.00     0.035 A 
HETATM    4  C   UNL     1      24.663  44.337  49.154  1.00  0.00     0.029 A 
HETATM    5  C   UNL     1      23.765  44.371  48.084  1.00  0.00     0.003 A 
HETATM    6  C   UNL     1      22.939  45.479  47.905  1.00  0.00     0.016 A 
ENDROOT
BRANCH   3   7
HETATM    7  N   UNL     1      25.683  45.297  51.106  1.00  0.00    -0.323 N 
HETATM    8  C   UNL     1      25.583  44.536  52.258  1.00  0.00     0.256 C 
HETATM    9  O   UNL     1      24.663  43.771  52.530  1.00  0.00    -0.267 OA
HETATM   10  H   UNL     1      26.499  45.878  50.985  1.00  0.00     0.169 HD
BRANCH   8  11
HETATM   11  C   UNL     1      26.690  44.674  53.260  1.00  0.00     0.037 A 
HETATM   12  C   UNL     1      26.725  45.861  54.012  1.00  0.00     0.054 A 
HETATM   13  C   UNL     1      27.718  46.068  54.966  1.00  0.00     0.071 A 
HETATM   14  C   UNL     1      28.693  45.089  55.153  1.00  0.00     0.073 A 
HETATM   15  C   UNL     1      28.671  43.898  54.422  1.00  0.00     0.071 A 
HETATM   16  C   UNL     1      27.658  43.683  53.484  1.00  0.00     0.054 A 
BRANCH  13  17
HETATM   17  O   UNL     1      27.848  47.173  55.762  1.00  0.00    -0.356 OA
HETATM   18  C   UNL     1      26.818  48.150  55.674  1.00  0.00     0.210 C 
ENDBRANCH  13  17
BRANCH  15  19
HETATM   19  O   UNL     1      29.682  43.029  54.728  1.00  0.00    -0.356 OA
HETATM   20  C   UNL     1      30.720  43.502  55.576  1.00  0.00     0.210 C 
ENDBRANCH  15  19
ENDBRANCH   8  11
ENDBRANCH   3   7
BRANCH   1  21
HETATM   21  C   UNL     1      22.157  47.736  48.557  1.00  0.00     0.181 A 
HETATM   22  O   UNL     1      21.185  47.613  47.596  1.00  0.00    -0.289 OA
HETATM   23  C   UNL     1      20.537  48.811  47.624  1.00  0.00     0.106 A 
HETATM   24  C   UNL     1      21.143  49.597  48.587  1.00  0.00     0.094 A 
HETATM   25  C   UNL     1      19.457  49.200  46.846  1.00  0.00     0.040 A 
HETATM   26  C   UNL     1      20.642  50.886  48.823  1.00  0.00     0.041 A 
HETATM   27  N   UNL     1      22.182  48.911  49.165  1.00  0.00    -0.221 NA
HETATM   28  C   UNL     1      19.528  51.322  48.077  1.00  0.00    -0.060 A 
HETATM   29  C   UNL     1      18.975  52.701  48.294  1.00  0.00     0.048 C 
HETATM   30  C   UNL     1      18.964  50.488  47.093  1.00  0.00     0.009 A 
ENDBRANCH   1  21
TORSDOF 5
ENDMDL
MODEL 9
REMARK VINA RESULT:      -8.7      3.915      6.876
REMARK  5 active torsions:
REMARK  status: ('A' for Active; 'I' for Inactive)
REMARK    1  A    between atoms: C_7  and  C_8 
REMARK    2  A    between atoms: C_10  and  N_11 
REMARK       I    between atoms: N_11  and  C_12 
REMARK    3  A    between atoms: C_12  and  C_13 
REMARK    4  A    between atoms: C_15  and  O_16 
REMARK    5  A    between atoms: C_19  and  O_20 
ROOT
HETATM    1  C   UNL     1      26.414  45.563  51.365  1.00  0.00     0.019 A 
HETATM    2  C   UNL     1      26.923  44.443  50.681  1.00  0.00     0.045 A 
HETATM    3  C   UNL     1      27.459  43.353  51.373  1.00  0.00     0.035 A 
HETATM    4  C   UNL     1      27.499  43.394  52.771  1.00  0.00     0.029 A 
HETATM    5  C   UNL     1      27.020  44.508  53.465  1.00  0.00     0.003 A 
HETATM    6  C   UNL     1      26.477  45.583  52.765  1.00  0.00     0.016 A 
ENDROOT
BRANCH   3   7
HETATM    7  N   UNL     1      27.940  42.178  50.747  1.00  0.00    -0.323 N 
HETATM    8  C   UNL     1      27.187  41.115  50.276  1.00  0.00     0.256 C 
HETATM    9  O   UNL     1      25.961  41.055  50.275  1.00  0.00    -0.267 OA
HETATM   10  H   UNL     1      28.944  42.119  50.678  1.00  0.00     0.169 HD
BRANCH   8  11
HETATM   11  C   UNL     1      27.939  39.936  49.737  1.00  0.00     0.037 A 
HETATM   12  C   UNL     1      27.719  39.602  48.389  1.00  0.00     0.054 A 
HETATM   13  C   UNL     1      28.380  38.523  47.808  1.00  0.00     0.071 A 
HETATM   14  C   UNL     1      29.248  37.762  48.588  1.00  0.00     0.073 A 
HETATM   15  C   UNL     1      29.488  38.081  49.927  1.00  0.00     0.071 A 
HETATM   16  C   UNL     1      28.843  39.180  50.499  1.00  0.00     0.054 A 
BRANCH  13  17
HETATM   17  O   UNL     1      28.255  38.111  46.510  1.00  0.00    -0.356 OA
HETATM   18  C   UNL     1      29.090  37.035  46.097  1.00  0.00     0.210 C 
ENDBRANCH  13  17
BRANCH  15  19
HETATM   19  O   UNL     1      30.377  37.253  50.556  1.00  0.00    -0.356 OA
HETATM   20  C   UNL     1      29.884  36.447  51.618  1.00  0.00     0.210 C 
ENDBRANCH  15  19
ENDBRANCH   8  11
ENDBRANCH   3   7
BRANCH   1  21
HETATM   21  C   UNL     1      25.789  46.677  50.652  1.00  0.00     0.181 A 
HETATM   22  O   UNL     1      26.631  47.519  49.971  1.00  0.00    -0.289 OA
HETATM   23  C   UNL     1      25.795  48.410  49.369  1.00  0.00     0.106 A 
HETATM   24  C   UNL     1      24.498  48.072  49.714  1.00  0.00     0.094 A 
HETATM   25  C   UNL     1      26.147  49.470  48.547  1.00  0.00     0.040 A 
HETATM   26  C   UNL     1      23.440  48.835  49.199  1.00  0.00     0.041 A 
HETATM   27  N   UNL     1      24.505  46.977  50.543  1.00  0.00    -0.221 NA
HETATM   28  C   UNL     1      23.742  49.909  48.337  1.00  0.00    -0.060 A 
HETATM   29  C   UNL     1      22.634  50.756  47.779  1.00  0.00     0.048 C 
HETATM   30  C   UNL     1      25.081  50.222  48.037  1.00  0.00     0.009 A 
ENDBRANCH   1  21
TORSDOF 5
ENDMDL
MODEL 10
REMARK VINA RESULT:      -8.7      1.821      2.799
REMARK  5 active torsions:
REMARK  status: ('A' for Active; 'I' for Inactive)
REMARK    1  A    between atoms: C_7  and  C_8 
REMARK    2  A    between atoms: C_10  and  N_11 
REMARK       I    between atoms: N_11  and  C_12 
REMARK    3  A    between atoms: C_12  and  C_13 
REMARK    4  A    between atoms: C_15  and  O_16 
REMARK    5  A    between atoms: C_19  and  O_20 
ROOT
HETATM    1  C   UNL     1      23.414  49.007  48.657  1.00  0.00     0.019 A 
HETATM    2  C   UNL     1      24.008  48.059  49.510  1.00  0.00     0.045 A 
HETATM    3  C   UNL     1      25.392  48.023  49.703  1.00  0.00     0.035 A 
HETATM    4  C   UNL     1      26.194  48.943  49.017  1.00  0.00     0.029 A 
HETATM    5  C   UNL     1      25.623  49.875  48.147  1.00  0.00     0.003 A 
HETATM    6  C   UNL     1      24.241  49.908  47.973  1.00  0.00     0.016 A 
ENDROOT
BRANCH   3   7
HETATM    7  N   UNL     1      26.045  47.129  50.585  1.00  0.00    -0.323 N 
HETATM    8  C   UNL     1      26.248  45.772  50.398  1.00  0.00     0.256 C 
HETATM    9  O   UNL     1      25.942  45.137  49.393  1.00  0.00    -0.267 OA
HETATM   10  H   UNL     1      26.357  47.544  51.450  1.00  0.00     0.169 HD
BRANCH   8  11
HETATM   11  C   UNL     1      26.884  45.019  51.527  1.00  0.00     0.037 A 
HETATM   12  C   UNL     1      27.533  43.814  51.204  1.00  0.00     0.054 A 
HETATM   13  C   UNL     1      28.152  43.053  52.193  1.00  0.00     0.071 A 
HETATM   14  C   UNL     1      28.103  43.492  53.515  1.00  0.00     0.073 A 
HETATM   15  C   UNL     1      27.471  44.691  53.856  1.00  0.00     0.071 A 
HETATM   16  C   UNL     1      26.873  45.464  52.858  1.00  0.00     0.054 A 
BRANCH  13  17
HETATM   17  O   UNL     1      28.819  41.876  51.999  1.00  0.00    -0.356 OA
HETATM   18  C   UNL     1      28.721  40.905  53.035  1.00  0.00     0.210 C 
ENDBRANCH  13  17
BRANCH  15  19
HETATM   19  O   UNL     1      27.520  44.996  55.189  1.00  0.00    -0.356 OA
HETATM   20  C   UNL     1      28.042  46.268  55.552  1.00  0.00     0.210 C 
ENDBRANCH  15  19
ENDBRANCH   8  11
ENDBRANCH   3   7
BRANCH   1  21
HETATM   21  C   UNL     1      21.962  49.096  48.502  1.00  0.00     0.181 A 
HETATM   22  O   UNL     1      21.217  48.143  49.150  1.00  0.00    -0.289 OA
HETATM   23  C   UNL     1      19.928  48.493  48.885  1.00  0.00     0.106 A 
HETATM   24  C   UNL     1      19.952  49.628  48.094  1.00  0.00     0.094 A 
HETATM   25  C   UNL     1      18.777  47.854  49.321  1.00  0.00     0.040 A 
HETATM   26  C   UNL     1      18.735  50.202  47.698  1.00  0.00     0.041 A 
HETATM   27  N   UNL     1      21.250  49.996  47.843  1.00  0.00    -0.221 NA
HETATM   28  C   UNL     1      17.535  49.606  48.135  1.00  0.00    -0.060 A 
HETATM   29  C   UNL     1      16.214  50.188  47.717  1.00  0.00     0.048 C 
HETATM   30  C   UNL     1      17.569  48.440  48.921  1.00  0.00     0.009 A 
ENDBRANCH   1  21
TORSDOF 5
ENDMDL
