MODEL 1
REMARK VINA RESULT:      -8.9      0.000      0.000
REMARK  6 active torsions:
REMARK  status: ('A' for Active; 'I' for Inactive)
REMARK    1  A    between atoms: C_2  and  O_3 
REMARK    2  A    between atoms: C_2  and  C_4 
REMARK    3  A    between atoms: C_2  and  C_11 
REMARK    4  A    between atoms: C_11  and  N_12 
REMARK       I    between atoms: N_12  and  C_13 
REMARK    5  A    between atoms: C_13  and  C_14 
REMARK    6  A    between atoms: C_15  and  C_16 
ROOT
HETATM    1  N   UNL     1      27.274  41.939  52.805  1.00  0.00    -0.354 N 
HETATM    2  C   UNL     1      27.647  41.191  51.707  1.00  0.00     0.255 C 
HETATM    3  O   UNL     1      28.767  40.708  51.593  1.00  0.00    -0.268 OA
HETATM    4  H   UNL     1      26.372  42.390  52.810  1.00  0.00     0.162 HD
ENDROOT
BRANCH   2   5
HETATM    5  C   UNL     1      26.612  41.046  50.690  1.00  0.00     0.080 A 
HETATM    6  C   UNL     1      25.812  42.060  50.062  1.00  0.00     0.104 A 
HETATM    7  N   UNL     1      25.002  41.522  49.130  1.00  0.00    -0.174 NA
HETATM    8  N   UNL     1      25.262  40.214  49.165  1.00  0.00    -0.288 N 
HETATM    9  H   UNL     1      24.753  39.610  48.527  1.00  0.00     0.188 HD
HETATM   10  C   UNL     1      26.210  39.870  50.076  1.00  0.00     0.128 A 
BRANCH   6  11
HETATM   11  C   UNL     1      25.763  43.506  50.301  1.00  0.00    -0.004 A 
HETATM   12  C   UNL     1      24.806  44.034  51.187  1.00  0.00     0.017 A 
HETATM   13  C   UNL     1      24.754  45.405  51.446  1.00  0.00     0.043 A 
HETATM   14  C   UNL     1      25.662  46.253  50.825  1.00  0.00     0.116 A 
HETATM   15  F   UNL     1      25.613  47.569  51.072  1.00  0.00    -0.206 F 
HETATM   16  C   UNL     1      26.624  45.754  49.956  1.00  0.00     0.043 A 
HETATM   17  C   UNL     1      26.680  44.381  49.700  1.00  0.00     0.017 A 
ENDBRANCH   6  11
ENDBRANCH   2   5
BRANCH   1  18
HETATM   18  C   UNL     1      28.180  42.198  53.912  1.00  0.00     0.165 C 
BRANCH  18  19
HETATM   19  C   UNL     1      28.989  43.524  53.797  1.00  0.00     0.097 C 
HETATM   20  C   UNL     1      28.061  44.641  53.287  1.00  0.00     0.053 C 
BRANCH  19  21
HETATM   21  O   UNL     1      29.956  43.341  52.744  1.00  0.00    -0.384 OA
HETATM   22  H   UNL     1      29.571  42.721  52.099  1.00  0.00     0.211 HD
ENDBRANCH  19  21
BRANCH  19  23
HETATM   23  C   UNL     1      29.755  43.869  55.078  1.00  0.00    -0.023 A 
HETATM   24  C   UNL     1      30.715  43.017  55.651  1.00  0.00     0.013 A 
HETATM   25  C   UNL     1      31.378  43.371  56.830  1.00  0.00     0.043 A 
HETATM   26  C   UNL     1      31.090  44.580  57.448  1.00  0.00     0.116 A 
HETATM   27  F   UNL     1      31.726  44.912  58.579  1.00  0.00    -0.206 F 
HETATM   28  C   UNL     1      30.150  45.444  56.909  1.00  0.00     0.043 A 
HETATM   29  C   UNL     1      29.485  45.090  55.734  1.00  0.00     0.013 A 
ENDBRANCH  19  23
ENDBRANCH  18  19
ENDBRANCH   1  18
TORSDOF 6
ENDMDL
MODEL 2
REMARK VINA RESULT:      -8.8      4.374      5.917
REMARK  6 active torsions:
REMARK  status: ('A' for Active; 'I' for Inactive)
REMARK    1  A    between atoms: C_2  and  O_3 
REMARK    2  A    between atoms: C_2  and  C_4 
REMARK    3  A    between atoms: C_2  and  C_11 
REMARK    4  A    between atoms: C_11  and  N_12 
REMARK       I    between atoms: N_12  and  C_13 
REMARK    5  A    between atoms: C_13  and  C_14 
REMARK    6  A    between atoms: C_15  and  C_16 
ROOT
HETATM    1  N   UNL     1      26.302  46.182  50.706  1.00  0.00    -0.354 N 
HETATM    2  C   UNL     1      25.703  47.425  50.685  1.00  0.00     0.255 C 
HETATM    3  O   UNL     1      24.818  47.740  51.473  1.00  0.00    -0.268 OA
HETATM    4  H   UNL     1      26.959  45.940  49.980  1.00  0.00     0.162 HD
ENDROOT
BRANCH   2   5
HETATM    5  C   UNL     1      26.187  48.316  49.638  1.00  0.00     0.080 A 
HETATM    6  C   UNL     1      25.440  49.187  48.773  1.00  0.00     0.104 A 
HETATM    7  N   UNL     1      26.265  49.888  47.973  1.00  0.00    -0.174 NA
HETATM    8  N   UNL     1      27.491  49.477  48.299  1.00  0.00    -0.288 N 
HETATM    9  H   UNL     1      28.278  49.889  47.808  1.00  0.00     0.188 HD
HETATM   10  C   UNL     1      27.508  48.539  49.282  1.00  0.00     0.128 A 
BRANCH   6  11
HETATM   11  C   UNL     1      23.991  49.385  48.657  1.00  0.00    -0.004 A 
HETATM   12  C   UNL     1      23.458  50.685  48.719  1.00  0.00     0.017 A 
HETATM   13  C   UNL     1      22.084  50.899  48.590  1.00  0.00     0.043 A 
HETATM   14  C   UNL     1      21.239  49.814  48.393  1.00  0.00     0.116 A 
HETATM   15  F   UNL     1      19.921  50.018  48.269  1.00  0.00    -0.206 F 
HETATM   16  C   UNL     1      21.744  48.523  48.315  1.00  0.00     0.043 A 
HETATM   17  C   UNL     1      23.119  48.308  48.439  1.00  0.00     0.017 A 
ENDBRANCH   6  11
ENDBRANCH   2   5
BRANCH   1  18
HETATM   18  C   UNL     1      25.936  45.160  51.674  1.00  0.00     0.165 C 
BRANCH  18  19
HETATM   19  C   UNL     1      26.696  43.809  51.514  1.00  0.00     0.097 C 
HETATM   20  C   UNL     1      27.060  43.605  50.033  1.00  0.00     0.053 C 
BRANCH  19  21
HETATM   21  O   UNL     1      25.756  42.757  51.810  1.00  0.00    -0.384 OA
HETATM   22  H   UNL     1      25.546  42.309  50.971  1.00  0.00     0.211 HD
ENDBRANCH  19  21
BRANCH  19  23
HETATM   23  C   UNL     1      27.873  43.669  52.484  1.00  0.00    -0.023 A 
HETATM   24  C   UNL     1      28.968  42.821  52.244  1.00  0.00     0.013 A 
HETATM   25  C   UNL     1      30.013  42.717  53.167  1.00  0.00     0.043 A 
HETATM   26  C   UNL     1      29.976  43.460  54.339  1.00  0.00     0.116 A 
HETATM   27  F   UNL     1      30.978  43.353  55.221  1.00  0.00    -0.206 F 
HETATM   28  C   UNL     1      28.912  44.307  54.606  1.00  0.00     0.043 A 
HETATM   29  C   UNL     1      27.866  44.408  53.687  1.00  0.00     0.013 A 
ENDBRANCH  19  23
ENDBRANCH  18  19
ENDBRANCH   1  18
TORSDOF 6
ENDMDL
MODEL 3
REMARK VINA RESULT:      -8.6      3.843      7.059
REMARK  6 active torsions:
REMARK  status: ('A' for Active; 'I' for Inactive)
REMARK    1  A    between atoms: C_2  and  O_3 
REMARK    2  A    between atoms: C_2  and  C_4 
REMARK    3  A    between atoms: C_2  and  C_11 
REMARK    4  A    between atoms: C_11  and  N_12 
REMARK       I    between atoms: N_12  and  C_13 
REMARK    5  A    between atoms: C_13  and  C_14 
REMARK    6  A    between atoms: C_15  and  C_16 
ROOT
HETATM    1  N   UNL     1      26.417  46.861  53.098  1.00  0.00    -0.354 N 
HETATM    2  C   UNL     1      26.304  46.026  54.191  1.00  0.00     0.255 C 
HETATM    3  O   UNL     1      25.263  45.438  54.462  1.00  0.00    -0.268 OA
HETATM    4  H   UNL     1      27.265  47.391  52.970  1.00  0.00     0.162 HD
ENDROOT
BRANCH   2   5
HETATM    5  C   UNL     1      27.508  45.923  55.005  1.00  0.00     0.080 A 
HETATM    6  C   UNL     1      28.521  44.904  55.000  1.00  0.00     0.104 A 
HETATM    7  N   UNL     1      29.504  45.203  55.870  1.00  0.00    -0.174 NA
HETATM    8  N   UNL     1      29.135  46.359  56.421  1.00  0.00    -0.288 N 
HETATM    9  H   UNL     1      29.748  46.773  57.117  1.00  0.00     0.188 HD
HETATM   10  C   UNL     1      27.954  46.836  55.948  1.00  0.00     0.128 A 
BRANCH   6  11
HETATM   11  C   UNL     1      28.604  43.661  54.226  1.00  0.00    -0.004 A 
HETATM   12  C   UNL     1      29.755  43.390  53.464  1.00  0.00     0.017 A 
HETATM   13  C   UNL     1      29.864  42.203  52.736  1.00  0.00     0.043 A 
HETATM   14  C   UNL     1      28.826  41.282  52.771  1.00  0.00     0.116 A 
HETATM   15  F   UNL     1      28.929  40.143  52.073  1.00  0.00    -0.206 F 
HETATM   16  C   UNL     1      27.685  41.522  53.526  1.00  0.00     0.043 A 
HETATM   17  C   UNL     1      27.576  42.707  54.259  1.00  0.00     0.017 A 
ENDBRANCH   6  11
ENDBRANCH   2   5
BRANCH   1  18
HETATM   18  C   UNL     1      25.313  47.093  52.180  1.00  0.00     0.165 C 
BRANCH  18  19
HETATM   19  C   UNL     1      25.551  46.580  50.729  1.00  0.00     0.097 C 
HETATM   20  C   UNL     1      26.669  47.411  50.076  1.00  0.00     0.053 C 
BRANCH  19  21
HETATM   21  O   UNL     1      24.367  46.895  49.969  1.00  0.00    -0.384 OA
HETATM   22  H   UNL     1      24.577  47.663  49.407  1.00  0.00     0.211 HD
ENDBRANCH  19  21
BRANCH  19  23
HETATM   23  C   UNL     1      25.760  45.065  50.659  1.00  0.00    -0.023 A 
HETATM   24  C   UNL     1      26.942  44.475  50.175  1.00  0.00     0.013 A 
HETATM   25  C   UNL     1      27.080  43.085  50.118  1.00  0.00     0.043 A 
HETATM   26  C   UNL     1      26.041  42.270  50.545  1.00  0.00     0.116 A 
HETATM   27  F   UNL     1      26.177  40.939  50.484  1.00  0.00    -0.206 F 
HETATM   28  C   UNL     1      24.863  42.818  51.028  1.00  0.00     0.043 A 
HETATM   29  C   UNL     1      24.723  44.206  51.081  1.00  0.00     0.013 A 
ENDBRANCH  19  23
ENDBRANCH  18  19
ENDBRANCH   1  18
TORSDOF 6
ENDMDL
MODEL 4
REMARK VINA RESULT:      -8.5      4.562      5.995
REMARK  6 active torsions:
REMARK  status: ('A' for Active; 'I' for Inactive)
REMARK    1  A    between atoms: C_2  and  O_3 
REMARK    2  A    between atoms: C_2  and  C_4 
REMARK    3  A    between atoms: C_2  and  C_11 
REMARK    4  A    between atoms: C_11  and  N_12 
REMARK       I    between atoms: N_12  and  C_13 
REMARK    5  A    between atoms: C_13  and  C_14 
REMARK    6  A    between atoms: C_15  and  C_16 
ROOT
HETATM    1  N   UNL     1      25.982  47.131  51.575  1.00  0.00    -0.354 N 
HETATM    2  C   UNL     1      25.248  47.374  50.433  1.00  0.00     0.255 C 
HETATM    3  O   UNL     1      24.178  46.819  50.210  1.00  0.00    -0.268 OA
HETATM    4  H   UNL     1      26.897  47.544  51.668  1.00  0.00     0.162 HD
ENDROOT
BRANCH   2   5
HETATM    5  C   UNL     1      25.858  48.321  49.506  1.00  0.00     0.080 A 
HETATM    6  C   UNL     1      25.230  49.326  48.694  1.00  0.00     0.104 A 
HETATM    7  N   UNL     1      26.151  50.033  48.012  1.00  0.00    -0.174 NA
HETATM    8  N   UNL     1      27.321  49.498  48.360  1.00  0.00    -0.288 N 
HETATM    9  H   UNL     1      28.165  49.892  47.955  1.00  0.00     0.188 HD
HETATM   10  C   UNL     1      27.211  48.472  49.245  1.00  0.00     0.128 A 
BRANCH   6  11
HETATM   11  C   UNL     1      23.809  49.647  48.521  1.00  0.00    -0.004 A 
HETATM   12  C   UNL     1      22.940  48.687  47.973  1.00  0.00     0.017 A 
HETATM   13  C   UNL     1      21.580  48.962  47.818  1.00  0.00     0.043 A 
HETATM   14  C   UNL     1      21.083  50.198  48.214  1.00  0.00     0.116 A 
HETATM   15  F   UNL     1      19.779  50.464  48.065  1.00  0.00    -0.206 F 
HETATM   16  C   UNL     1      21.920  51.157  48.769  1.00  0.00     0.043 A 
HETATM   17  C   UNL     1      23.281  50.881  48.930  1.00  0.00     0.017 A 
ENDBRANCH   6  11
ENDBRANCH   2   5
BRANCH   1  18
HETATM   18  C   UNL     1      25.535  46.207  52.605  1.00  0.00     0.165 C 
BRANCH  18  19
HETATM   19  C   UNL     1      26.395  44.916  52.741  1.00  0.00     0.097 C 
HETATM   20  C   UNL     1      26.889  44.487  51.348  1.00  0.00     0.053 C 
BRANCH  19  21
HETATM   21  O   UNL     1      25.508  43.858  53.157  1.00  0.00    -0.384 OA
HETATM   22  H   UNL     1      25.963  43.353  53.855  1.00  0.00     0.211 HD
ENDBRANCH  19  21
BRANCH  19  23
HETATM   23  C   UNL     1      27.497  45.042  53.796  1.00  0.00    -0.023 A 
HETATM   24  C   UNL     1      27.619  46.153  54.650  1.00  0.00     0.013 A 
HETATM   25  C   UNL     1      28.652  46.228  55.589  1.00  0.00     0.043 A 
HETATM   26  C   UNL     1      29.573  45.194  55.687  1.00  0.00     0.116 A 
HETATM   27  F   UNL     1      30.563  45.274  56.586  1.00  0.00    -0.206 F 
HETATM   28  C   UNL     1      29.481  44.084  54.862  1.00  0.00     0.043 A 
HETATM   29  C   UNL     1      28.453  44.011  53.921  1.00  0.00     0.013 A 
ENDBRANCH  19  23
ENDBRANCH  18  19
ENDBRANCH   1  18
TORSDOF 6
ENDMDL
MODEL 5
REMARK VINA RESULT:      -8.4      2.528      7.612
REMARK  6 active torsions:
REMARK  status: ('A' for Active; 'I' for Inactive)
REMARK    1  A    between atoms: C_2  and  O_3 
REMARK    2  A    between atoms: C_2  and  C_4 
REMARK    3  A    between atoms: C_2  and  C_11 
REMARK    4  A    between atoms: C_11  and  N_12 
REMARK       I    between atoms: N_12  and  C_13 
REMARK    5  A    between atoms: C_13  and  C_14 
REMARK    6  A    between atoms: C_15  and  C_16 
ROOT
HETATM    1  N   UNL     1      27.399  44.655  52.300  1.00  0.00    -0.354 N 
HETATM    2  C   UNL     1      26.922  44.519  53.588  1.00  0.00     0.255 C 
HETATM    3  O   UNL     1      26.403  43.483  53.989  1.00  0.00    -0.268 OA
HETATM    4  H   UNL     1      27.734  45.555  51.993  1.00  0.00     0.162 HD
ENDROOT
BRANCH   2   5
HETATM    5  C   UNL     1      27.063  45.709  54.418  1.00  0.00     0.080 A 
HETATM    6  C   UNL     1      28.079  46.024  55.384  1.00  0.00     0.104 A 
HETATM    7  N   UNL     1      27.881  47.250  55.903  1.00  0.00    -0.174 NA
HETATM    8  N   UNL     1      26.777  47.701  55.307  1.00  0.00    -0.288 N 
HETATM    9  H   UNL     1      26.445  48.628  55.556  1.00  0.00     0.188 HD
HETATM   10  C   UNL     1      26.243  46.826  54.414  1.00  0.00     0.128 A 
BRANCH   6  11
HETATM   11  C   UNL     1      29.219  45.226  55.849  1.00  0.00    -0.004 A 
HETATM   12  C   UNL     1      29.817  45.520  57.087  1.00  0.00     0.017 A 
HETATM   13  C   UNL     1      30.889  44.761  57.560  1.00  0.00     0.043 A 
HETATM   14  C   UNL     1      31.366  43.703  56.797  1.00  0.00     0.116 A 
HETATM   15  F   UNL     1      32.395  42.974  57.248  1.00  0.00    -0.206 F 
HETATM   16  C   UNL     1      30.784  43.386  55.576  1.00  0.00     0.043 A 
HETATM   17  C   UNL     1      29.707  44.141  55.105  1.00  0.00     0.017 A 
ENDBRANCH   6  11
ENDBRANCH   2   5
BRANCH   1  18
HETATM   18  C   UNL     1      27.331  43.576  51.328  1.00  0.00     0.165 C 
BRANCH  18  19
HETATM   19  C   UNL     1      26.279  43.781  50.198  1.00  0.00     0.097 C 
HETATM   20  C   UNL     1      25.070  42.866  50.460  1.00  0.00     0.053 C 
BRANCH  19  21
HETATM   21  O   UNL     1      26.862  43.279  48.979  1.00  0.00    -0.384 OA
HETATM   22  H   UNL     1      27.566  42.653  49.229  1.00  0.00     0.211 HD
ENDBRANCH  19  21
BRANCH  19  23
HETATM   23  C   UNL     1      25.924  45.254  49.973  1.00  0.00    -0.023 A 
HETATM   24  C   UNL     1      26.884  46.237  49.675  1.00  0.00     0.013 A 
HETATM   25  C   UNL     1      26.512  47.573  49.491  1.00  0.00     0.043 A 
HETATM   26  C   UNL     1      25.179  47.939  49.601  1.00  0.00     0.116 A 
HETATM   27  F   UNL     1      24.829  49.221  49.428  1.00  0.00    -0.206 F 
HETATM   28  C   UNL     1      24.207  46.995  49.892  1.00  0.00     0.043 A 
HETATM   29  C   UNL     1      24.578  45.663  50.080  1.00  0.00     0.013 A 
ENDBRANCH  19  23
ENDBRANCH  18  19
ENDBRANCH   1  18
TORSDOF 6
ENDMDL
MODEL 6
REMARK VINA RESULT:      -8.4      2.779      6.860
REMARK  6 active torsions:
REMARK  status: ('A' for Active; 'I' for Inactive)
REMARK    1  A    between atoms: C_2  and  O_3 
REMARK    2  A    between atoms: C_2  and  C_4 
REMARK    3  A    between atoms: C_2  and  C_11 
REMARK    4  A    between atoms: C_11  and  N_12 
REMARK       I    between atoms: N_12  and  C_13 
REMARK    5  A    between atoms: C_13  and  C_14 
REMARK    6  A    between atoms: C_15  and  C_16 
ROOT
HETATM    1  N   UNL     1      26.928  43.941  50.274  1.00  0.00    -0.354 N 
HETATM    2  C   UNL     1      26.425  42.769  50.800  1.00  0.00     0.255 C 
HETATM    3  O   UNL     1      25.229  42.500  50.776  1.00  0.00    -0.268 OA
HETATM    4  H   UNL     1      27.905  44.156  50.400  1.00  0.00     0.162 HD
ENDROOT
BRANCH   2   5
HETATM    5  C   UNL     1      27.422  41.896  51.408  1.00  0.00     0.080 A 
HETATM    6  C   UNL     1      28.121  42.049  52.654  1.00  0.00     0.104 A 
HETATM    7  N   UNL     1      28.926  40.994  52.882  1.00  0.00    -0.174 NA
HETATM    8  N   UNL     1      28.761  40.201  51.824  1.00  0.00    -0.288 N 
HETATM    9  H   UNL     1      29.283  39.330  51.794  1.00  0.00     0.188 HD
HETATM   10  C   UNL     1      27.880  40.686  50.910  1.00  0.00     0.128 A 
BRANCH   6  11
HETATM   11  C   UNL     1      28.078  43.141  53.631  1.00  0.00    -0.004 A 
HETATM   12  C   UNL     1      29.268  43.790  54.005  1.00  0.00     0.017 A 
HETATM   13  C   UNL     1      29.249  44.846  54.918  1.00  0.00     0.043 A 
HETATM   14  C   UNL     1      28.038  45.260  55.459  1.00  0.00     0.116 A 
HETATM   15  F   UNL     1      28.018  46.272  56.335  1.00  0.00    -0.206 F 
HETATM   16  C   UNL     1      26.848  44.643  55.096  1.00  0.00     0.043 A 
HETATM   17  C   UNL     1      26.866  43.589  54.178  1.00  0.00     0.017 A 
ENDBRANCH   6  11
ENDBRANCH   2   5
BRANCH   1  18
HETATM   18  C   UNL     1      26.079  44.936  49.640  1.00  0.00     0.165 C 
BRANCH  18  19
HETATM   19  C   UNL     1      25.528  46.031  50.601  1.00  0.00     0.097 C 
HETATM   20  C   UNL     1      26.497  46.200  51.785  1.00  0.00     0.053 C 
BRANCH  19  21
HETATM   21  O   UNL     1      24.318  45.511  51.188  1.00  0.00    -0.384 OA
HETATM   22  H   UNL     1      24.558  45.105  52.039  1.00  0.00     0.211 HD
ENDBRANCH  19  21
BRANCH  19  23
HETATM   23  C   UNL     1      25.173  47.334  49.879  1.00  0.00    -0.023 A 
HETATM   24  C   UNL     1      23.853  47.702  49.565  1.00  0.00     0.013 A 
HETATM   25  C   UNL     1      23.581  48.898  48.892  1.00  0.00     0.043 A 
HETATM   26  C   UNL     1      24.623  49.738  48.528  1.00  0.00     0.116 A 
HETATM   27  F   UNL     1      24.357  50.880  47.880  1.00  0.00    -0.206 F 
HETATM   28  C   UNL     1      25.936  49.406  48.824  1.00  0.00     0.043 A 
HETATM   29  C   UNL     1      26.209  48.211  49.492  1.00  0.00     0.013 A 
ENDBRANCH  19  23
ENDBRANCH  18  19
ENDBRANCH   1  18
TORSDOF 6
ENDMDL
MODEL 7
REMARK VINA RESULT:      -8.3      2.706      7.589
REMARK  6 active torsions:
REMARK  status: ('A' for Active; 'I' for Inactive)
REMARK    1  A    between atoms: C_2  and  O_3 
REMARK    2  A    between atoms: C_2  and  C_4 
REMARK    3  A    between atoms: C_2  and  C_11 
REMARK    4  A    between atoms: C_11  and  N_12 
REMARK       I    between atoms: N_12  and  C_13 
REMARK    5  A    between atoms: C_13  and  C_14 
REMARK    6  A    between atoms: C_15  and  C_16 
ROOT
HETATM    1  N   UNL     1      26.932  44.942  51.518  1.00  0.00    -0.354 N 
HETATM    2  C   UNL     1      26.813  43.952  52.472  1.00  0.00     0.255 C 
HETATM    3  O   UNL     1      25.868  43.902  53.251  1.00  0.00    -0.268 OA
HETATM    4  H   UNL     1      27.772  44.992  50.963  1.00  0.00     0.162 HD
ENDROOT
BRANCH   2   5
HETATM    5  C   UNL     1      27.911  42.993  52.493  1.00  0.00     0.080 A 
HETATM    6  C   UNL     1      29.028  42.915  53.393  1.00  0.00     0.104 A 
HETATM    7  N   UNL     1      29.797  41.847  53.109  1.00  0.00    -0.174 NA
HETATM    8  N   UNL     1      29.206  41.267  52.063  1.00  0.00    -0.288 N 
HETATM    9  H   UNL     1      29.628  40.426  51.683  1.00  0.00     0.188 HD
HETATM   10  C   UNL     1      28.080  41.906  51.649  1.00  0.00     0.128 A 
BRANCH   6  11
HETATM   11  C   UNL     1      29.413  43.800  54.497  1.00  0.00    -0.004 A 
HETATM   12  C   UNL     1      30.510  43.463  55.310  1.00  0.00     0.017 A 
HETATM   13  C   UNL     1      30.908  44.300  56.354  1.00  0.00     0.043 A 
HETATM   14  C   UNL     1      30.213  45.480  56.586  1.00  0.00     0.116 A 
HETATM   15  F   UNL     1      30.593  46.284  57.588  1.00  0.00    -0.206 F 
HETATM   16  C   UNL     1      29.135  45.841  55.789  1.00  0.00     0.043 A 
HETATM   17  C   UNL     1      28.739  45.005  54.740  1.00  0.00     0.017 A 
ENDBRANCH   6  11
ENDBRANCH   2   5
BRANCH   1  18
HETATM   18  C   UNL     1      25.938  45.992  51.360  1.00  0.00     0.165 C 
BRANCH  18  19
HETATM   19  C   UNL     1      25.091  45.898  50.056  1.00  0.00     0.097 C 
HETATM   20  C   UNL     1      23.910  44.938  50.287  1.00  0.00     0.053 C 
BRANCH  19  21
HETATM   21  O   UNL     1      25.909  45.241  49.066  1.00  0.00    -0.384 OA
HETATM   22  H   UNL     1      25.652  44.302  49.052  1.00  0.00     0.211 HD
ENDBRANCH  19  21
BRANCH  19  23
HETATM   23  C   UNL     1      24.698  47.269  49.500  1.00  0.00    -0.023 A 
HETATM   24  C   UNL     1      23.377  47.609  49.159  1.00  0.00     0.013 A 
HETATM   25  C   UNL     1      23.070  48.871  48.641  1.00  0.00     0.043 A 
HETATM   26  C   UNL     1      24.078  49.807  48.461  1.00  0.00     0.116 A 
HETATM   27  F   UNL     1      23.779  51.013  47.961  1.00  0.00    -0.206 F 
HETATM   28  C   UNL     1      25.391  49.506  48.788  1.00  0.00     0.043 A 
HETATM   29  C   UNL     1      25.699  48.244  49.300  1.00  0.00     0.013 A 
ENDBRANCH  19  23
ENDBRANCH  18  19
ENDBRANCH   1  18
TORSDOF 6
ENDMDL
MODEL 8
REMARK VINA RESULT:      -8.2      3.266      7.053
REMARK  6 active torsions:
REMARK  status: ('A' for Active; 'I' for Inactive)
REMARK    1  A    between atoms: C_2  and  O_3 
REMARK    2  A    between atoms: C_2  and  C_4 
REMARK    3  A    between atoms: C_2  and  C_11 
REMARK    4  A    between atoms: C_11  and  N_12 
REMARK       I    between atoms: N_12  and  C_13 
REMARK    5  A    between atoms: C_13  and  C_14 
REMARK    6  A    between atoms: C_15  and  C_16 
ROOT
HETATM    1  N   UNL     1      26.690  43.012  52.492  1.00  0.00    -0.354 N 
HETATM    2  C   UNL     1      27.126  44.279  52.164  1.00  0.00     0.255 C 
HETATM    3  O   UNL     1      27.758  44.511  51.139  1.00  0.00    -0.268 OA
HETATM    4  H   UNL     1      26.254  42.859  53.388  1.00  0.00     0.162 HD
ENDROOT
BRANCH   2   5
HETATM    5  C   UNL     1      26.797  45.309  53.143  1.00  0.00     0.080 A 
HETATM    6  C   UNL     1      27.508  45.688  54.332  1.00  0.00     0.104 A 
HETATM    7  N   UNL     1      26.902  46.723  54.942  1.00  0.00    -0.174 NA
HETATM    8  N   UNL     1      25.838  46.993  54.184  1.00  0.00    -0.288 N 
HETATM    9  H   UNL     1      25.233  47.757  54.467  1.00  0.00     0.188 HD
HETATM   10  C   UNL     1      25.721  46.182  53.100  1.00  0.00     0.128 A 
BRANCH   6  11
HETATM   11  C   UNL     1      28.721  45.118  54.927  1.00  0.00    -0.004 A 
HETATM   12  C   UNL     1      29.429  45.846  55.900  1.00  0.00     0.017 A 
HETATM   13  C   UNL     1      30.575  45.315  56.496  1.00  0.00     0.043 A 
HETATM   14  C   UNL     1      31.015  44.052  56.123  1.00  0.00     0.116 A 
HETATM   15  F   UNL     1      32.114  43.541  56.693  1.00  0.00    -0.206 F 
HETATM   16  C   UNL     1      30.327  43.308  55.174  1.00  0.00     0.043 A 
HETATM   17  C   UNL     1      29.176  43.837  54.581  1.00  0.00     0.017 A 
ENDBRANCH   6  11
ENDBRANCH   2   5
BRANCH   1  18
HETATM   18  C   UNL     1      26.939  41.860  51.640  1.00  0.00     0.165 C 
BRANCH  18  19
HETATM   19  C   UNL     1      28.291  41.133  51.903  1.00  0.00     0.097 C 
HETATM   20  C   UNL     1      28.292  40.569  53.334  1.00  0.00     0.053 C 
BRANCH  19  21
HETATM   21  O   UNL     1      29.321  42.142  51.905  1.00  0.00    -0.384 OA
HETATM   22  H   UNL     1      30.153  41.709  52.167  1.00  0.00     0.211 HD
ENDBRANCH  19  21
BRANCH  19  23
HETATM   23  C   UNL     1      28.641  40.113  50.816  1.00  0.00    -0.023 A 
HETATM   24  C   UNL     1      29.335  38.919  51.079  1.00  0.00     0.013 A 
HETATM   25  C   UNL     1      29.643  38.024  50.050  1.00  0.00     0.043 A 
HETATM   26  C   UNL     1      29.260  38.312  48.747  1.00  0.00     0.116 A 
HETATM   27  F   UNL     1      29.561  37.453  47.765  1.00  0.00    -0.206 F 
HETATM   28  C   UNL     1      28.573  39.479  48.453  1.00  0.00     0.043 A 
HETATM   29  C   UNL     1      28.269  40.375  49.480  1.00  0.00     0.013 A 
ENDBRANCH  19  23
ENDBRANCH  18  19
ENDBRANCH   1  18
TORSDOF 6
ENDMDL
MODEL 9
REMARK VINA RESULT:      -8.2      3.273      6.898
REMARK  6 active torsions:
REMARK  status: ('A' for Active; 'I' for Inactive)
REMARK    1  A    between atoms: C_2  and  O_3 
REMARK    2  A    between atoms: C_2  and  C_4 
REMARK    3  A    between atoms: C_2  and  C_11 
REMARK    4  A    between atoms: C_11  and  N_12 
REMARK       I    between atoms: N_12  and  C_13 
REMARK    5  A    between atoms: C_13  and  C_14 
REMARK    6  A    between atoms: C_15  and  C_16 
ROOT
HETATM    1  N   UNL     1      25.807  44.892  52.391  1.00  0.00    -0.354 N 
HETATM    2  C   UNL     1      26.053  44.836  53.747  1.00  0.00     0.255 C 
HETATM    3  O   UNL     1      25.873  43.818  54.405  1.00  0.00    -0.268 OA
HETATM    4  H   UNL     1      25.884  45.777  51.913  1.00  0.00     0.162 HD
ENDROOT
BRANCH   2   5
HETATM    5  C   UNL     1      26.515  46.088  54.334  1.00  0.00     0.080 A 
HETATM    6  C   UNL     1      27.746  46.366  55.021  1.00  0.00     0.104 A 
HETATM    7  N   UNL     1      27.818  47.665  55.367  1.00  0.00    -0.174 NA
HETATM    8  N   UNL     1      26.676  48.200  54.932  1.00  0.00    -0.288 N 
HETATM    9  H   UNL     1      26.523  49.191  55.090  1.00  0.00     0.188 HD
HETATM   10  C   UNL     1      25.859  47.309  54.312  1.00  0.00     0.128 A 
BRANCH   6  11
HETATM   11  C   UNL     1      28.852  45.470  55.376  1.00  0.00    -0.004 A 
HETATM   12  C   UNL     1      29.588  45.703  56.551  1.00  0.00     0.017 A 
HETATM   13  C   UNL     1      30.631  44.851  56.921  1.00  0.00     0.043 A 
HETATM   14  C   UNL     1      30.938  43.760  56.118  1.00  0.00     0.116 A 
HETATM   15  F   UNL     1      31.939  42.942  56.470  1.00  0.00    -0.206 F 
HETATM   16  C   UNL     1      30.218  43.502  54.959  1.00  0.00     0.043 A 
HETATM   17  C   UNL     1      29.170  44.351  54.591  1.00  0.00     0.017 A 
ENDBRANCH   6  11
ENDBRANCH   2   5
BRANCH   1  18
HETATM   18  C   UNL     1      25.329  43.742  51.640  1.00  0.00     0.165 C 
BRANCH  18  19
HETATM   19  C   UNL     1      26.239  43.317  50.449  1.00  0.00     0.097 C 
HETATM   20  C   UNL     1      26.971  44.555  49.903  1.00  0.00     0.053 C 
BRANCH  19  21
HETATM   21  O   UNL     1      25.368  42.902  49.378  1.00  0.00    -0.384 OA
HETATM   22  H   UNL     1      25.584  41.976  49.169  1.00  0.00     0.211 HD
ENDBRANCH  19  21
BRANCH  19  23
HETATM   23  C   UNL     1      27.153  42.136  50.790  1.00  0.00    -0.023 A 
HETATM   24  C   UNL     1      27.839  42.024  52.012  1.00  0.00     0.013 A 
HETATM   25  C   UNL     1      28.674  40.933  52.271  1.00  0.00     0.043 A 
HETATM   26  C   UNL     1      28.831  39.942  51.313  1.00  0.00     0.116 A 
HETATM   27  F   UNL     1      29.636  38.900  51.564  1.00  0.00    -0.206 F 
HETATM   28  C   UNL     1      28.169  40.020  50.098  1.00  0.00     0.043 A 
HETATM   29  C   UNL     1      27.338  41.111  49.837  1.00  0.00     0.013 A 
ENDBRANCH  19  23
ENDBRANCH  18  19
ENDBRANCH   1  18
TORSDOF 6
ENDMDL
MODEL 10
REMARK VINA RESULT:      -8.0     13.672     15.786
REMARK  6 active torsions:
REMARK  status: ('A' for Active; 'I' for Inactive)
REMARK    1  A    between atoms: C_2  and  O_3 
REMARK    2  A    between atoms: C_2  and  C_4 
REMARK    3  A    between atoms: C_2  and  C_11 
REMARK    4  A    between atoms: C_11  and  N_12 
REMARK       I    between atoms: N_12  and  C_13 
REMARK    5  A    between atoms: C_13  and  C_14 
REMARK    6  A    between atoms: C_15  and  C_16 
ROOT
HETATM    1  N   UNL     1      31.936  48.834  39.877  1.00  0.00    -0.354 N 
HETATM    2  C   UNL     1      32.826  48.518  40.883  1.00  0.00     0.255 C 
HETATM    3  O   UNL     1      32.959  47.374  41.305  1.00  0.00    -0.268 OA
HETATM    4  H   UNL     1      31.798  49.802  39.630  1.00  0.00     0.162 HD
ENDROOT
BRANCH   2   5
HETATM    5  C   UNL     1      33.569  49.652  41.418  1.00  0.00     0.080 A 
HETATM    6  C   UNL     1      33.088  50.949  41.805  1.00  0.00     0.104 A 
HETATM    7  N   UNL     1      34.087  51.701  42.302  1.00  0.00    -0.174 NA
HETATM    8  N   UNL     1      35.170  50.926  42.228  1.00  0.00    -0.288 N 
HETATM    9  H   UNL     1      36.051  51.305  42.561  1.00  0.00     0.188 HD
HETATM   10  C   UNL     1      34.924  49.695  41.707  1.00  0.00     0.128 A 
BRANCH   6  11
HETATM   11  C   UNL     1      31.739  51.518  41.720  1.00  0.00    -0.004 A 
HETATM   12  C   UNL     1      31.560  52.812  41.198  1.00  0.00     0.017 A 
HETATM   13  C   UNL     1      30.283  53.367  41.088  1.00  0.00     0.043 A 
HETATM   14  C   UNL     1      29.180  52.628  41.496  1.00  0.00     0.116 A 
HETATM   15  F   UNL     1      27.954  53.158  41.392  1.00  0.00    -0.206 F 
HETATM   16  C   UNL     1      29.330  51.343  42.003  1.00  0.00     0.043 A 
HETATM   17  C   UNL     1      30.607  50.785  42.108  1.00  0.00     0.017 A 
ENDBRANCH   6  11
ENDBRANCH   2   5
BRANCH   1  18
HETATM   18  C   UNL     1      31.101  47.832  39.235  1.00  0.00     0.165 C 
BRANCH  18  19
HETATM   19  C   UNL     1      29.586  48.191  39.167  1.00  0.00     0.097 C 
HETATM   20  C   UNL     1      28.912  47.791  40.492  1.00  0.00     0.053 C 
BRANCH  19  21
HETATM   21  O   UNL     1      28.990  47.329  38.177  1.00  0.00    -0.384 OA
HETATM   22  H   UNL     1      28.821  46.469  38.603  1.00  0.00     0.211 HD
ENDBRANCH  19  21
BRANCH  19  23
HETATM   23  C   UNL     1      29.335  49.638  38.737  1.00  0.00    -0.023 A 
HETATM   24  C   UNL     1      30.353  50.489  38.272  1.00  0.00     0.013 A 
HETATM   25  C   UNL     1      30.075  51.809  37.903  1.00  0.00     0.043 A 
HETATM   26  C   UNL     1      28.778  52.292  37.992  1.00  0.00     0.116 A 
HETATM   27  F   UNL     1      28.518  53.558  37.641  1.00  0.00    -0.206 F 
HETATM   28  C   UNL     1      27.749  51.480  38.445  1.00  0.00     0.043 A 
HETATM   29  C   UNL     1      28.027  50.164  38.818  1.00  0.00     0.013 A 
ENDBRANCH  19  23
ENDBRANCH  18  19
ENDBRANCH   1  18
TORSDOF 6
ENDMDL
