MODEL 1
REMARK VINA RESULT:     -10.4      0.000      0.000
REMARK  7 active torsions:
REMARK  status: ('A' for Active; 'I' for Inactive)
REMARK       I    between atoms: C_2  and  N_3 
REMARK    1  A    between atoms: N_3  and  C_4 
REMARK    2  A    between atoms: C_6  and  N_7 
REMARK       I    between atoms: N_7  and  C_8 
REMARK    3  A    between atoms: C_8  and  C_9 
REMARK       I    between atoms: C_9  and  N_10 
REMARK    4  A    between atoms: N_10  and  C_11 
REMARK    5  A    between atoms: C_11  and  C_12 
REMARK    6  A    between atoms: C_12  and  O_13 
REMARK    7  A    between atoms: C_12  and  C_14 
ROOT
HETATM    1  C   UNL     1      26.683  44.381  51.433  1.00  0.00     0.309 C 
HETATM    2  N   UNL     1      27.924  43.844  51.701  1.00  0.00    -0.350 N 
HETATM    3  O   UNL     1      25.641  44.125  52.020  1.00  0.00    -0.262 OA
HETATM    4  H   UNL     1      28.631  44.020  50.989  1.00  0.00     0.163 HD
ENDROOT
BRANCH   1   5
HETATM    5  C   UNL     1      26.668  45.372  50.249  1.00  0.00     0.313 C 
HETATM    6  N   UNL     1      26.276  46.632  50.645  1.00  0.00    -0.319 N 
HETATM    7  H   UNL     1      26.055  46.709  51.636  1.00  0.00     0.169 HD
HETATM    8  O   UNL     1      26.969  44.962  49.137  1.00  0.00    -0.262 OA
BRANCH   6   9
HETATM    9  C   UNL     1      26.130  47.784  49.854  1.00  0.00     0.037 A 
HETATM   10  C   UNL     1      24.894  48.287  49.435  1.00  0.00     0.059 A 
HETATM   11  C   UNL     1      24.816  49.447  48.646  1.00  0.00     0.036 A 
HETATM   12  C   UNL     1      25.992  50.100  48.282  1.00  0.00     0.029 A 
HETATM   13  C   UNL     1      27.231  49.602  48.693  1.00  0.00     0.004 A 
HETATM   14  C   UNL     1      27.299  48.448  49.473  1.00  0.00     0.029 A 
BRANCH  11  15
HETATM   15  N   UNL     1      23.527  49.878  48.267  1.00  0.00    -0.327 N 
HETATM   16  C   UNL     1      22.662  50.684  48.986  1.00  0.00     0.218 C 
HETATM   17  C   UNL     1      21.376  50.937  48.240  1.00  0.00     0.117 C 
HETATM   18  O   UNL     1      22.858  51.184  50.087  1.00  0.00    -0.274 OA
HETATM   19  H   UNL     1      23.206  49.565  47.359  1.00  0.00     0.169 HD
ENDBRANCH  11  15
ENDBRANCH   6   9
ENDBRANCH   1   5
BRANCH   2  20
HETATM   20  C   UNL     1      28.068  42.711  52.607  1.00  0.00     0.159 C 
BRANCH  20  21
HETATM   21  C   UNL     1      29.363  42.794  53.438  1.00  0.00     0.171 C 
BRANCH  21  22
HETATM   22  O   UNL     1      30.480  42.985  52.556  1.00  0.00    -0.389 OA
HETATM   23  H   UNL     1      30.151  42.813  51.657  1.00  0.00     0.210 HD
ENDBRANCH  21  22
BRANCH  21  24
HETATM   24  C   UNL     1      29.286  43.887  54.459  1.00  0.00     0.000 A 
HETATM   25  C   UNL     1      30.095  44.019  55.636  1.00  0.00     0.001 A 
HETATM   26  C   UNL     1      29.671  45.166  56.317  1.00  0.00     0.044 A 
HETATM   27  C   UNL     1      31.150  43.258  56.184  1.00  0.00     0.014 A 
HETATM   28  C   UNL     1      30.269  45.578  57.521  1.00  0.00     0.030 A 
HETATM   29  N   UNL     1      28.644  45.711  55.580  1.00  0.00    -0.360 N 
HETATM   30  C   UNL     1      31.310  44.803  58.042  1.00  0.00     0.002 A 
HETATM   31  C   UNL     1      31.746  43.659  57.385  1.00  0.00     0.001 A 
HETATM   32  C   UNL     1      27.900  46.910  55.902  1.00  0.00     0.155 C 
HETATM   33  C   UNL     1      28.406  44.953  54.467  1.00  0.00     0.101 A 
ENDBRANCH  21  24
ENDBRANCH  20  21
ENDBRANCH   2  20
TORSDOF 7
ENDMDL
MODEL 2
REMARK VINA RESULT:      -9.7      1.356      2.453
REMARK  7 active torsions:
REMARK  status: ('A' for Active; 'I' for Inactive)
REMARK       I    between atoms: C_2  and  N_3 
REMARK    1  A    between atoms: N_3  and  C_4 
REMARK    2  A    between atoms: C_6  and  N_7 
REMARK       I    between atoms: N_7  and  C_8 
REMARK    3  A    between atoms: C_8  and  C_9 
REMARK       I    between atoms: C_9  and  N_10 
REMARK    4  A    between atoms: N_10  and  C_11 
REMARK    5  A    between atoms: C_11  and  C_12 
REMARK    6  A    between atoms: C_12  and  O_13 
REMARK    7  A    between atoms: C_12  and  C_14 
ROOT
HETATM    1  C   UNL     1      25.923  43.699  50.539  1.00  0.00     0.309 C 
HETATM    2  N   UNL     1      27.254  43.671  50.899  1.00  0.00    -0.350 N 
HETATM    3  O   UNL     1      25.075  42.869  50.833  1.00  0.00    -0.262 OA
HETATM    4  H   UNL     1      27.848  44.332  50.402  1.00  0.00     0.163 HD
ENDROOT
BRANCH   1   5
HETATM    5  C   UNL     1      25.536  44.906  49.656  1.00  0.00     0.313 C 
HETATM    6  N   UNL     1      26.119  46.071  50.103  1.00  0.00    -0.319 N 
HETATM    7  H   UNL     1      26.697  45.958  50.934  1.00  0.00     0.169 HD
HETATM    8  O   UNL     1      24.780  44.724  48.713  1.00  0.00    -0.262 OA
BRANCH   6   9
HETATM    9  C   UNL     1      25.991  47.365  49.570  1.00  0.00     0.037 A 
HETATM   10  C   UNL     1      24.766  47.953  49.243  1.00  0.00     0.059 A 
HETATM   11  C   UNL     1      24.706  49.254  48.715  1.00  0.00     0.036 A 
HETATM   12  C   UNL     1      25.891  49.961  48.520  1.00  0.00     0.029 A 
HETATM   13  C   UNL     1      27.120  49.380  48.841  1.00  0.00     0.004 A 
HETATM   14  C   UNL     1      27.170  48.087  49.361  1.00  0.00     0.029 A 
BRANCH  11  15
HETATM   15  N   UNL     1      23.426  49.764  48.410  1.00  0.00    -0.327 N 
HETATM   16  C   UNL     1      22.647  50.606  49.184  1.00  0.00     0.218 C 
HETATM   17  C   UNL     1      21.341  50.943  48.511  1.00  0.00     0.117 C 
HETATM   18  O   UNL     1      22.929  51.077  50.280  1.00  0.00    -0.274 OA
HETATM   19  H   UNL     1      23.041  49.483  47.517  1.00  0.00     0.169 HD
ENDBRANCH  11  15
ENDBRANCH   6   9
ENDBRANCH   1   5
BRANCH   2  20
HETATM   20  C   UNL     1      27.837  42.482  51.508  1.00  0.00     0.159 C 
BRANCH  20  21
HETATM   21  C   UNL     1      27.433  42.328  52.987  1.00  0.00     0.171 C 
BRANCH  21  22
HETATM   22  O   UNL     1      27.570  40.953  53.374  1.00  0.00    -0.389 OA
HETATM   23  H   UNL     1      28.525  40.763  53.377  1.00  0.00     0.210 HD
ENDBRANCH  21  22
BRANCH  21  24
HETATM   24  C   UNL     1      28.246  43.223  53.870  1.00  0.00     0.000 A 
HETATM   25  C   UNL     1      27.958  44.587  54.206  1.00  0.00     0.001 A 
HETATM   26  C   UNL     1      28.989  45.050  55.032  1.00  0.00     0.044 A 
HETATM   27  C   UNL     1      26.908  45.472  53.876  1.00  0.00     0.014 A 
HETATM   28  C   UNL     1      29.002  46.360  55.539  1.00  0.00     0.030 A 
HETATM   29  N   UNL     1      29.871  44.004  55.191  1.00  0.00    -0.360 N 
HETATM   30  C   UNL     1      27.951  47.215  55.193  1.00  0.00     0.002 A 
HETATM   31  C   UNL     1      26.917  46.779  54.373  1.00  0.00     0.001 A 
HETATM   32  C   UNL     1      31.090  44.023  55.970  1.00  0.00     0.155 C 
HETATM   33  C   UNL     1      29.436  42.907  54.499  1.00  0.00     0.101 A 
ENDBRANCH  21  24
ENDBRANCH  20  21
ENDBRANCH   2  20
TORSDOF 7
ENDMDL
MODEL 3
REMARK VINA RESULT:      -9.7      1.812      2.426
REMARK  7 active torsions:
REMARK  status: ('A' for Active; 'I' for Inactive)
REMARK       I    between atoms: C_2  and  N_3 
REMARK    1  A    between atoms: N_3  and  C_4 
REMARK    2  A    between atoms: C_6  and  N_7 
REMARK       I    between atoms: N_7  and  C_8 
REMARK    3  A    between atoms: C_8  and  C_9 
REMARK       I    between atoms: C_9  and  N_10 
REMARK    4  A    between atoms: N_10  and  C_11 
REMARK    5  A    between atoms: C_11  and  C_12 
REMARK    6  A    between atoms: C_12  and  O_13 
REMARK    7  A    between atoms: C_12  and  C_14 
ROOT
HETATM    1  C   UNL     1      23.911  44.661  50.586  1.00  0.00     0.309 C 
HETATM    2  N   UNL     1      25.063  44.803  51.331  1.00  0.00    -0.350 N 
HETATM    3  O   UNL     1      23.075  43.777  50.707  1.00  0.00    -0.262 OA
HETATM    4  H   UNL     1      25.733  45.475  50.961  1.00  0.00     0.163 HD
ENDROOT
BRANCH   1   5
HETATM    5  C   UNL     1      23.732  45.736  49.492  1.00  0.00     0.313 C 
HETATM    6  N   UNL     1      23.899  47.007  49.997  1.00  0.00    -0.319 N 
HETATM    7  H   UNL     1      24.103  47.038  50.994  1.00  0.00     0.169 HD
HETATM    8  O   UNL     1      23.457  45.377  48.357  1.00  0.00    -0.262 OA
BRANCH   6   9
HETATM    9  C   UNL     1      23.800  48.231  49.314  1.00  0.00     0.037 A 
HETATM   10  C   UNL     1      22.592  48.898  49.085  1.00  0.00     0.059 A 
HETATM   11  C   UNL     1      22.561  50.122  48.397  1.00  0.00     0.036 A 
HETATM   12  C   UNL     1      23.757  50.674  47.942  1.00  0.00     0.029 A 
HETATM   13  C   UNL     1      24.968  50.015  48.164  1.00  0.00     0.004 A 
HETATM   14  C   UNL     1      24.988  48.797  48.845  1.00  0.00     0.029 A 
BRANCH  11  15
HETATM   15  N   UNL     1      21.296  50.719  48.207  1.00  0.00    -0.327 N 
HETATM   16  C   UNL     1      20.441  51.208  49.178  1.00  0.00     0.218 C 
HETATM   17  C   UNL     1      19.183  51.787  48.581  1.00  0.00     0.117 C 
HETATM   18  O   UNL     1      20.626  51.224  50.389  1.00  0.00    -0.274 OA
HETATM   19  H   UNL     1      20.988  50.803  47.246  1.00  0.00     0.169 HD
ENDBRANCH  11  15
ENDBRANCH   6   9
ENDBRANCH   1   5
BRANCH   2  20
HETATM   20  C   UNL     1      25.512  43.740  52.221  1.00  0.00     0.159 C 
BRANCH  20  21
HETATM   21  C   UNL     1      27.049  43.669  52.311  1.00  0.00     0.171 C 
BRANCH  21  22
HETATM   22  O   UNL     1      27.614  44.043  51.046  1.00  0.00    -0.389 OA
HETATM   23  H   UNL     1      28.340  44.660  51.242  1.00  0.00     0.210 HD
ENDBRANCH  21  22
BRANCH  21  24
HETATM   24  C   UNL     1      27.571  44.536  53.416  1.00  0.00     0.000 A 
HETATM   25  C   UNL     1      28.717  44.279  54.238  1.00  0.00     0.001 A 
HETATM   26  C   UNL     1      28.827  45.330  55.156  1.00  0.00     0.044 A 
HETATM   27  C   UNL     1      29.670  43.238  54.285  1.00  0.00     0.014 A 
HETATM   28  C   UNL     1      29.857  45.377  56.110  1.00  0.00     0.030 A 
HETATM   29  N   UNL     1      27.786  46.195  54.899  1.00  0.00    -0.360 N 
HETATM   30  C   UNL     1      30.785  44.332  56.135  1.00  0.00     0.002 A 
HETATM   31  C   UNL     1      30.694  43.276  55.236  1.00  0.00     0.001 A 
HETATM   32  C   UNL     1      27.502  47.427  55.602  1.00  0.00     0.155 C 
HETATM   33  C   UNL     1      27.029  45.728  53.859  1.00  0.00     0.101 A 
ENDBRANCH  21  24
ENDBRANCH  20  21
ENDBRANCH   2  20
TORSDOF 7
ENDMDL
MODEL 4
REMARK VINA RESULT:      -9.6      4.236      7.518
REMARK  7 active torsions:
REMARK  status: ('A' for Active; 'I' for Inactive)
REMARK       I    between atoms: C_2  and  N_3 
REMARK    1  A    between atoms: N_3  and  C_4 
REMARK    2  A    between atoms: C_6  and  N_7 
REMARK       I    between atoms: N_7  and  C_8 
REMARK    3  A    between atoms: C_8  and  C_9 
REMARK       I    between atoms: C_9  and  N_10 
REMARK    4  A    between atoms: N_10  and  C_11 
REMARK    5  A    between atoms: C_11  and  C_12 
REMARK    6  A    between atoms: C_12  and  O_13 
REMARK    7  A    between atoms: C_12  and  C_14 
ROOT
HETATM    1  C   UNL     1      25.186  44.071  51.770  1.00  0.00     0.309 C 
HETATM    2  N   UNL     1      25.678  43.942  53.051  1.00  0.00    -0.350 N 
HETATM    3  O   UNL     1      24.635  45.057  51.301  1.00  0.00    -0.262 OA
HETATM    4  H   UNL     1      25.921  42.991  53.324  1.00  0.00     0.163 HD
ENDROOT
BRANCH   1   5
HETATM    5  C   UNL     1      25.350  42.805  50.901  1.00  0.00     0.313 C 
HETATM    6  N   UNL     1      26.674  42.452  50.761  1.00  0.00    -0.319 N 
HETATM    7  H   UNL     1      27.325  43.075  51.236  1.00  0.00     0.169 HD
HETATM    8  O   UNL     1      24.349  42.279  50.435  1.00  0.00    -0.262 OA
BRANCH   6   9
HETATM    9  C   UNL     1      27.213  41.375  50.037  1.00  0.00     0.037 A 
HETATM   10  C   UNL     1      27.612  40.169  50.621  1.00  0.00     0.059 A 
HETATM   11  C   UNL     1      28.142  39.128  49.840  1.00  0.00     0.036 A 
HETATM   12  C   UNL     1      28.266  39.309  48.464  1.00  0.00     0.029 A 
HETATM   13  C   UNL     1      27.872  40.511  47.872  1.00  0.00     0.004 A 
HETATM   14  C   UNL     1      27.351  41.540  48.656  1.00  0.00     0.029 A 
BRANCH  11  15
HETATM   15  N   UNL     1      28.523  37.949  50.517  1.00  0.00    -0.327 N 
HETATM   16  C   UNL     1      29.806  37.503  50.776  1.00  0.00     0.218 C 
HETATM   17  C   UNL     1      29.807  36.202  51.539  1.00  0.00     0.117 C 
HETATM   18  O   UNL     1      30.858  38.054  50.474  1.00  0.00    -0.274 OA
HETATM   19  H   UNL     1      27.764  37.372  50.857  1.00  0.00     0.169 HD
ENDBRANCH  11  15
ENDBRANCH   6   9
ENDBRANCH   1   5
BRANCH   2  20
HETATM   20  C   UNL     1      25.378  44.938  54.071  1.00  0.00     0.159 C 
BRANCH  20  21
HETATM   21  C   UNL     1      26.398  46.093  54.073  1.00  0.00     0.171 C 
BRANCH  21  22
HETATM   22  O   UNL     1      25.766  47.281  54.573  1.00  0.00    -0.389 OA
HETATM   23  H   UNL     1      26.472  47.942  54.680  1.00  0.00     0.210 HD
ENDBRANCH  21  22
BRANCH  21  24
HETATM   24  C   UNL     1      27.612  45.745  54.879  1.00  0.00     0.000 A 
HETATM   25  C   UNL     1      28.604  44.762  54.552  1.00  0.00     0.001 A 
HETATM   26  C   UNL     1      29.545  44.746  55.589  1.00  0.00     0.044 A 
HETATM   27  C   UNL     1      28.782  43.880  53.464  1.00  0.00     0.014 A 
HETATM   28  C   UNL     1      30.655  43.884  55.570  1.00  0.00     0.030 A 
HETATM   29  N   UNL     1      29.139  45.685  56.510  1.00  0.00    -0.360 N 
HETATM   30  C   UNL     1      30.804  43.020  54.481  1.00  0.00     0.002 A 
HETATM   31  C   UNL     1      29.881  43.016  53.442  1.00  0.00     0.001 A 
HETATM   32  C   UNL     1      29.810  46.017  57.748  1.00  0.00     0.155 C 
HETATM   33  C   UNL     1      27.983  46.288  56.094  1.00  0.00     0.101 A 
ENDBRANCH  21  24
ENDBRANCH  20  21
ENDBRANCH   2  20
TORSDOF 7
ENDMDL
MODEL 5
REMARK VINA RESULT:      -9.5      1.958      3.368
REMARK  7 active torsions:
REMARK  status: ('A' for Active; 'I' for Inactive)
REMARK       I    between atoms: C_2  and  N_3 
REMARK    1  A    between atoms: N_3  and  C_4 
REMARK    2  A    between atoms: C_6  and  N_7 
REMARK       I    between atoms: N_7  and  C_8 
REMARK    3  A    between atoms: C_8  and  C_9 
REMARK       I    between atoms: C_9  and  N_10 
REMARK    4  A    between atoms: N_10  and  C_11 
REMARK    5  A    between atoms: C_11  and  C_12 
REMARK    6  A    between atoms: C_12  and  O_13 
REMARK    7  A    between atoms: C_12  and  C_14 
ROOT
HETATM    1  C   UNL     1      26.600  45.947  50.043  1.00  0.00     0.309 C 
HETATM    2  N   UNL     1      26.174  44.885  50.812  1.00  0.00    -0.350 N 
HETATM    3  O   UNL     1      27.540  45.943  49.261  1.00  0.00    -0.262 OA
HETATM    4  H   UNL     1      25.509  45.126  51.545  1.00  0.00     0.163 HD
ENDROOT
BRANCH   1   5
HETATM    5  C   UNL     1      25.791  47.245  50.257  1.00  0.00     0.313 C 
HETATM    6  N   UNL     1      25.029  47.557  49.153  1.00  0.00    -0.319 N 
HETATM    7  H   UNL     1      25.123  46.900  48.381  1.00  0.00     0.169 HD
HETATM    8  O   UNL     1      25.913  47.844  51.316  1.00  0.00    -0.262 OA
BRANCH   6   9
HETATM    9  C   UNL     1      24.180  48.661  48.969  1.00  0.00     0.037 A 
HETATM   10  C   UNL     1      22.912  48.770  49.549  1.00  0.00     0.059 A 
HETATM   11  C   UNL     1      22.111  49.903  49.327  1.00  0.00     0.036 A 
HETATM   12  C   UNL     1      22.597  50.929  48.519  1.00  0.00     0.029 A 
HETATM   13  C   UNL     1      23.861  50.827  47.934  1.00  0.00     0.004 A 
HETATM   14  C   UNL     1      24.647  49.697  48.156  1.00  0.00     0.029 A 
BRANCH  11  15
HETATM   15  N   UNL     1      20.844  49.924  49.949  1.00  0.00    -0.327 N 
HETATM   16  C   UNL     1      19.630  49.550  49.401  1.00  0.00     0.218 C 
HETATM   17  C   UNL     1      18.497  49.700  50.385  1.00  0.00     0.117 C 
HETATM   18  O   UNL     1      19.428  49.120  48.272  1.00  0.00    -0.274 OA
HETATM   19  H   UNL     1      20.830  50.242  50.910  1.00  0.00     0.169 HD
ENDBRANCH  11  15
ENDBRANCH   6   9
ENDBRANCH   1   5
BRANCH   2  20
HETATM   20  C   UNL     1      26.977  43.674  50.925  1.00  0.00     0.159 C 
BRANCH  20  21
HETATM   21  C   UNL     1      26.777  42.969  52.281  1.00  0.00     0.171 C 
BRANCH  21  22
HETATM   22  O   UNL     1      26.929  41.553  52.104  1.00  0.00    -0.389 OA
HETATM   23  H   UNL     1      26.729  41.146  52.965  1.00  0.00     0.210 HD
ENDBRANCH  21  22
BRANCH  21  24
HETATM   24  C   UNL     1      27.730  43.492  53.312  1.00  0.00     0.000 A 
HETATM   25  C   UNL     1      27.638  44.742  54.008  1.00  0.00     0.001 A 
HETATM   26  C   UNL     1      28.747  44.840  54.857  1.00  0.00     0.044 A 
HETATM   27  C   UNL     1      26.707  45.804  53.986  1.00  0.00     0.014 A 
HETATM   28  C   UNL     1      28.951  45.956  55.685  1.00  0.00     0.030 A 
HETATM   29  N   UNL     1      29.484  43.690  54.683  1.00  0.00    -0.360 N 
HETATM   30  C   UNL     1      28.015  46.994  55.641  1.00  0.00     0.002 A 
HETATM   31  C   UNL     1      26.908  46.921  54.804  1.00  0.00     0.001 A 
HETATM   32  C   UNL     1      30.718  43.353  55.359  1.00  0.00     0.155 C 
HETATM   33  C   UNL     1      28.884  42.878  53.760  1.00  0.00     0.101 A 
ENDBRANCH  21  24
ENDBRANCH  20  21
ENDBRANCH   2  20
TORSDOF 7
ENDMDL
MODEL 6
REMARK VINA RESULT:      -9.4      2.596      4.351
REMARK  7 active torsions:
REMARK  status: ('A' for Active; 'I' for Inactive)
REMARK       I    between atoms: C_2  and  N_3 
REMARK    1  A    between atoms: N_3  and  C_4 
REMARK    2  A    between atoms: C_6  and  N_7 
REMARK       I    between atoms: N_7  and  C_8 
REMARK    3  A    between atoms: C_8  and  C_9 
REMARK       I    between atoms: C_9  and  N_10 
REMARK    4  A    between atoms: N_10  and  C_11 
REMARK    5  A    between atoms: C_11  and  C_12 
REMARK    6  A    between atoms: C_12  and  O_13 
REMARK    7  A    between atoms: C_12  and  C_14 
ROOT
HETATM    1  C   UNL     1      25.167  47.342  50.253  1.00  0.00     0.309 C 
HETATM    2  N   UNL     1      24.907  45.988  50.280  1.00  0.00    -0.350 N 
HETATM    3  O   UNL     1      26.137  47.903  50.744  1.00  0.00    -0.262 OA
HETATM    4  H   UNL     1      23.963  45.727  49.999  1.00  0.00     0.163 HD
ENDROOT
BRANCH   1   5
HETATM    5  C   UNL     1      24.078  48.179  49.548  1.00  0.00     0.313 C 
HETATM    6  N   UNL     1      22.949  47.432  49.292  1.00  0.00    -0.319 N 
HETATM    7  H   UNL     1      23.011  46.462  49.596  1.00  0.00     0.169 HD
HETATM    8  O   UNL     1      24.317  49.348  49.283  1.00  0.00    -0.262 OA
BRANCH   6   9
HETATM    9  C   UNL     1      21.764  47.841  48.657  1.00  0.00     0.037 A 
HETATM   10  C   UNL     1      21.091  49.029  48.959  1.00  0.00     0.059 A 
HETATM   11  C   UNL     1      19.910  49.382  48.285  1.00  0.00     0.036 A 
HETATM   12  C   UNL     1      19.411  48.531  47.301  1.00  0.00     0.029 A 
HETATM   13  C   UNL     1      20.076  47.341  46.994  1.00  0.00     0.004 A 
HETATM   14  C   UNL     1      21.245  46.997  47.672  1.00  0.00     0.029 A 
BRANCH  11  15
HETATM   15  N   UNL     1      19.297  50.597  48.660  1.00  0.00    -0.327 N 
HETATM   16  C   UNL     1      18.546  50.848  49.794  1.00  0.00     0.218 C 
HETATM   17  C   UNL     1      18.070  52.277  49.851  1.00  0.00     0.117 C 
HETATM   18  O   UNL     1      18.281  50.061  50.696  1.00  0.00    -0.274 OA
HETATM   19  H   UNL     1      19.432  51.374  48.024  1.00  0.00     0.169 HD
ENDBRANCH  11  15
ENDBRANCH   6   9
ENDBRANCH   1   5
BRANCH   2  20
HETATM   20  C   UNL     1      25.691  45.093  51.121  1.00  0.00     0.159 C 
BRANCH  20  21
HETATM   21  C   UNL     1      25.125  44.995  52.551  1.00  0.00     0.171 C 
BRANCH  21  22
HETATM   22  O   UNL     1      24.984  43.612  52.909  1.00  0.00    -0.389 OA
HETATM   23  H   UNL     1      25.874  43.222  52.851  1.00  0.00     0.210 HD
ENDBRANCH  21  22
BRANCH  21  24
HETATM   24  C   UNL     1      25.993  45.722  53.531  1.00  0.00     0.000 A 
HETATM   25  C   UNL     1      27.228  45.257  54.092  1.00  0.00     0.001 A 
HETATM   26  C   UNL     1      27.689  46.238  54.979  1.00  0.00     0.044 A 
HETATM   27  C   UNL     1      27.994  44.083  53.925  1.00  0.00     0.014 A 
HETATM   28  C   UNL     1      28.887  46.084  55.696  1.00  0.00     0.030 A 
HETATM   29  N   UNL     1      26.767  47.261  54.956  1.00  0.00    -0.360 N 
HETATM   30  C   UNL     1      29.624  44.910  55.513  1.00  0.00     0.002 A 
HETATM   31  C   UNL     1      29.185  43.921  54.640  1.00  0.00     0.001 A 
HETATM   32  C   UNL     1      26.832  48.489  55.718  1.00  0.00     0.155 C 
HETATM   33  C   UNL     1      25.749  46.961  54.093  1.00  0.00     0.101 A 
ENDBRANCH  21  24
ENDBRANCH  20  21
ENDBRANCH   2  20
TORSDOF 7
ENDMDL
MODEL 7
REMARK VINA RESULT:      -9.3      2.465      4.210
REMARK  7 active torsions:
REMARK  status: ('A' for Active; 'I' for Inactive)
REMARK       I    between atoms: C_2  and  N_3 
REMARK    1  A    between atoms: N_3  and  C_4 
REMARK    2  A    between atoms: C_6  and  N_7 
REMARK       I    between atoms: N_7  and  C_8 
REMARK    3  A    between atoms: C_8  and  C_9 
REMARK       I    between atoms: C_9  and  N_10 
REMARK    4  A    between atoms: N_10  and  C_11 
REMARK    5  A    between atoms: C_11  and  C_12 
REMARK    6  A    between atoms: C_12  and  O_13 
REMARK    7  A    between atoms: C_12  and  C_14 
ROOT
HETATM    1  C   UNL     1      25.007  46.297  50.134  1.00  0.00     0.309 C 
HETATM    2  N   UNL     1      24.963  46.483  51.499  1.00  0.00    -0.350 N 
HETATM    3  O   UNL     1      25.913  45.771  49.503  1.00  0.00    -0.262 OA
HETATM    4  H   UNL     1      24.229  47.111  51.823  1.00  0.00     0.163 HD
ENDROOT
BRANCH   1   5
HETATM    5  C   UNL     1      23.777  46.853  49.383  1.00  0.00     0.313 C 
HETATM    6  N   UNL     1      23.518  48.161  49.729  1.00  0.00    -0.319 N 
HETATM    7  H   UNL     1      24.161  48.546  50.419  1.00  0.00     0.169 HD
HETATM    8  O   UNL     1      23.178  46.116  48.613  1.00  0.00    -0.262 OA
BRANCH   6   9
HETATM    9  C   UNL     1      22.483  48.991  49.269  1.00  0.00     0.037 A 
HETATM   10  C   UNL     1      21.180  48.546  49.022  1.00  0.00     0.059 A 
HETATM   11  C   UNL     1      20.189  49.430  48.564  1.00  0.00     0.036 A 
HETATM   12  C   UNL     1      20.516  50.768  48.358  1.00  0.00     0.029 A 
HETATM   13  C   UNL     1      21.815  51.221  48.599  1.00  0.00     0.004 A 
HETATM   14  C   UNL     1      22.794  50.336  49.050  1.00  0.00     0.029 A 
BRANCH  11  15
HETATM   15  N   UNL     1      18.904  48.890  48.337  1.00  0.00    -0.327 N 
HETATM   16  C   UNL     1      18.042  48.345  49.272  1.00  0.00     0.218 C 
HETATM   17  C   UNL     1      16.749  47.885  48.645  1.00  0.00     0.117 C 
HETATM   18  O   UNL     1      18.228  48.239  50.479  1.00  0.00    -0.274 OA
HETATM   19  H   UNL     1      18.579  48.913  47.379  1.00  0.00     0.169 HD
ENDBRANCH  11  15
ENDBRANCH   6   9
ENDBRANCH   1   5
BRANCH   2  20
HETATM   20  C   UNL     1      26.143  46.254  52.322  1.00  0.00     0.159 C 
BRANCH  20  21
HETATM   21  C   UNL     1      25.889  45.205  53.423  1.00  0.00     0.171 C 
BRANCH  21  22
HETATM   22  O   UNL     1      24.674  44.499  53.131  1.00  0.00    -0.389 OA
HETATM   23  H   UNL     1      24.124  44.557  53.932  1.00  0.00     0.210 HD
ENDBRANCH  21  22
BRANCH  21  24
HETATM   24  C   UNL     1      27.045  44.262  53.554  1.00  0.00     0.000 A 
HETATM   25  C   UNL     1      28.201  44.435  54.385  1.00  0.00     0.001 A 
HETATM   26  C   UNL     1      29.040  43.333  54.182  1.00  0.00     0.044 A 
HETATM   27  C   UNL     1      28.609  45.437  55.292  1.00  0.00     0.014 A 
HETATM   28  C   UNL     1      30.265  43.198  54.857  1.00  0.00     0.030 A 
HETATM   29  N   UNL     1      28.415  42.521  53.261  1.00  0.00    -0.360 N 
HETATM   30  C   UNL     1      30.645  44.207  55.747  1.00  0.00     0.002 A 
HETATM   31  C   UNL     1      29.830  45.312  55.963  1.00  0.00     0.001 A 
HETATM   32  C   UNL     1      28.916  41.264  52.749  1.00  0.00     0.155 C 
HETATM   33  C   UNL     1      27.222  43.069  52.879  1.00  0.00     0.101 A 
ENDBRANCH  21  24
ENDBRANCH  20  21
ENDBRANCH   2  20
TORSDOF 7
ENDMDL
MODEL 8
REMARK VINA RESULT:      -9.0      2.332      3.425
REMARK  7 active torsions:
REMARK  status: ('A' for Active; 'I' for Inactive)
REMARK       I    between atoms: C_2  and  N_3 
REMARK    1  A    between atoms: N_3  and  C_4 
REMARK    2  A    between atoms: C_6  and  N_7 
REMARK       I    between atoms: N_7  and  C_8 
REMARK    3  A    between atoms: C_8  and  C_9 
REMARK       I    between atoms: C_9  and  N_10 
REMARK    4  A    between atoms: N_10  and  C_11 
REMARK    5  A    between atoms: C_11  and  C_12 
REMARK    6  A    between atoms: C_12  and  O_13 
REMARK    7  A    between atoms: C_12  and  C_14 
ROOT
HETATM    1  C   UNL     1      25.992  43.298  50.502  1.00  0.00     0.309 C 
HETATM    2  N   UNL     1      27.257  43.473  51.020  1.00  0.00    -0.350 N 
HETATM    3  O   UNL     1      25.274  42.320  50.657  1.00  0.00    -0.262 OA
HETATM    4  H   UNL     1      27.778  44.254  50.626  1.00  0.00     0.163 HD
ENDROOT
BRANCH   1   5
HETATM    5  C   UNL     1      25.502  44.473  49.627  1.00  0.00     0.313 C 
HETATM    6  N   UNL     1      24.140  44.424  49.427  1.00  0.00    -0.319 N 
HETATM    7  H   UNL     1      23.679  43.632  49.873  1.00  0.00     0.169 HD
HETATM    8  O   UNL     1      26.324  45.274  49.206  1.00  0.00    -0.262 OA
BRANCH   6   9
HETATM    9  C   UNL     1      23.340  45.305  48.680  1.00  0.00     0.037 A 
HETATM   10  C   UNL     1      23.183  46.661  48.986  1.00  0.00     0.059 A 
HETATM   11  C   UNL     1      22.370  47.491  48.196  1.00  0.00     0.036 A 
HETATM   12  C   UNL     1      21.717  46.947  47.092  1.00  0.00     0.029 A 
HETATM   13  C   UNL     1      21.866  45.594  46.780  1.00  0.00     0.004 A 
HETATM   14  C   UNL     1      22.672  44.777  47.572  1.00  0.00     0.029 A 
BRANCH  11  15
HETATM   15  N   UNL     1      22.267  48.844  48.585  1.00  0.00    -0.327 N 
HETATM   16  C   UNL     1      23.019  49.912  48.128  1.00  0.00     0.218 C 
HETATM   17  C   UNL     1      22.602  51.210  48.771  1.00  0.00     0.117 C 
HETATM   18  O   UNL     1      23.911  49.885  47.289  1.00  0.00    -0.274 OA
HETATM   19  H   UNL     1      21.554  49.052  49.272  1.00  0.00     0.169 HD
ENDBRANCH  11  15
ENDBRANCH   6   9
ENDBRANCH   1   5
BRANCH   2  20
HETATM   20  C   UNL     1      27.967  42.366  51.647  1.00  0.00     0.159 C 
BRANCH  20  21
HETATM   21  C   UNL     1      27.582  42.193  53.129  1.00  0.00     0.171 C 
BRANCH  21  22
HETATM   22  O   UNL     1      27.761  40.820  53.507  1.00  0.00    -0.389 OA
HETATM   23  H   UNL     1      27.403  40.735  54.408  1.00  0.00     0.210 HD
ENDBRANCH  21  22
BRANCH  21  24
HETATM   24  C   UNL     1      28.381  43.106  54.009  1.00  0.00     0.000 A 
HETATM   25  C   UNL     1      28.078  44.471  54.327  1.00  0.00     0.001 A 
HETATM   26  C   UNL     1      29.098  44.952  55.156  1.00  0.00     0.044 A 
HETATM   27  C   UNL     1      27.023  45.342  53.978  1.00  0.00     0.014 A 
HETATM   28  C   UNL     1      29.095  46.268  55.648  1.00  0.00     0.030 A 
HETATM   29  N   UNL     1      29.988  43.916  55.334  1.00  0.00    -0.360 N 
HETATM   30  C   UNL     1      28.040  47.109  55.284  1.00  0.00     0.002 A 
HETATM   31  C   UNL     1      27.017  46.655  54.460  1.00  0.00     0.001 A 
HETATM   32  C   UNL     1      31.201  43.955  56.122  1.00  0.00     0.155 C 
HETATM   33  C   UNL     1      29.568  42.808  54.652  1.00  0.00     0.101 A 
ENDBRANCH  21  24
ENDBRANCH  20  21
ENDBRANCH   2  20
TORSDOF 7
ENDMDL
MODEL 9
REMARK VINA RESULT:      -8.9      2.713      4.136
REMARK  7 active torsions:
REMARK  status: ('A' for Active; 'I' for Inactive)
REMARK       I    between atoms: C_2  and  N_3 
REMARK    1  A    between atoms: N_3  and  C_4 
REMARK    2  A    between atoms: C_6  and  N_7 
REMARK       I    between atoms: N_7  and  C_8 
REMARK    3  A    between atoms: C_8  and  C_9 
REMARK       I    between atoms: C_9  and  N_10 
REMARK    4  A    between atoms: N_10  and  C_11 
REMARK    5  A    between atoms: C_11  and  C_12 
REMARK    6  A    between atoms: C_12  and  O_13 
REMARK    7  A    between atoms: C_12  and  C_14 
ROOT
HETATM    1  C   UNL     1      23.236  44.573  49.538  1.00  0.00     0.309 C 
HETATM    2  N   UNL     1      24.192  44.867  50.488  1.00  0.00    -0.350 N 
HETATM    3  O   UNL     1      22.812  43.461  49.257  1.00  0.00    -0.262 OA
HETATM    4  H   UNL     1      24.561  45.815  50.446  1.00  0.00     0.163 HD
ENDROOT
BRANCH   1   5
HETATM    5  C   UNL     1      22.711  45.806  48.771  1.00  0.00     0.313 C 
HETATM    6  N   UNL     1      22.955  46.975  49.458  1.00  0.00    -0.319 N 
HETATM    7  H   UNL     1      23.427  46.844  50.351  1.00  0.00     0.169 HD
HETATM    8  O   UNL     1      22.147  45.634  47.700  1.00  0.00    -0.262 OA
BRANCH   6   9
HETATM    9  C   UNL     1      22.615  48.287  49.087  1.00  0.00     0.037 A 
HETATM   10  C   UNL     1      21.314  48.796  49.137  1.00  0.00     0.059 A 
HETATM   11  C   UNL     1      21.040  50.119  48.754  1.00  0.00     0.036 A 
HETATM   12  C   UNL     1      22.088  50.930  48.321  1.00  0.00     0.029 A 
HETATM   13  C   UNL     1      23.390  50.429  48.266  1.00  0.00     0.004 A 
HETATM   14  C   UNL     1      23.652  49.113  48.644  1.00  0.00     0.029 A 
BRANCH  11  15
HETATM   15  N   UNL     1      19.696  50.544  48.832  1.00  0.00    -0.327 N 
HETATM   16  C   UNL     1      18.844  50.449  49.917  1.00  0.00     0.218 C 
HETATM   17  C   UNL     1      17.484  51.029  49.619  1.00  0.00     0.117 C 
HETATM   18  O   UNL     1      19.100  49.984  51.022  1.00  0.00    -0.274 OA
HETATM   19  H   UNL     1      19.321  50.976  47.996  1.00  0.00     0.169 HD
ENDBRANCH  11  15
ENDBRANCH   6   9
ENDBRANCH   1   5
BRANCH   2  20
HETATM   20  C   UNL     1      24.971  43.808  51.116  1.00  0.00     0.159 C 
BRANCH  20  21
HETATM   21  C   UNL     1      25.579  44.253  52.460  1.00  0.00     0.171 C 
BRANCH  21  22
HETATM   22  O   UNL     1      24.594  44.111  53.494  1.00  0.00    -0.389 OA
HETATM   23  H   UNL     1      23.739  44.343  53.092  1.00  0.00     0.210 HD
ENDBRANCH  21  22
BRANCH  21  24
HETATM   24  C   UNL     1      26.818  43.475  52.782  1.00  0.00     0.000 A 
HETATM   25  C   UNL     1      27.849  43.850  53.705  1.00  0.00     0.001 A 
HETATM   26  C   UNL     1      28.830  42.851  53.677  1.00  0.00     0.044 A 
HETATM   27  C   UNL     1      28.037  44.957  54.561  1.00  0.00     0.014 A 
HETATM   28  C   UNL     1      29.983  42.921  54.477  1.00  0.00     0.030 A 
HETATM   29  N   UNL     1      28.408  41.904  52.770  1.00  0.00    -0.360 N 
HETATM   30  C   UNL     1      30.143  44.030  55.313  1.00  0.00     0.002 A 
HETATM   31  C   UNL     1      29.185  45.035  55.356  1.00  0.00     0.001 A 
HETATM   32  C   UNL     1      29.105  40.688  52.415  1.00  0.00     0.155 C 
HETATM   33  C   UNL     1      27.206  42.269  52.229  1.00  0.00     0.101 A 
ENDBRANCH  21  24
ENDBRANCH  20  21
ENDBRANCH   2  20
TORSDOF 7
ENDMDL
MODEL 10
REMARK VINA RESULT:      -8.8      2.518      4.035
REMARK  7 active torsions:
REMARK  status: ('A' for Active; 'I' for Inactive)
REMARK       I    between atoms: C_2  and  N_3 
REMARK    1  A    between atoms: N_3  and  C_4 
REMARK    2  A    between atoms: C_6  and  N_7 
REMARK       I    between atoms: N_7  and  C_8 
REMARK    3  A    between atoms: C_8  and  C_9 
REMARK       I    between atoms: C_9  and  N_10 
REMARK    4  A    between atoms: N_10  and  C_11 
REMARK    5  A    between atoms: C_11  and  C_12 
REMARK    6  A    between atoms: C_12  and  O_13 
REMARK    7  A    between atoms: C_12  and  C_14 
ROOT
HETATM    1  C   UNL     1      25.360  46.109  50.657  1.00  0.00     0.309 C 
HETATM    2  N   UNL     1      25.156  46.590  51.933  1.00  0.00    -0.350 N 
HETATM    3  O   UNL     1      26.422  45.724  50.189  1.00  0.00    -0.262 OA
HETATM    4  H   UNL     1      24.258  47.047  52.081  1.00  0.00     0.163 HD
ENDROOT
BRANCH   1   5
HETATM    5  C   UNL     1      24.093  46.109  49.774  1.00  0.00     0.313 C 
HETATM    6  N   UNL     1      23.562  47.374  49.646  1.00  0.00    -0.319 N 
HETATM    7  H   UNL     1      24.074  48.096  50.151  1.00  0.00     0.169 HD
HETATM    8  O   UNL     1      23.697  45.047  49.317  1.00  0.00    -0.262 OA
BRANCH   6   9
HETATM    9  C   UNL     1      22.414  47.765  48.938  1.00  0.00     0.037 A 
HETATM   10  C   UNL     1      21.691  48.931  49.211  1.00  0.00     0.059 A 
HETATM   11  C   UNL     1      20.551  49.267  48.462  1.00  0.00     0.036 A 
HETATM   12  C   UNL     1      20.144  48.422  47.432  1.00  0.00     0.029 A 
HETATM   13  C   UNL     1      20.858  47.254  47.153  1.00  0.00     0.004 A 
HETATM   14  C   UNL     1      21.986  46.927  47.905  1.00  0.00     0.029 A 
BRANCH  11  15
HETATM   15  N   UNL     1      19.883  50.460  48.813  1.00  0.00    -0.327 N 
HETATM   16  C   UNL     1      19.016  50.660  49.872  1.00  0.00     0.218 C 
HETATM   17  C   UNL     1      18.512  52.080  49.928  1.00  0.00     0.117 C 
HETATM   18  O   UNL     1      18.672  49.838  50.714  1.00  0.00    -0.274 OA
HETATM   19  H   UNL     1      20.070  51.260  48.222  1.00  0.00     0.169 HD
ENDBRANCH  11  15
ENDBRANCH   6   9
ENDBRANCH   1   5
BRANCH   2  20
HETATM   20  C   UNL     1      26.283  46.898  52.804  1.00  0.00     0.159 C 
BRANCH  20  21
HETATM   21  C   UNL     1      26.144  46.236  54.189  1.00  0.00     0.171 C 
BRANCH  21  22
HETATM   22  O   UNL     1      25.181  45.174  54.110  1.00  0.00    -0.389 OA
HETATM   23  H   UNL     1      25.104  44.807  55.008  1.00  0.00     0.210 HD
ENDBRANCH  21  22
BRANCH  21  24
HETATM   24  C   UNL     1      27.465  45.733  54.687  1.00  0.00     0.000 A 
HETATM   25  C   UNL     1      28.251  44.679  54.116  1.00  0.00     0.001 A 
HETATM   26  C   UNL     1      29.392  44.520  54.910  1.00  0.00     0.044 A 
HETATM   27  C   UNL     1      28.087  43.840  52.992  1.00  0.00     0.014 A 
HETATM   28  C   UNL     1      30.374  43.559  54.615  1.00  0.00     0.030 A 
HETATM   29  N   UNL     1      29.303  45.446  55.926  1.00  0.00    -0.360 N 
HETATM   30  C   UNL     1      30.185  42.740  53.498  1.00  0.00     0.002 A 
HETATM   31  C   UNL     1      29.057  42.877  52.696  1.00  0.00     0.001 A 
HETATM   32  C   UNL     1      30.265  45.649  56.987  1.00  0.00     0.155 C 
HETATM   33  C   UNL     1      28.153  46.176  55.801  1.00  0.00     0.101 A 
ENDBRANCH  21  24
ENDBRANCH  20  21
ENDBRANCH   2  20
TORSDOF 7
ENDMDL
