MODEL 1
REMARK VINA RESULT:     -10.2      0.000      0.000
REMARK  5 active torsions:
REMARK  status: ('A' for Active; 'I' for Inactive)
REMARK    1  A    between atoms: C_3  and  O_4 
REMARK    2  A    between atoms: C_6  and  N_7 
REMARK       I    between atoms: N_7  and  C_8 
REMARK    3  A    between atoms: C_8  and  C_9 
REMARK    4  A    between atoms: C_12  and  C_13 
REMARK    5  A    between atoms: C_18  and  C_19 
ROOT
HETATM    1  C   UNL     1      27.380  44.266  52.561  1.00  0.00     0.096 A 
HETATM    2  C   UNL     1      26.306  44.772  51.853  1.00  0.00     0.138 A 
HETATM    3  N   UNL     1      26.249  44.047  50.684  1.00  0.00    -0.240 N 
HETATM    4  C   UNL     1      25.309  44.304  49.607  1.00  0.00     0.221 C 
HETATM    5  C   UNL     1      24.134  45.156  50.121  1.00  0.00     0.066 C 
HETATM    6  C   UNL     1      24.616  46.322  50.994  1.00  0.00     0.118 C 
HETATM    7  N   UNL     1      25.441  45.799  52.092  1.00  0.00    -0.365 N 
HETATM    8  N   UNL     1      27.285  43.210  50.526  1.00  0.00    -0.181 NA
HETATM    9  C   UNL     1      27.958  43.326  51.675  1.00  0.00     0.160 A 
HETATM   10  H   UNL     1      25.734  46.538  52.735  1.00  0.00     0.161 HD
ENDROOT
BRANCH   1  11
HETATM   11  C   UNL     1      27.872  44.638  53.877  1.00  0.00     0.261 C 
HETATM   12  N   UNL     1      29.148  44.171  54.129  1.00  0.00    -0.323 N 
HETATM   13  H   UNL     1      29.627  43.770  53.329  1.00  0.00     0.169 HD
HETATM   14  O   UNL     1      27.191  45.327  54.626  1.00  0.00    -0.267 OA
BRANCH  12  15
HETATM   15  C   UNL     1      29.879  44.258  55.328  1.00  0.00     0.037 A 
HETATM   16  C   UNL     1      29.807  45.338  56.209  1.00  0.00     0.066 A 
HETATM   17  C   UNL     1      30.547  45.323  57.391  1.00  0.00     0.067 A 
HETATM   18  C   UNL     1      31.370  44.248  57.711  1.00  0.00     0.036 A 
HETATM   19  C   UNL     1      31.447  43.167  56.836  1.00  0.00     0.005 A 
HETATM   20  C   UNL     1      30.702  43.170  55.653  1.00  0.00     0.029 A 
BRANCH  17  21
HETATM   21  O   UNL     1      30.431  46.395  58.226  1.00  0.00    -0.361 OA
HETATM   22  H   UNL     1      30.845  47.167  57.807  1.00  0.00     0.217 HD
ENDBRANCH  17  21
ENDBRANCH  12  15
ENDBRANCH   1  11
BRANCH   4  23
HETATM   23  C   UNL     1      24.774  43.020  49.009  1.00  0.00     0.409 C 
HETATM   24  F   UNL     1      24.319  42.164  49.952  1.00  0.00    -0.169 F 
HETATM   25  F   UNL     1      23.711  43.304  48.205  1.00  0.00    -0.169 F 
HETATM   26  F   UNL     1      25.663  42.368  48.234  1.00  0.00    -0.169 F 
ENDBRANCH   4  23
BRANCH   6  27
HETATM   27  C   UNL     1      25.293  47.432  50.197  1.00  0.00    -0.035 A 
HETATM   28  C   UNL     1      24.487  48.312  49.446  1.00  0.00     0.012 A 
HETATM   29  C   UNL     1      25.054  49.342  48.693  1.00  0.00     0.043 A 
HETATM   30  C   UNL     1      26.431  49.508  48.686  1.00  0.00     0.116 A 
HETATM   31  F   UNL     1      26.975  50.498  47.966  1.00  0.00    -0.206 F 
HETATM   32  C   UNL     1      27.251  48.662  49.417  1.00  0.00     0.043 A 
HETATM   33  C   UNL     1      26.686  47.628  50.169  1.00  0.00     0.012 A 
ENDBRANCH   6  27
TORSDOF 5
ENDMDL
MODEL 2
REMARK VINA RESULT:      -9.9      0.812      1.373
REMARK  5 active torsions:
REMARK  status: ('A' for Active; 'I' for Inactive)
REMARK    1  A    between atoms: C_3  and  O_4 
REMARK    2  A    between atoms: C_6  and  N_7 
REMARK       I    between atoms: N_7  and  C_8 
REMARK    3  A    between atoms: C_8  and  C_9 
REMARK    4  A    between atoms: C_12  and  C_13 
REMARK    5  A    between atoms: C_18  and  C_19 
ROOT
HETATM    1  C   UNL     1      27.196  44.057  52.552  1.00  0.00     0.096 A 
HETATM    2  C   UNL     1      26.171  44.562  51.773  1.00  0.00     0.138 A 
HETATM    3  N   UNL     1      26.224  43.870  50.584  1.00  0.00    -0.240 N 
HETATM    4  C   UNL     1      25.369  44.139  49.442  1.00  0.00     0.221 C 
HETATM    5  C   UNL     1      24.138  44.952  49.882  1.00  0.00     0.066 C 
HETATM    6  C   UNL     1      24.522  46.102  50.822  1.00  0.00     0.118 C 
HETATM    7  N   UNL     1      25.268  45.564  51.969  1.00  0.00    -0.365 N 
HETATM    8  N   UNL     1      27.288  43.059  50.488  1.00  0.00    -0.181 NA
HETATM    9  C   UNL     1      27.864  43.155  51.690  1.00  0.00     0.160 A 
HETATM   10  H   UNL     1      25.491  46.290  52.653  1.00  0.00     0.161 HD
ENDROOT
BRANCH   1  11
HETATM   11  C   UNL     1      27.573  44.401  53.912  1.00  0.00     0.261 C 
HETATM   12  N   UNL     1      28.937  44.342  54.127  1.00  0.00    -0.323 N 
HETATM   13  H   UNL     1      29.500  44.219  53.292  1.00  0.00     0.169 HD
HETATM   14  O   UNL     1      26.724  44.735  54.730  1.00  0.00    -0.267 OA
BRANCH  12  15
HETATM   15  C   UNL     1      29.629  44.509  55.341  1.00  0.00     0.037 A 
HETATM   16  C   UNL     1      30.591  43.618  55.820  1.00  0.00     0.066 A 
HETATM   17  C   UNL     1      31.247  43.882  57.021  1.00  0.00     0.067 A 
HETATM   18  C   UNL     1      30.957  45.022  57.765  1.00  0.00     0.036 A 
HETATM   19  C   UNL     1      29.998  45.915  57.293  1.00  0.00     0.005 A 
HETATM   20  C   UNL     1      29.341  45.662  56.085  1.00  0.00     0.029 A 
BRANCH  17  21
HETATM   21  O   UNL     1      32.189  42.988  57.440  1.00  0.00    -0.361 OA
HETATM   22  H   UNL     1      32.579  42.555  56.664  1.00  0.00     0.217 HD
ENDBRANCH  17  21
ENDBRANCH  12  15
ENDBRANCH   1  11
BRANCH   4  23
HETATM   23  C   UNL     1      24.912  42.862  48.768  1.00  0.00     0.409 C 
HETATM   24  F   UNL     1      25.922  42.227  48.132  1.00  0.00    -0.169 F 
HETATM   25  F   UNL     1      24.446  41.995  49.710  1.00  0.00    -0.169 F 
HETATM   26  F   UNL     1      23.902  43.039  47.893  1.00  0.00    -0.169 F 
ENDBRANCH   4  23
BRANCH   6  27
HETATM   27  C   UNL     1      25.236  47.248  50.113  1.00  0.00    -0.035 A 
HETATM   28  C   UNL     1      24.462  48.196  49.414  1.00  0.00     0.012 A 
HETATM   29  C   UNL     1      25.063  49.262  48.741  1.00  0.00     0.043 A 
HETATM   30  C   UNL     1      26.444  49.395  48.764  1.00  0.00     0.116 A 
HETATM   31  F   UNL     1      27.021  50.418  48.121  1.00  0.00    -0.206 F 
HETATM   32  C   UNL     1      27.234  48.481  49.446  1.00  0.00     0.043 A 
HETATM   33  C   UNL     1      26.634  47.412  50.117  1.00  0.00     0.012 A 
ENDBRANCH   6  27
TORSDOF 5
ENDMDL
MODEL 3
REMARK VINA RESULT:      -9.8      4.287      7.284
REMARK  5 active torsions:
REMARK  status: ('A' for Active; 'I' for Inactive)
REMARK    1  A    between atoms: C_3  and  O_4 
REMARK    2  A    between atoms: C_6  and  N_7 
REMARK       I    between atoms: N_7  and  C_8 
REMARK    3  A    between atoms: C_8  and  C_9 
REMARK    4  A    between atoms: C_12  and  C_13 
REMARK    5  A    between atoms: C_18  and  C_19 
ROOT
HETATM    1  C   UNL     1      26.674  43.021  50.628  1.00  0.00     0.096 A 
HETATM    2  C   UNL     1      26.470  43.623  51.856  1.00  0.00     0.138 A 
HETATM    3  N   UNL     1      26.499  44.978  51.622  1.00  0.00    -0.240 N 
HETATM    4  C   UNL     1      26.402  45.990  52.659  1.00  0.00     0.221 C 
HETATM    5  C   UNL     1      25.822  45.376  53.946  1.00  0.00     0.066 C 
HETATM    6  C   UNL     1      26.466  44.022  54.272  1.00  0.00     0.118 C 
HETATM    7  N   UNL     1      26.323  43.125  53.117  1.00  0.00    -0.365 N 
HETATM    8  N   UNL     1      26.843  45.294  50.364  1.00  0.00    -0.181 NA
HETATM    9  C   UNL     1      26.926  44.107  49.756  1.00  0.00     0.160 A 
HETATM   10  H   UNL     1      26.685  42.189  53.313  1.00  0.00     0.161 HD
ENDROOT
BRANCH   1  11
HETATM   11  C   UNL     1      26.702  41.608  50.289  1.00  0.00     0.261 C 
HETATM   12  N   UNL     1      27.956  41.168  49.909  1.00  0.00    -0.323 N 
HETATM   13  H   UNL     1      28.709  41.831  50.058  1.00  0.00     0.169 HD
HETATM   14  O   UNL     1      25.691  40.923  50.384  1.00  0.00    -0.267 OA
BRANCH  12  15
HETATM   15  C   UNL     1      28.315  39.898  49.420  1.00  0.00     0.037 A 
HETATM   16  C   UNL     1      28.931  38.911  50.192  1.00  0.00     0.066 A 
HETATM   17  C   UNL     1      29.224  37.670  49.629  1.00  0.00     0.067 A 
HETATM   18  C   UNL     1      28.918  37.391  48.301  1.00  0.00     0.036 A 
HETATM   19  C   UNL     1      28.303  38.371  47.526  1.00  0.00     0.005 A 
HETATM   20  C   UNL     1      27.999  39.616  48.084  1.00  0.00     0.029 A 
BRANCH  17  21
HETATM   21  O   UNL     1      29.813  36.734  50.428  1.00  0.00    -0.361 OA
HETATM   22  H   UNL     1      30.290  37.186  51.144  1.00  0.00     0.217 HD
ENDBRANCH  17  21
ENDBRANCH  12  15
ENDBRANCH   1  11
BRANCH   4  23
HETATM   23  C   UNL     1      25.542  47.158  52.228  1.00  0.00     0.409 C 
HETATM   24  F   UNL     1      25.113  47.896  53.277  1.00  0.00    -0.169 F 
HETATM   25  F   UNL     1      26.276  47.997  51.444  1.00  0.00    -0.169 F 
HETATM   26  F   UNL     1      24.470  46.803  51.491  1.00  0.00    -0.169 F 
ENDBRANCH   4  23
BRANCH   6  27
HETATM   27  C   UNL     1      27.901  44.144  54.776  1.00  0.00    -0.035 A 
HETATM   28  C   UNL     1      28.810  43.108  54.479  1.00  0.00     0.012 A 
HETATM   29  C   UNL     1      30.133  43.163  54.920  1.00  0.00     0.043 A 
HETATM   30  C   UNL     1      30.565  44.256  55.658  1.00  0.00     0.116 A 
HETATM   31  F   UNL     1      31.835  44.311  56.079  1.00  0.00    -0.206 F 
HETATM   32  C   UNL     1      29.696  45.293  55.964  1.00  0.00     0.043 A 
HETATM   33  C   UNL     1      28.370  45.238  55.526  1.00  0.00     0.012 A 
ENDBRANCH   6  27
TORSDOF 5
ENDMDL
MODEL 4
REMARK VINA RESULT:      -8.7      4.206      8.785
REMARK  5 active torsions:
REMARK  status: ('A' for Active; 'I' for Inactive)
REMARK    1  A    between atoms: C_3  and  O_4 
REMARK    2  A    between atoms: C_6  and  N_7 
REMARK       I    between atoms: N_7  and  C_8 
REMARK    3  A    between atoms: C_8  and  C_9 
REMARK    4  A    between atoms: C_12  and  C_13 
REMARK    5  A    between atoms: C_18  and  C_19 
ROOT
HETATM    1  C   UNL     1      24.737  45.668  51.459  1.00  0.00     0.096 A 
HETATM    2  C   UNL     1      25.306  45.348  52.678  1.00  0.00     0.138 A 
HETATM    3  N   UNL     1      26.029  46.455  53.060  1.00  0.00    -0.240 N 
HETATM    4  C   UNL     1      26.854  46.523  54.253  1.00  0.00     0.221 C 
HETATM    5  C   UNL     1      26.461  45.402  55.233  1.00  0.00     0.066 C 
HETATM    6  C   UNL     1      26.280  44.057  54.517  1.00  0.00     0.118 C 
HETATM    7  N   UNL     1      25.300  44.212  53.432  1.00  0.00    -0.365 N 
HETATM    8  N   UNL     1      26.082  47.408  52.116  1.00  0.00    -0.181 NA
HETATM    9  C   UNL     1      25.279  46.940  51.156  1.00  0.00     0.160 A 
HETATM   10  H   UNL     1      25.103  43.324  52.967  1.00  0.00     0.161 HD
ENDROOT
BRANCH   1  11
HETATM   11  C   UNL     1      23.848  44.880  50.624  1.00  0.00     0.261 C 
HETATM   12  N   UNL     1      23.246  45.621  49.624  1.00  0.00    -0.323 N 
HETATM   13  H   UNL     1      23.609  46.561  49.506  1.00  0.00     0.169 HD
HETATM   14  O   UNL     1      23.713  43.677  50.816  1.00  0.00    -0.267 OA
BRANCH  12  15
HETATM   15  C   UNL     1      22.259  45.202  48.712  1.00  0.00     0.037 A 
HETATM   16  C   UNL     1      20.897  45.141  49.011  1.00  0.00     0.066 A 
HETATM   17  C   UNL     1      19.988  44.741  48.033  1.00  0.00     0.067 A 
HETATM   18  C   UNL     1      20.412  44.392  46.755  1.00  0.00     0.036 A 
HETATM   19  C   UNL     1      21.770  44.451  46.450  1.00  0.00     0.005 A 
HETATM   20  C   UNL     1      22.688  44.858  47.422  1.00  0.00     0.029 A 
BRANCH  17  21
HETATM   21  O   UNL     1      18.666  44.711  48.370  1.00  0.00    -0.361 OA
HETATM   22  H   UNL     1      18.469  45.470  48.942  1.00  0.00     0.217 HD
ENDBRANCH  17  21
ENDBRANCH  12  15
ENDBRANCH   1  11
BRANCH   4  23
HETATM   23  C   UNL     1      26.733  47.862  54.947  1.00  0.00     0.409 C 
HETATM   24  F   UNL     1      25.567  48.486  54.661  1.00  0.00    -0.169 F 
HETATM   25  F   UNL     1      26.747  47.676  56.297  1.00  0.00    -0.169 F 
HETATM   26  F   UNL     1      27.746  48.710  54.678  1.00  0.00    -0.169 F 
ENDBRANCH   4  23
BRANCH   6  27
HETATM   27  C   UNL     1      27.596  43.432  54.067  1.00  0.00    -0.035 A 
HETATM   28  C   UNL     1      28.776  43.773  54.758  1.00  0.00     0.012 A 
HETATM   29  C   UNL     1      30.010  43.236  54.385  1.00  0.00     0.043 A 
HETATM   30  C   UNL     1      30.077  42.348  53.321  1.00  0.00     0.116 A 
HETATM   31  F   UNL     1      31.259  41.830  52.964  1.00  0.00    -0.206 F 
HETATM   32  C   UNL     1      28.933  41.989  52.623  1.00  0.00     0.043 A 
HETATM   33  C   UNL     1      27.698  42.529  52.993  1.00  0.00     0.012 A 
ENDBRANCH   6  27
TORSDOF 5
ENDMDL
MODEL 5
REMARK VINA RESULT:      -8.4      4.452      7.968
REMARK  5 active torsions:
REMARK  status: ('A' for Active; 'I' for Inactive)
REMARK    1  A    between atoms: C_3  and  O_4 
REMARK    2  A    between atoms: C_6  and  N_7 
REMARK       I    between atoms: N_7  and  C_8 
REMARK    3  A    between atoms: C_8  and  C_9 
REMARK    4  A    between atoms: C_12  and  C_13 
REMARK    5  A    between atoms: C_18  and  C_19 
ROOT
HETATM    1  C   UNL     1      23.134  45.036  48.867  1.00  0.00     0.096 A 
HETATM    2  C   UNL     1      24.425  44.736  49.261  1.00  0.00     0.138 A 
HETATM    3  N   UNL     1      24.387  43.441  49.726  1.00  0.00    -0.240 N 
HETATM    4  C   UNL     1      25.520  42.749  50.313  1.00  0.00     0.221 C 
HETATM    5  C   UNL     1      26.831  43.465  49.937  1.00  0.00     0.066 C 
HETATM    6  C   UNL     1      26.714  44.986  50.094  1.00  0.00     0.118 C 
HETATM    7  N   UNL     1      25.573  45.470  49.304  1.00  0.00    -0.365 N 
HETATM    8  N   UNL     1      23.146  42.935  49.790  1.00  0.00    -0.181 NA
HETATM    9  C   UNL     1      22.390  43.893  49.248  1.00  0.00     0.160 A 
HETATM   10  H   UNL     1      25.495  46.489  49.331  1.00  0.00     0.161 HD
ENDROOT
BRANCH   1  11
HETATM   11  C   UNL     1      22.614  46.253  48.269  1.00  0.00     0.261 C 
HETATM   12  N   UNL     1      22.504  47.295  49.171  1.00  0.00    -0.323 N 
HETATM   13  H   UNL     1      22.932  47.129  50.075  1.00  0.00     0.169 HD
HETATM   14  O   UNL     1      22.351  46.299  47.073  1.00  0.00    -0.267 OA
BRANCH  12  15
HETATM   15  C   UNL     1      21.946  48.569  48.956  1.00  0.00     0.037 A 
HETATM   16  C   UNL     1      20.578  48.841  49.015  1.00  0.00     0.066 A 
HETATM   17  C   UNL     1      20.118  50.142  48.817  1.00  0.00     0.067 A 
HETATM   18  C   UNL     1      20.999  51.185  48.554  1.00  0.00     0.036 A 
HETATM   19  C   UNL     1      22.366  50.921  48.494  1.00  0.00     0.005 A 
HETATM   20  C   UNL     1      22.836  49.620  48.699  1.00  0.00     0.029 A 
BRANCH  17  21
HETATM   21  O   UNL     1      18.773  50.359  48.898  1.00  0.00    -0.361 OA
HETATM   22  H   UNL     1      18.385  50.266  48.013  1.00  0.00     0.217 HD
ENDBRANCH  17  21
ENDBRANCH  12  15
ENDBRANCH   1  11
BRANCH   4  23
HETATM   23  C   UNL     1      25.592  41.304  49.866  1.00  0.00     0.409 C 
HETATM   24  F   UNL     1      24.553  40.960  49.071  1.00  0.00    -0.169 F 
HETATM   25  F   UNL     1      26.720  41.115  49.126  1.00  0.00    -0.169 F 
HETATM   26  F   UNL     1      25.661  40.422  50.882  1.00  0.00    -0.169 F 
ENDBRANCH   4  23
BRANCH   6  27
HETATM   27  C   UNL     1      26.686  45.441  51.549  1.00  0.00    -0.035 A 
HETATM   28  C   UNL     1      26.028  46.648  51.866  1.00  0.00     0.012 A 
HETATM   29  C   UNL     1      25.976  47.116  53.180  1.00  0.00     0.043 A 
HETATM   30  C   UNL     1      26.576  46.381  54.194  1.00  0.00     0.116 A 
HETATM   31  F   UNL     1      26.524  46.828  55.455  1.00  0.00    -0.206 F 
HETATM   32  C   UNL     1      27.227  45.189  53.915  1.00  0.00     0.043 A 
HETATM   33  C   UNL     1      27.283  44.721  52.600  1.00  0.00     0.012 A 
ENDBRANCH   6  27
TORSDOF 5
ENDMDL
MODEL 6
REMARK VINA RESULT:      -8.4     12.825     14.326
REMARK  5 active torsions:
REMARK  status: ('A' for Active; 'I' for Inactive)
REMARK    1  A    between atoms: C_3  and  O_4 
REMARK    2  A    between atoms: C_6  and  N_7 
REMARK       I    between atoms: N_7  and  C_8 
REMARK    3  A    between atoms: C_8  and  C_9 
REMARK    4  A    between atoms: C_12  and  C_13 
REMARK    5  A    between atoms: C_18  and  C_19 
ROOT
HETATM    1  C   UNL     1      32.825  51.341  41.833  1.00  0.00     0.096 A 
HETATM    2  C   UNL     1      32.065  51.187  40.688  1.00  0.00     0.138 A 
HETATM    3  N   UNL     1      30.881  51.846  40.929  1.00  0.00    -0.240 N 
HETATM    4  C   UNL     1      29.757  51.870  40.011  1.00  0.00     0.221 C 
HETATM    5  C   UNL     1      30.218  51.469  38.597  1.00  0.00     0.066 C 
HETATM    6  C   UNL     1      31.140  50.243  38.626  1.00  0.00     0.118 C 
HETATM    7  N   UNL     1      32.274  50.509  39.523  1.00  0.00    -0.365 N 
HETATM    8  N   UNL     1      30.767  52.292  42.189  1.00  0.00    -0.181 NA
HETATM    9  C   UNL     1      31.955  52.006  42.730  1.00  0.00     0.160 A 
HETATM   10  H   UNL     1      32.947  49.740  39.525  1.00  0.00     0.161 HD
ENDROOT
BRANCH   1  11
HETATM   11  C   UNL     1      34.174  50.878  42.111  1.00  0.00     0.261 C 
HETATM   12  N   UNL     1      34.930  51.802  42.808  1.00  0.00    -0.323 N 
HETATM   13  H   UNL     1      34.415  52.602  43.162  1.00  0.00     0.169 HD
HETATM   14  O   UNL     1      34.534  49.759  41.767  1.00  0.00    -0.267 OA
BRANCH  12  15
HETATM   15  C   UNL     1      36.293  51.725  43.146  1.00  0.00     0.037 A 
HETATM   16  C   UNL     1      37.227  50.954  42.451  1.00  0.00     0.066 A 
HETATM   17  C   UNL     1      38.565  50.962  42.842  1.00  0.00     0.067 A 
HETATM   18  C   UNL     1      38.994  51.723  43.924  1.00  0.00     0.036 A 
HETATM   19  C   UNL     1      38.068  52.495  44.622  1.00  0.00     0.005 A 
HETATM   20  C   UNL     1      36.726  52.499  44.232  1.00  0.00     0.029 A 
BRANCH  17  21
HETATM   21  O   UNL     1      39.441  50.203  42.122  1.00  0.00    -0.361 OA
HETATM   22  H   UNL     1      39.078  49.308  42.027  1.00  0.00     0.217 HD
ENDBRANCH  17  21
ENDBRANCH  12  15
ENDBRANCH   1  11
BRANCH   4  23
HETATM   23  C   UNL     1      29.103  53.235  39.956  1.00  0.00     0.409 C 
HETATM   24  F   UNL     1      29.993  54.238  40.130  1.00  0.00    -0.169 F 
HETATM   25  F   UNL     1      28.548  53.422  38.726  1.00  0.00    -0.169 F 
HETATM   26  F   UNL     1      28.101  53.395  40.844  1.00  0.00    -0.169 F 
ENDBRANCH   4  23
BRANCH   6  27
HETATM   27  C   UNL     1      30.407  48.944  38.939  1.00  0.00    -0.035 A 
HETATM   28  C   UNL     1      31.121  47.898  39.558  1.00  0.00     0.012 A 
HETATM   29  C   UNL     1      30.501  46.684  39.861  1.00  0.00     0.043 A 
HETATM   30  C   UNL     1      29.160  46.503  39.555  1.00  0.00     0.116 A 
HETATM   31  F   UNL     1      28.565  45.340  39.848  1.00  0.00    -0.206 F 
HETATM   32  C   UNL     1      28.429  47.514  38.949  1.00  0.00     0.043 A 
HETATM   33  C   UNL     1      29.048  48.729  38.641  1.00  0.00     0.012 A 
ENDBRANCH   6  27
TORSDOF 5
ENDMDL
MODEL 7
REMARK VINA RESULT:      -8.3      4.710      8.798
REMARK  5 active torsions:
REMARK  status: ('A' for Active; 'I' for Inactive)
REMARK    1  A    between atoms: C_3  and  O_4 
REMARK    2  A    between atoms: C_6  and  N_7 
REMARK       I    between atoms: N_7  and  C_8 
REMARK    3  A    between atoms: C_8  and  C_9 
REMARK    4  A    between atoms: C_12  and  C_13 
REMARK    5  A    between atoms: C_18  and  C_19 
ROOT
HETATM    1  C   UNL     1      23.904  47.168  49.365  1.00  0.00     0.096 A 
HETATM    2  C   UNL     1      23.884  45.863  49.822  1.00  0.00     0.138 A 
HETATM    3  N   UNL     1      25.150  45.611  50.300  1.00  0.00    -0.240 N 
HETATM    4  C   UNL     1      25.592  44.324  50.806  1.00  0.00     0.221 C 
HETATM    5  C   UNL     1      24.377  43.445  51.153  1.00  0.00     0.066 C 
HETATM    6  C   UNL     1      23.306  43.495  50.056  1.00  0.00     0.118 C 
HETATM    7  N   UNL     1      22.925  44.894  49.811  1.00  0.00    -0.365 N 
HETATM    8  N   UNL     1      26.018  46.606  50.059  1.00  0.00    -0.181 NA
HETATM    9  C   UNL     1      25.256  47.559  49.514  1.00  0.00     0.160 A 
HETATM   10  H   UNL     1      22.169  44.970  49.128  1.00  0.00     0.161 HD
ENDROOT
BRANCH   1  11
HETATM   11  C   UNL     1      22.828  47.960  48.794  1.00  0.00     0.261 C 
HETATM   12  N   UNL     1      22.385  48.960  49.638  1.00  0.00    -0.323 N 
HETATM   13  H   UNL     1      22.954  49.110  50.464  1.00  0.00     0.169 HD
HETATM   14  O   UNL     1      22.422  47.735  47.660  1.00  0.00    -0.267 OA
BRANCH  12  15
HETATM   15  C   UNL     1      21.298  49.834  49.448  1.00  0.00     0.037 A 
HETATM   16  C   UNL     1      20.058  49.683  50.069  1.00  0.00     0.066 A 
HETATM   17  C   UNL     1      19.048  50.617  49.843  1.00  0.00     0.067 A 
HETATM   18  C   UNL     1      19.248  51.703  48.997  1.00  0.00     0.036 A 
HETATM   19  C   UNL     1      20.484  51.860  48.374  1.00  0.00     0.005 A 
HETATM   20  C   UNL     1      21.505  50.933  48.601  1.00  0.00     0.029 A 
BRANCH  17  21
HETATM   21  O   UNL     1      17.858  50.433  50.485  1.00  0.00    -0.361 OA
HETATM   22  H   UNL     1      17.838  49.539  50.861  1.00  0.00     0.217 HD
ENDBRANCH  17  21
ENDBRANCH  12  15
ENDBRANCH   1  11
BRANCH   4  23
HETATM   23  C   UNL     1      26.471  44.472  52.030  1.00  0.00     0.409 C 
HETATM   24  F   UNL     1      26.346  43.428  52.881  1.00  0.00    -0.169 F 
HETATM   25  F   UNL     1      27.778  44.501  51.648  1.00  0.00    -0.169 F 
HETATM   26  F   UNL     1      26.259  45.611  52.719  1.00  0.00    -0.169 F 
ENDBRANCH   4  23
BRANCH   6  27
HETATM   27  C   UNL     1      23.703  42.741  48.791  1.00  0.00    -0.035 A 
HETATM   28  C   UNL     1      23.259  43.230  47.546  1.00  0.00     0.012 A 
HETATM   29  C   UNL     1      23.587  42.576  46.357  1.00  0.00     0.043 A 
HETATM   30  C   UNL     1      24.367  41.430  46.398  1.00  0.00     0.116 A 
HETATM   31  F   UNL     1      24.685  40.804  45.257  1.00  0.00    -0.206 F 
HETATM   32  C   UNL     1      24.823  40.925  47.607  1.00  0.00     0.043 A 
HETATM   33  C   UNL     1      24.493  41.576  48.798  1.00  0.00     0.012 A 
ENDBRANCH   6  27
TORSDOF 5
ENDMDL
MODEL 8
REMARK VINA RESULT:      -8.3      4.478      6.285
REMARK  5 active torsions:
REMARK  status: ('A' for Active; 'I' for Inactive)
REMARK    1  A    between atoms: C_3  and  O_4 
REMARK    2  A    between atoms: C_6  and  N_7 
REMARK       I    between atoms: N_7  and  C_8 
REMARK    3  A    between atoms: C_8  and  C_9 
REMARK    4  A    between atoms: C_12  and  C_13 
REMARK    5  A    between atoms: C_18  and  C_19 
ROOT
HETATM    1  C   UNL     1      26.558  43.283  50.985  1.00  0.00     0.096 A 
HETATM    2  C   UNL     1      26.373  44.649  50.874  1.00  0.00     0.138 A 
HETATM    3  N   UNL     1      25.931  45.072  52.106  1.00  0.00    -0.240 N 
HETATM    4  C   UNL     1      25.538  46.436  52.411  1.00  0.00     0.221 C 
HETATM    5  C   UNL     1      26.098  47.399  51.348  1.00  0.00     0.066 C 
HETATM    6  C   UNL     1      25.899  46.857  49.927  1.00  0.00     0.118 C 
HETATM    7  N   UNL     1      26.495  45.518  49.829  1.00  0.00    -0.365 N 
HETATM    8  N   UNL     1      25.685  44.065  52.958  1.00  0.00    -0.181 NA
HETATM    9  C   UNL     1      26.088  42.982  52.285  1.00  0.00     0.160 A 
HETATM   10  H   UNL     1      26.439  45.143  48.880  1.00  0.00     0.161 HD
ENDROOT
BRANCH   1  11
HETATM   11  C   UNL     1      27.048  42.338  49.996  1.00  0.00     0.261 C 
HETATM   12  N   UNL     1      27.250  41.072  50.512  1.00  0.00    -0.323 N 
HETATM   13  H   UNL     1      26.895  40.927  51.452  1.00  0.00     0.169 HD
HETATM   14  O   UNL     1      27.213  42.681  48.832  1.00  0.00    -0.267 OA
BRANCH  12  15
HETATM   15  C   UNL     1      27.811  39.954  49.867  1.00  0.00     0.037 A 
HETATM   16  C   UNL     1      29.170  39.637  49.896  1.00  0.00     0.066 A 
HETATM   17  C   UNL     1      29.631  38.491  49.250  1.00  0.00     0.067 A 
HETATM   18  C   UNL     1      28.760  37.652  48.564  1.00  0.00     0.036 A 
HETATM   19  C   UNL     1      27.403  37.962  48.530  1.00  0.00     0.005 A 
HETATM   20  C   UNL     1      26.931  39.105  49.182  1.00  0.00     0.029 A 
BRANCH  17  21
HETATM   21  O   UNL     1      30.966  38.217  49.321  1.00  0.00    -0.361 OA
HETATM   22  H   UNL     1      31.405  38.916  49.831  1.00  0.00     0.217 HD
ENDBRANCH  17  21
ENDBRANCH  12  15
ENDBRANCH   1  11
BRANCH   4  23
HETATM   23  C   UNL     1      26.015  46.868  53.781  1.00  0.00     0.409 C 
HETATM   24  F   UNL     1      27.362  46.984  53.843  1.00  0.00    -0.169 F 
HETATM   25  F   UNL     1      25.510  48.100  54.069  1.00  0.00    -0.169 F 
HETATM   26  F   UNL     1      25.612  46.057  54.780  1.00  0.00    -0.169 F 
ENDBRANCH   4  23
BRANCH   6  27
HETATM   27  C   UNL     1      24.449  46.915  49.458  1.00  0.00    -0.035 A 
HETATM   28  C   UNL     1      23.792  48.163  49.449  1.00  0.00     0.012 A 
HETATM   29  C   UNL     1      22.463  48.273  49.036  1.00  0.00     0.043 A 
HETATM   30  C   UNL     1      21.777  47.140  48.621  1.00  0.00     0.116 A 
HETATM   31  F   UNL     1      20.503  47.246  48.222  1.00  0.00    -0.206 F 
HETATM   32  C   UNL     1      22.396  45.899  48.615  1.00  0.00     0.043 A 
HETATM   33  C   UNL     1      23.726  45.786  49.032  1.00  0.00     0.012 A 
ENDBRANCH   6  27
TORSDOF 5
ENDMDL
MODEL 9
REMARK VINA RESULT:      -8.3      4.282      8.907
REMARK  5 active torsions:
REMARK  status: ('A' for Active; 'I' for Inactive)
REMARK    1  A    between atoms: C_3  and  O_4 
REMARK    2  A    between atoms: C_6  and  N_7 
REMARK       I    between atoms: N_7  and  C_8 
REMARK    3  A    between atoms: C_8  and  C_9 
REMARK    4  A    between atoms: C_12  and  C_13 
REMARK    5  A    between atoms: C_18  and  C_19 
ROOT
HETATM    1  C   UNL     1      24.427  47.004  50.328  1.00  0.00     0.096 A 
HETATM    2  C   UNL     1      24.687  45.897  51.116  1.00  0.00     0.138 A 
HETATM    3  N   UNL     1      25.764  46.238  51.902  1.00  0.00    -0.240 N 
HETATM    4  C   UNL     1      26.419  45.332  52.828  1.00  0.00     0.221 C 
HETATM    5  C   UNL     1      25.500  44.137  53.141  1.00  0.00     0.066 C 
HETATM    6  C   UNL     1      24.846  43.574  51.872  1.00  0.00     0.118 C 
HETATM    7  N   UNL     1      24.133  44.652  51.173  1.00  0.00    -0.365 N 
HETATM    8  N   UNL     1      26.302  47.425  51.583  1.00  0.00    -0.181 NA
HETATM    9  C   UNL     1      25.477  47.899  50.645  1.00  0.00     0.160 A 
HETATM   10  H   UNL     1      23.631  44.308  50.352  1.00  0.00     0.161 HD
ENDROOT
BRANCH   1  11
HETATM   11  C   UNL     1      23.377  47.207  49.345  1.00  0.00     0.261 C 
HETATM   12  N   UNL     1      22.636  48.351  49.574  1.00  0.00    -0.323 N 
HETATM   13  H   UNL     1      23.005  48.968  50.289  1.00  0.00     0.169 HD
HETATM   14  O   UNL     1      23.236  46.427  48.411  1.00  0.00    -0.267 OA
BRANCH  12  15
HETATM   15  C   UNL     1      21.490  48.791  48.885  1.00  0.00     0.037 A 
HETATM   16  C   UNL     1      20.239  48.177  48.980  1.00  0.00     0.066 A 
HETATM   17  C   UNL     1      19.152  48.702  48.282  1.00  0.00     0.067 A 
HETATM   18  C   UNL     1      19.288  49.830  47.481  1.00  0.00     0.036 A 
HETATM   19  C   UNL     1      20.533  50.448  47.382  1.00  0.00     0.005 A 
HETATM   20  C   UNL     1      21.626  49.933  48.084  1.00  0.00     0.029 A 
BRANCH  17  21
HETATM   21  O   UNL     1      17.948  48.074  48.418  1.00  0.00    -0.361 OA
HETATM   22  H   UNL     1      18.085  47.115  48.365  1.00  0.00     0.217 HD
ENDBRANCH  17  21
ENDBRANCH  12  15
ENDBRANCH   1  11
BRANCH   4  23
HETATM   23  C   UNL     1      26.799  46.024  54.120  1.00  0.00     0.409 C 
HETATM   24  F   UNL     1      25.845  46.886  54.541  1.00  0.00    -0.169 F 
HETATM   25  F   UNL     1      26.940  45.096  55.107  1.00  0.00    -0.169 F 
HETATM   26  F   UNL     1      27.973  46.684  54.060  1.00  0.00    -0.169 F 
ENDBRANCH   4  23
BRANCH   6  27
HETATM   27  C   UNL     1      25.819  42.808  50.982  1.00  0.00    -0.035 A 
HETATM   28  C   UNL     1      26.859  42.076  51.592  1.00  0.00     0.012 A 
HETATM   29  C   UNL     1      27.782  41.362  50.825  1.00  0.00     0.043 A 
HETATM   30  C   UNL     1      27.674  41.367  49.442  1.00  0.00     0.116 A 
HETATM   31  F   UNL     1      28.558  40.680  48.706  1.00  0.00    -0.206 F 
HETATM   32  C   UNL     1      26.661  42.075  48.812  1.00  0.00     0.043 A 
HETATM   33  C   UNL     1      25.738  42.793  49.577  1.00  0.00     0.012 A 
ENDBRANCH   6  27
TORSDOF 5
ENDMDL
MODEL 10
REMARK VINA RESULT:      -8.3     16.476     19.312
REMARK  5 active torsions:
REMARK  status: ('A' for Active; 'I' for Inactive)
REMARK    1  A    between atoms: C_3  and  O_4 
REMARK    2  A    between atoms: C_6  and  N_7 
REMARK       I    between atoms: N_7  and  C_8 
REMARK    3  A    between atoms: C_8  and  C_9 
REMARK    4  A    between atoms: C_12  and  C_13 
REMARK    5  A    between atoms: C_18  and  C_19 
ROOT
HETATM    1  C   UNL     1      40.054  45.660  65.294  1.00  0.00     0.096 A 
HETATM    2  C   UNL     1      39.306  44.749  64.572  1.00  0.00     0.138 A 
HETATM    3  N   UNL     1      38.269  44.374  65.396  1.00  0.00    -0.240 N 
HETATM    4  C   UNL     1      37.280  43.366  65.059  1.00  0.00     0.221 C 
HETATM    5  C   UNL     1      37.272  43.117  63.540  1.00  0.00     0.066 C 
HETATM    6  C   UNL     1      38.694  42.995  62.975  1.00  0.00     0.118 C 
HETATM    7  N   UNL     1      39.464  44.194  63.336  1.00  0.00    -0.365 N 
HETATM    8  N   UNL     1      38.372  44.868  66.639  1.00  0.00    -0.181 NA
HETATM    9  C   UNL     1      39.442  45.666  66.570  1.00  0.00     0.160 A 
HETATM   10  H   UNL     1      40.401  44.183  62.927  1.00  0.00     0.161 HD
ENDROOT
BRANCH   1  11
HETATM   11  C   UNL     1      41.239  46.400  64.894  1.00  0.00     0.261 C 
HETATM   12  N   UNL     1      42.413  45.818  65.330  1.00  0.00    -0.323 N 
HETATM   13  H   UNL     1      42.312  44.891  65.731  1.00  0.00     0.169 HD
HETATM   14  O   UNL     1      41.142  47.412  64.210  1.00  0.00    -0.267 OA
BRANCH  12  15
HETATM   15  C   UNL     1      43.723  46.319  65.212  1.00  0.00     0.037 A 
HETATM   16  C   UNL     1      44.650  45.866  64.272  1.00  0.00     0.066 A 
HETATM   17  C   UNL     1      45.917  46.444  64.210  1.00  0.00     0.067 A 
HETATM   18  C   UNL     1      46.285  47.468  65.077  1.00  0.00     0.036 A 
HETATM   19  C   UNL     1      45.365  47.924  66.018  1.00  0.00     0.005 A 
HETATM   20  C   UNL     1      44.089  47.356  66.082  1.00  0.00     0.029 A 
BRANCH  17  21
HETATM   21  O   UNL     1      46.782  45.977  63.264  1.00  0.00    -0.361 OA
HETATM   22  H   UNL     1      47.532  46.588  63.193  1.00  0.00     0.217 HD
ENDBRANCH  17  21
ENDBRANCH  12  15
ENDBRANCH   1  11
BRANCH   4  23
HETATM   23  C   UNL     1      35.891  43.767  65.509  1.00  0.00     0.409 C 
HETATM   24  F   UNL     1      35.523  44.975  65.025  1.00  0.00    -0.169 F 
HETATM   25  F   UNL     1      34.984  42.869  65.032  1.00  0.00    -0.169 F 
HETATM   26  F   UNL     1      35.734  43.778  66.848  1.00  0.00    -0.169 F 
ENDBRANCH   4  23
BRANCH   6  27
HETATM   27  C   UNL     1      39.383  41.690  63.355  1.00  0.00    -0.035 A 
HETATM   28  C   UNL     1      39.117  40.537  62.588  1.00  0.00     0.012 A 
HETATM   29  C   UNL     1      39.715  39.314  62.895  1.00  0.00     0.043 A 
HETATM   30  C   UNL     1      40.591  39.229  63.968  1.00  0.00     0.116 A 
HETATM   31  F   UNL     1      41.167  38.056  64.261  1.00  0.00    -0.206 F 
HETATM   32  C   UNL     1      40.877  40.345  64.740  1.00  0.00     0.043 A 
HETATM   33  C   UNL     1      40.276  41.570  64.436  1.00  0.00     0.012 A 
ENDBRANCH   6  27
TORSDOF 5
ENDMDL
