MODEL 1
REMARK VINA RESULT:      -8.1      0.000      0.000
REMARK  5 active torsions:
REMARK  status: ('A' for Active; 'I' for Inactive)
REMARK    1  A    between atoms: O_2  and  C_3 
REMARK    2  A    between atoms: C_4  and  C_5 
REMARK    3  A    between atoms: C_5  and  N_6 
REMARK    4  A    between atoms: N_6  and  N_7 
REMARK    5  A    between atoms: N_7  and  C_8 
ROOT
HETATM    1  C   UNL     1      27.364  43.309  52.923  1.00  0.00     0.169 C 
HETATM    2  S   UNL     1      27.320  42.273  51.565  1.00  0.00    -0.009 SA
HETATM    3  C   UNL     1      26.924  43.381  50.287  1.00  0.00     0.229 C 
HETATM    4  O   UNL     1      27.143  43.073  49.125  1.00  0.00    -0.279 OA
HETATM    5  C   UNL     1      26.292  44.667  50.610  1.00  0.00     0.048 A 
HETATM    6  C   UNL     1      26.318  45.173  51.911  1.00  0.00     0.049 A 
HETATM    7  C   UNL     1      25.684  45.395  49.573  1.00  0.00     0.018 A 
HETATM    8  C   UNL     1      25.086  46.625  49.837  1.00  0.00     0.001 A 
HETATM    9  C   UNL     1      25.101  47.137  51.129  1.00  0.00     0.002 A 
HETATM   10  C   UNL     1      25.719  46.419  52.155  1.00  0.00     0.030 A 
HETATM   11  N   UNL     1      26.900  44.539  52.959  1.00  0.00    -0.335 N 
HETATM   12  H   UNL     1      26.972  44.993  53.866  1.00  0.00     0.168 HD
ENDROOT
BRANCH   1  13
HETATM   13  N   UNL     1      27.880  42.801  54.036  1.00  0.00    -0.257 N 
HETATM   14  H   UNL     1      27.220  42.781  54.816  1.00  0.00     0.191 HD
BRANCH  13  15
HETATM   15  N   UNL     1      29.202  42.312  54.172  1.00  0.00    -0.184 NA
BRANCH  15  16
HETATM   16  C   UNL     1      30.062  43.280  54.273  1.00  0.00     0.153 C 
BRANCH  16  17
HETATM   17  C   UNL     1      30.354  43.928  55.565  1.00  0.00     0.016 A 
HETATM   18  C   UNL     1      29.717  45.138  55.889  1.00  0.00     0.080 A 
HETATM   19  C   UNL     1      29.984  45.724  57.130  1.00  0.00     0.037 A 
HETATM   20  C   UNL     1      30.874  45.117  58.023  1.00  0.00     0.003 A 
HETATM   21  C   UNL     1      31.508  43.922  57.687  1.00  0.00     0.001 A 
HETATM   22  C   UNL     1      31.252  43.325  56.454  1.00  0.00     0.016 A 
BRANCH  18  23
HETATM   23  O   UNL     1      28.880  45.665  54.941  1.00  0.00    -0.355 OA
HETATM   24  C   UNL     1      28.234  46.895  55.258  1.00  0.00     0.210 C 
ENDBRANCH  18  23
ENDBRANCH  16  17
ENDBRANCH  15  16
ENDBRANCH  13  15
ENDBRANCH   1  13
TORSDOF 5
ENDMDL
MODEL 2
REMARK VINA RESULT:      -7.9      2.586      7.277
REMARK  5 active torsions:
REMARK  status: ('A' for Active; 'I' for Inactive)
REMARK    1  A    between atoms: O_2  and  C_3 
REMARK    2  A    between atoms: C_4  and  C_5 
REMARK    3  A    between atoms: C_5  and  N_6 
REMARK    4  A    between atoms: N_6  and  N_7 
REMARK    5  A    between atoms: N_7  and  C_8 
ROOT
HETATM    1  C   UNL     1      26.731  44.974  53.102  1.00  0.00     0.169 C 
HETATM    2  S   UNL     1      27.214  43.560  52.276  1.00  0.00    -0.009 SA
HETATM    3  C   UNL     1      28.418  42.916  53.351  1.00  0.00     0.229 C 
HETATM    4  O   UNL     1      28.741  41.740  53.269  1.00  0.00    -0.279 OA
HETATM    5  C   UNL     1      29.069  43.800  54.327  1.00  0.00     0.048 A 
HETATM    6  C   UNL     1      28.514  45.039  54.655  1.00  0.00     0.049 A 
HETATM    7  C   UNL     1      30.249  43.359  54.948  1.00  0.00     0.018 A 
HETATM    8  C   UNL     1      30.888  44.164  55.889  1.00  0.00     0.001 A 
HETATM    9  C   UNL     1      30.348  45.401  56.221  1.00  0.00     0.002 A 
HETATM   10  C   UNL     1      29.166  45.830  55.612  1.00  0.00     0.030 A 
HETATM   11  N   UNL     1      27.370  45.524  54.112  1.00  0.00    -0.335 N 
HETATM   12  H   UNL     1      26.960  46.389  54.453  1.00  0.00     0.168 HD
ENDROOT
BRANCH   1  13
HETATM   13  N   UNL     1      25.637  45.577  52.650  1.00  0.00    -0.257 N 
HETATM   14  H   UNL     1      24.794  45.007  52.739  1.00  0.00     0.191 HD
BRANCH  13  15
HETATM   15  N   UNL     1      25.593  46.883  52.105  1.00  0.00    -0.184 NA
BRANCH  15  16
HETATM   16  C   UNL     1      25.176  46.873  50.875  1.00  0.00     0.153 C 
BRANCH  16  17
HETATM   17  C   UNL     1      25.548  47.934  49.920  1.00  0.00     0.016 A 
HETATM   18  C   UNL     1      24.539  48.625  49.229  1.00  0.00     0.080 A 
HETATM   19  C   UNL     1      24.909  49.647  48.350  1.00  0.00     0.037 A 
HETATM   20  C   UNL     1      26.258  49.964  48.159  1.00  0.00     0.003 A 
HETATM   21  C   UNL     1      27.252  49.264  48.842  1.00  0.00     0.001 A 
HETATM   22  C   UNL     1      26.900  48.244  49.723  1.00  0.00     0.016 A 
BRANCH  18  23
HETATM   23  O   UNL     1      23.250  48.229  49.467  1.00  0.00    -0.355 OA
HETATM   24  C   UNL     1      22.522  47.694  48.364  1.00  0.00     0.210 C 
ENDBRANCH  18  23
ENDBRANCH  16  17
ENDBRANCH  15  16
ENDBRANCH  13  15
ENDBRANCH   1  13
TORSDOF 5
ENDMDL
MODEL 3
REMARK VINA RESULT:      -7.6      3.198      4.652
REMARK  5 active torsions:
REMARK  status: ('A' for Active; 'I' for Inactive)
REMARK    1  A    between atoms: O_2  and  C_3 
REMARK    2  A    between atoms: C_4  and  C_5 
REMARK    3  A    between atoms: C_5  and  N_6 
REMARK    4  A    between atoms: N_6  and  N_7 
REMARK    5  A    between atoms: N_7  and  C_8 
ROOT
HETATM    1  C   UNL     1      25.173  47.008  50.518  1.00  0.00     0.169 C 
HETATM    2  S   UNL     1      26.600  47.562  49.760  1.00  0.00    -0.009 SA
HETATM    3  C   UNL     1      26.060  49.042  49.026  1.00  0.00     0.229 C 
HETATM    4  O   UNL     1      26.876  49.887  48.689  1.00  0.00    -0.279 OA
HETATM    5  C   UNL     1      24.627  49.249  48.778  1.00  0.00     0.048 A 
HETATM    6  C   UNL     1      23.666  48.465  49.421  1.00  0.00     0.049 A 
HETATM    7  C   UNL     1      24.240  50.277  47.902  1.00  0.00     0.018 A 
HETATM    8  C   UNL     1      22.891  50.514  47.652  1.00  0.00     0.001 A 
HETATM    9  C   UNL     1      21.925  49.737  48.282  1.00  0.00     0.002 A 
HETATM   10  C   UNL     1      22.312  48.726  49.165  1.00  0.00     0.030 A 
HETATM   11  N   UNL     1      23.961  47.469  50.292  1.00  0.00    -0.335 N 
HETATM   12  H   UNL     1      23.224  46.991  50.803  1.00  0.00     0.168 HD
ENDROOT
BRANCH   1  13
HETATM   13  N   UNL     1      25.311  46.004  51.376  1.00  0.00    -0.257 N 
HETATM   14  H   UNL     1      24.468  45.822  51.925  1.00  0.00     0.191 HD
BRANCH  13  15
HETATM   15  N   UNL     1      26.483  45.227  51.538  1.00  0.00    -0.184 NA
BRANCH  15  16
HETATM   16  C   UNL     1      26.695  44.937  52.786  1.00  0.00     0.153 C 
BRANCH  16  17
HETATM   17  C   UNL     1      27.954  44.315  53.237  1.00  0.00     0.016 A 
HETATM   18  C   UNL     1      28.418  44.563  54.540  1.00  0.00     0.080 A 
HETATM   19  C   UNL     1      29.598  43.942  54.959  1.00  0.00     0.037 A 
HETATM   20  C   UNL     1      30.302  43.099  54.093  1.00  0.00     0.003 A 
HETATM   21  C   UNL     1      29.838  42.868  52.799  1.00  0.00     0.001 A 
HETATM   22  C   UNL     1      28.663  43.478  52.366  1.00  0.00     0.016 A 
BRANCH  18  23
HETATM   23  O   UNL     1      27.672  45.419  55.305  1.00  0.00    -0.355 OA
HETATM   24  C   UNL     1      28.233  46.699  55.582  1.00  0.00     0.210 C 
ENDBRANCH  18  23
ENDBRANCH  16  17
ENDBRANCH  15  16
ENDBRANCH  13  15
ENDBRANCH   1  13
TORSDOF 5
ENDMDL
MODEL 4
REMARK VINA RESULT:      -7.6      2.703      7.356
REMARK  5 active torsions:
REMARK  status: ('A' for Active; 'I' for Inactive)
REMARK    1  A    between atoms: O_2  and  C_3 
REMARK    2  A    between atoms: C_4  and  C_5 
REMARK    3  A    between atoms: C_5  and  N_6 
REMARK    4  A    between atoms: N_6  and  N_7 
REMARK    5  A    between atoms: N_7  and  C_8 
ROOT
HETATM    1  C   UNL     1      25.973  44.723  52.551  1.00  0.00     0.169 C 
HETATM    2  S   UNL     1      25.786  45.465  54.078  1.00  0.00    -0.009 SA
HETATM    3  C   UNL     1      27.403  45.388  54.710  1.00  0.00     0.229 C 
HETATM    4  O   UNL     1      27.733  46.123  55.630  1.00  0.00    -0.279 OA
HETATM    5  C   UNL     1      28.353  44.412  54.161  1.00  0.00     0.048 A 
HETATM    6  C   UNL     1      28.116  43.794  52.931  1.00  0.00     0.049 A 
HETATM    7  C   UNL     1      29.524  44.134  54.885  1.00  0.00     0.018 A 
HETATM    8  C   UNL     1      30.455  43.224  54.390  1.00  0.00     0.001 A 
HETATM    9  C   UNL     1      30.228  42.599  53.169  1.00  0.00     0.002 A 
HETATM   10  C   UNL     1      29.070  42.888  52.443  1.00  0.00     0.030 A 
HETATM   11  N   UNL     1      27.019  44.024  52.166  1.00  0.00    -0.335 N 
HETATM   12  H   UNL     1      26.940  43.619  51.237  1.00  0.00     0.168 HD
ENDROOT
BRANCH   1  13
HETATM   13  N   UNL     1      24.954  44.840  51.709  1.00  0.00    -0.257 N 
HETATM   14  H   UNL     1      24.159  44.243  51.950  1.00  0.00     0.191 HD
BRANCH  13  15
HETATM   15  N   UNL     1      24.919  45.701  50.586  1.00  0.00    -0.184 NA
BRANCH  15  16
HETATM   16  C   UNL     1      25.111  46.939  50.928  1.00  0.00     0.153 C 
BRANCH  16  17
HETATM   17  C   UNL     1      25.537  47.958  49.950  1.00  0.00     0.016 A 
HETATM   18  C   UNL     1      24.564  48.675  49.233  1.00  0.00     0.080 A 
HETATM   19  C   UNL     1      24.986  49.658  48.332  1.00  0.00     0.037 A 
HETATM   20  C   UNL     1      26.349  49.911  48.147  1.00  0.00     0.003 A 
HETATM   21  C   UNL     1      27.305  49.187  48.856  1.00  0.00     0.001 A 
HETATM   22  C   UNL     1      26.902  48.205  49.759  1.00  0.00     0.016 A 
BRANCH  18  23
HETATM   23  O   UNL     1      23.257  48.340  49.468  1.00  0.00    -0.355 OA
HETATM   24  C   UNL     1      22.356  48.429  48.366  1.00  0.00     0.210 C 
ENDBRANCH  18  23
ENDBRANCH  16  17
ENDBRANCH  15  16
ENDBRANCH  13  15
ENDBRANCH   1  13
TORSDOF 5
ENDMDL
MODEL 5
REMARK VINA RESULT:      -7.5      3.059      4.796
REMARK  5 active torsions:
REMARK  status: ('A' for Active; 'I' for Inactive)
REMARK    1  A    between atoms: O_2  and  C_3 
REMARK    2  A    between atoms: C_4  and  C_5 
REMARK    3  A    between atoms: C_5  and  N_6 
REMARK    4  A    between atoms: N_6  and  N_7 
REMARK    5  A    between atoms: N_7  and  C_8 
ROOT
HETATM    1  C   UNL     1      24.600  46.356  50.550  1.00  0.00     0.169 C 
HETATM    2  S   UNL     1      26.236  46.591  50.118  1.00  0.00    -0.009 SA
HETATM    3  C   UNL     1      26.206  48.211  49.487  1.00  0.00     0.229 C 
HETATM    4  O   UNL     1      27.245  48.849  49.399  1.00  0.00    -0.279 OA
HETATM    5  C   UNL     1      24.937  48.788  49.027  1.00  0.00     0.048 A 
HETATM    6  C   UNL     1      23.714  48.222  49.397  1.00  0.00     0.049 A 
HETATM    7  C   UNL     1      24.976  49.944  48.229  1.00  0.00     0.018 A 
HETATM    8  C   UNL     1      23.792  50.529  47.784  1.00  0.00     0.001 A 
HETATM    9  C   UNL     1      22.569  49.972  48.142  1.00  0.00     0.002 A 
HETATM   10  C   UNL     1      22.533  48.832  48.948  1.00  0.00     0.030 A 
HETATM   11  N   UNL     1      23.596  47.120  50.179  1.00  0.00    -0.335 N 
HETATM   12  H   UNL     1      22.683  46.804  50.495  1.00  0.00     0.168 HD
ENDROOT
BRANCH   1  13
HETATM   13  N   UNL     1      24.333  45.287  51.290  1.00  0.00    -0.257 N 
HETATM   14  H   UNL     1      23.335  45.072  51.348  1.00  0.00     0.191 HD
BRANCH  13  15
HETATM   15  N   UNL     1      25.301  44.485  51.942  1.00  0.00    -0.184 NA
BRANCH  15  16
HETATM   16  C   UNL     1      25.264  44.644  53.230  1.00  0.00     0.153 C 
BRANCH  16  17
HETATM   17  C   UNL     1      26.296  45.415  53.948  1.00  0.00     0.016 A 
HETATM   18  C   UNL     1      27.389  44.741  54.519  1.00  0.00     0.080 A 
HETATM   19  C   UNL     1      28.373  45.491  55.170  1.00  0.00     0.037 A 
HETATM   20  C   UNL     1      28.262  46.883  55.254  1.00  0.00     0.003 A 
HETATM   21  C   UNL     1      27.169  47.541  54.693  1.00  0.00     0.001 A 
HETATM   22  C   UNL     1      26.181  46.808  54.039  1.00  0.00     0.016 A 
BRANCH  18  23
HETATM   23  O   UNL     1      27.397  43.376  54.403  1.00  0.00    -0.355 OA
HETATM   24  C   UNL     1      28.661  42.750  54.199  1.00  0.00     0.210 C 
ENDBRANCH  18  23
ENDBRANCH  16  17
ENDBRANCH  15  16
ENDBRANCH  13  15
ENDBRANCH   1  13
TORSDOF 5
ENDMDL
MODEL 6
REMARK VINA RESULT:      -7.4      1.709      6.792
REMARK  5 active torsions:
REMARK  status: ('A' for Active; 'I' for Inactive)
REMARK    1  A    between atoms: O_2  and  C_3 
REMARK    2  A    between atoms: C_4  and  C_5 
REMARK    3  A    between atoms: C_5  and  N_6 
REMARK    4  A    between atoms: N_6  and  N_7 
REMARK    5  A    between atoms: N_7  and  C_8 
ROOT
HETATM    1  C   UNL     1      26.478  44.229  53.704  1.00  0.00     0.169 C 
HETATM    2  S   UNL     1      26.214  45.772  54.389  1.00  0.00    -0.009 SA
HETATM    3  C   UNL     1      27.811  46.198  54.929  1.00  0.00     0.229 C 
HETATM    4  O   UNL     1      28.084  47.366  55.157  1.00  0.00    -0.279 OA
HETATM    5  C   UNL     1      28.810  45.143  55.145  1.00  0.00     0.048 A 
HETATM    6  C   UNL     1      28.635  43.867  54.604  1.00  0.00     0.049 A 
HETATM    7  C   UNL     1      29.964  45.454  55.882  1.00  0.00     0.018 A 
HETATM    8  C   UNL     1      30.941  44.485  56.097  1.00  0.00     0.001 A 
HETATM    9  C   UNL     1      30.777  43.209  55.568  1.00  0.00     0.002 A 
HETATM   10  C   UNL     1      29.636  42.907  54.822  1.00  0.00     0.030 A 
HETATM   11  N   UNL     1      27.559  43.498  53.866  1.00  0.00    -0.335 N 
HETATM   12  H   UNL     1      27.525  42.585  53.419  1.00  0.00     0.168 HD
ENDROOT
BRANCH   1  13
HETATM   13  N   UNL     1      25.484  43.727  52.980  1.00  0.00    -0.257 N 
HETATM   14  H   UNL     1      25.582  42.726  52.798  1.00  0.00     0.191 HD
BRANCH  13  15
HETATM   15  N   UNL     1      24.373  44.462  52.501  1.00  0.00    -0.184 NA
BRANCH  15  16
HETATM   16  C   UNL     1      24.435  44.635  51.215  1.00  0.00     0.153 C 
BRANCH  16  17
HETATM   17  C   UNL     1      25.263  45.697  50.613  1.00  0.00     0.016 A 
HETATM   18  C   UNL     1      26.553  45.386  50.150  1.00  0.00     0.080 A 
HETATM   19  C   UNL     1      27.312  46.398  49.555  1.00  0.00     0.037 A 
HETATM   20  C   UNL     1      26.797  47.693  49.435  1.00  0.00     0.003 A 
HETATM   21  C   UNL     1      25.520  47.992  49.907  1.00  0.00     0.001 A 
HETATM   22  C   UNL     1      24.750  46.995  50.500  1.00  0.00     0.016 A 
BRANCH  18  23
HETATM   23  O   UNL     1      26.977  44.096  50.332  1.00  0.00    -0.355 OA
HETATM   24  C   UNL     1      26.609  43.145  49.336  1.00  0.00     0.210 C 
ENDBRANCH  18  23
ENDBRANCH  16  17
ENDBRANCH  15  16
ENDBRANCH  13  15
ENDBRANCH   1  13
TORSDOF 5
ENDMDL
MODEL 7
REMARK VINA RESULT:      -7.4      2.857      4.381
REMARK  5 active torsions:
REMARK  status: ('A' for Active; 'I' for Inactive)
REMARK    1  A    between atoms: O_2  and  C_3 
REMARK    2  A    between atoms: C_4  and  C_5 
REMARK    3  A    between atoms: C_5  and  N_6 
REMARK    4  A    between atoms: N_6  and  N_7 
REMARK    5  A    between atoms: N_7  and  C_8 
ROOT
HETATM    1  C   UNL     1      28.274  41.360  52.257  1.00  0.00     0.169 C 
HETATM    2  S   UNL     1      27.452  42.387  51.167  1.00  0.00    -0.009 SA
HETATM    3  C   UNL     1      27.223  41.340  49.798  1.00  0.00     0.229 C 
HETATM    4  O   UNL     1      26.376  41.610  48.960  1.00  0.00    -0.279 OA
HETATM    5  C   UNL     1      28.079  40.157  49.637  1.00  0.00     0.048 A 
HETATM    6  C   UNL     1      28.822  39.657  50.709  1.00  0.00     0.049 A 
HETATM    7  C   UNL     1      28.110  39.518  48.387  1.00  0.00     0.018 A 
HETATM    8  C   UNL     1      28.899  38.384  48.199  1.00  0.00     0.001 A 
HETATM    9  C   UNL     1      29.647  37.880  49.257  1.00  0.00     0.002 A 
HETATM   10  C   UNL     1      29.601  38.509  50.503  1.00  0.00     0.030 A 
HETATM   11  N   UNL     1      28.828  40.207  51.949  1.00  0.00    -0.335 N 
HETATM   12  H   UNL     1      29.313  39.751  52.717  1.00  0.00     0.168 HD
ENDROOT
BRANCH   1  13
HETATM   13  N   UNL     1      28.386  41.795  53.507  1.00  0.00    -0.257 N 
HETATM   14  H   UNL     1      28.562  41.047  54.181  1.00  0.00     0.191 HD
BRANCH  13  15
HETATM   15  N   UNL     1      28.294  43.149  53.910  1.00  0.00    -0.184 NA
BRANCH  15  16
HETATM   16  C   UNL     1      29.466  43.698  54.010  1.00  0.00     0.153 C 
BRANCH  16  17
HETATM   17  C   UNL     1      30.069  44.010  55.320  1.00  0.00     0.016 A 
HETATM   18  C   UNL     1      29.825  45.261  55.911  1.00  0.00     0.080 A 
HETATM   19  C   UNL     1      30.381  45.528  57.166  1.00  0.00     0.037 A 
HETATM   20  C   UNL     1      31.168  44.568  57.811  1.00  0.00     0.003 A 
HETATM   21  C   UNL     1      31.411  43.334  57.210  1.00  0.00     0.001 A 
HETATM   22  C   UNL     1      30.864  43.052  55.961  1.00  0.00     0.016 A 
BRANCH  18  23
HETATM   23  O   UNL     1      29.060  46.141  55.193  1.00  0.00    -0.355 OA
HETATM   24  C   UNL     1      27.975  46.764  55.875  1.00  0.00     0.210 C 
ENDBRANCH  18  23
ENDBRANCH  16  17
ENDBRANCH  15  16
ENDBRANCH  13  15
ENDBRANCH   1  13
TORSDOF 5
ENDMDL
MODEL 8
REMARK VINA RESULT:      -7.4      2.774      7.398
REMARK  5 active torsions:
REMARK  status: ('A' for Active; 'I' for Inactive)
REMARK    1  A    between atoms: O_2  and  C_3 
REMARK    2  A    between atoms: C_4  and  C_5 
REMARK    3  A    between atoms: C_5  and  N_6 
REMARK    4  A    between atoms: N_6  and  N_7 
REMARK    5  A    between atoms: N_7  and  C_8 
ROOT
HETATM    1  C   UNL     1      29.644  43.192  53.625  1.00  0.00     0.169 C 
HETATM    2  S   UNL     1      28.324  44.276  53.582  1.00  0.00    -0.009 SA
HETATM    3  C   UNL     1      28.742  45.394  54.845  1.00  0.00     0.229 C 
HETATM    4  O   UNL     1      28.216  46.496  54.881  1.00  0.00    -0.279 OA
HETATM    5  C   UNL     1      29.697  44.991  55.885  1.00  0.00     0.048 A 
HETATM    6  C   UNL     1      30.535  43.888  55.703  1.00  0.00     0.049 A 
HETATM    7  C   UNL     1      29.773  45.758  57.059  1.00  0.00     0.018 A 
HETATM    8  C   UNL     1      30.676  45.416  58.063  1.00  0.00     0.001 A 
HETATM    9  C   UNL     1      31.512  44.317  57.895  1.00  0.00     0.002 A 
HETATM   10  C   UNL     1      31.445  43.565  56.721  1.00  0.00     0.030 A 
HETATM   11  N   UNL     1      30.533  43.111  54.591  1.00  0.00    -0.335 N 
HETATM   12  H   UNL     1      31.225  42.377  54.470  1.00  0.00     0.168 HD
ENDROOT
BRANCH   1  13
HETATM   13  N   UNL     1      29.744  42.344  52.609  1.00  0.00    -0.257 N 
HETATM   14  H   UNL     1      30.353  42.679  51.859  1.00  0.00     0.191 HD
BRANCH  13  15
HETATM   15  N   UNL     1      29.103  41.084  52.533  1.00  0.00    -0.184 NA
BRANCH  15  16
HETATM   16  C   UNL     1      28.238  41.046  51.565  1.00  0.00     0.153 C 
BRANCH  16  17
HETATM   17  C   UNL     1      28.429  40.183  50.384  1.00  0.00     0.016 A 
HETATM   18  C   UNL     1      28.041  40.650  49.117  1.00  0.00     0.080 A 
HETATM   19  C   UNL     1      28.257  39.829  48.006  1.00  0.00     0.037 A 
HETATM   20  C   UNL     1      28.840  38.567  48.160  1.00  0.00     0.003 A 
HETATM   21  C   UNL     1      29.212  38.110  49.423  1.00  0.00     0.001 A 
HETATM   22  C   UNL     1      29.005  38.916  50.540  1.00  0.00     0.016 A 
BRANCH  18  23
HETATM   23  O   UNL     1      27.459  41.889  49.071  1.00  0.00    -0.355 OA
HETATM   24  C   UNL     1      26.092  41.950  48.673  1.00  0.00     0.210 C 
ENDBRANCH  18  23
ENDBRANCH  16  17
ENDBRANCH  15  16
ENDBRANCH  13  15
ENDBRANCH   1  13
TORSDOF 5
ENDMDL
MODEL 9
REMARK VINA RESULT:      -7.2      3.357      7.665
REMARK  5 active torsions:
REMARK  status: ('A' for Active; 'I' for Inactive)
REMARK    1  A    between atoms: O_2  and  C_3 
REMARK    2  A    between atoms: C_4  and  C_5 
REMARK    3  A    between atoms: C_5  and  N_6 
REMARK    4  A    between atoms: N_6  and  N_7 
REMARK    5  A    between atoms: N_7  and  C_8 
ROOT
HETATM    1  C   UNL     1      29.077  43.511  53.461  1.00  0.00     0.169 C 
HETATM    2  S   UNL     1      27.925  44.749  53.706  1.00  0.00    -0.009 SA
HETATM    3  C   UNL     1      28.641  45.645  55.013  1.00  0.00     0.229 C 
HETATM    4  O   UNL     1      28.281  46.792  55.232  1.00  0.00    -0.279 OA
HETATM    5  C   UNL     1      29.646  45.003  55.870  1.00  0.00     0.048 A 
HETATM    6  C   UNL     1      30.294  43.834  55.464  1.00  0.00     0.049 A 
HETATM    7  C   UNL     1      29.965  45.607  57.097  1.00  0.00     0.018 A 
HETATM    8  C   UNL     1      30.924  45.036  57.931  1.00  0.00     0.001 A 
HETATM    9  C   UNL     1      31.572  43.870  57.541  1.00  0.00     0.002 A 
HETATM   10  C   UNL     1      31.264  43.279  56.313  1.00  0.00     0.030 A 
HETATM   11  N   UNL     1      30.053  43.203  54.288  1.00  0.00    -0.335 N 
HETATM   12  H   UNL     1      30.618  42.409  54.000  1.00  0.00     0.168 HD
ENDROOT
BRANCH   1  13
HETATM   13  N   UNL     1      28.938  42.785  52.358  1.00  0.00    -0.257 N 
HETATM   14  H   UNL     1      29.540  43.095  51.592  1.00  0.00     0.191 HD
BRANCH  13  15
HETATM   15  N   UNL     1      28.069  41.677  52.216  1.00  0.00    -0.184 NA
BRANCH  15  16
HETATM   16  C   UNL     1      28.716  40.604  51.874  1.00  0.00     0.153 C 
BRANCH  16  17
HETATM   17  C   UNL     1      28.600  40.025  50.522  1.00  0.00     0.016 A 
HETATM   18  C   UNL     1      29.157  38.762  50.263  1.00  0.00     0.080 A 
HETATM   19  C   UNL     1      29.012  38.216  48.983  1.00  0.00     0.037 A 
HETATM   20  C   UNL     1      28.334  38.922  47.985  1.00  0.00     0.003 A 
HETATM   21  C   UNL     1      27.795  40.180  48.250  1.00  0.00     0.001 A 
HETATM   22  C   UNL     1      27.928  40.737  49.520  1.00  0.00     0.016 A 
BRANCH  18  23
HETATM   23  O   UNL     1      29.820  38.158  51.298  1.00  0.00    -0.355 OA
HETATM   24  C   UNL     1      29.778  36.735  51.354  1.00  0.00     0.210 C 
ENDBRANCH  18  23
ENDBRANCH  16  17
ENDBRANCH  15  16
ENDBRANCH  13  15
ENDBRANCH   1  13
TORSDOF 5
ENDMDL
MODEL 10
REMARK VINA RESULT:      -7.2      2.091      7.450
REMARK  5 active torsions:
REMARK  status: ('A' for Active; 'I' for Inactive)
REMARK    1  A    between atoms: O_2  and  C_3 
REMARK    2  A    between atoms: C_4  and  C_5 
REMARK    3  A    between atoms: C_5  and  N_6 
REMARK    4  A    between atoms: N_6  and  N_7 
REMARK    5  A    between atoms: N_7  and  C_8 
ROOT
HETATM    1  C   UNL     1      26.765  45.258  53.162  1.00  0.00     0.169 C 
HETATM    2  S   UNL     1      27.189  43.849  52.295  1.00  0.00    -0.009 SA
HETATM    3  C   UNL     1      28.364  43.123  53.350  1.00  0.00     0.229 C 
HETATM    4  O   UNL     1      28.636  41.937  53.233  1.00  0.00    -0.279 OA
HETATM    5  C   UNL     1      29.051  43.949  54.351  1.00  0.00     0.048 A 
HETATM    6  C   UNL     1      28.548  45.201  54.716  1.00  0.00     0.049 A 
HETATM    7  C   UNL     1      30.210  43.441  54.959  1.00  0.00     0.018 A 
HETATM    8  C   UNL     1      30.882  44.189  55.923  1.00  0.00     0.001 A 
HETATM    9  C   UNL     1      30.395  45.438  56.291  1.00  0.00     0.002 A 
HETATM   10  C   UNL     1      29.233  45.935  55.696  1.00  0.00     0.030 A 
HETATM   11  N   UNL     1      27.426  45.749  54.188  1.00  0.00    -0.335 N 
HETATM   12  H   UNL     1      27.053  46.621  54.555  1.00  0.00     0.168 HD
ENDROOT
BRANCH   1  13
HETATM   13  N   UNL     1      25.699  45.919  52.729  1.00  0.00    -0.257 N 
HETATM   14  H   UNL     1      24.823  45.409  52.863  1.00  0.00     0.191 HD
BRANCH  13  15
HETATM   15  N   UNL     1      25.722  47.210  52.147  1.00  0.00    -0.184 NA
BRANCH  15  16
HETATM   16  C   UNL     1      25.843  47.148  50.855  1.00  0.00     0.153 C 
BRANCH  16  17
HETATM   17  C   UNL     1      24.671  47.197  49.961  1.00  0.00     0.016 A 
HETATM   18  C   UNL     1      24.058  45.998  49.562  1.00  0.00     0.080 A 
HETATM   19  C   UNL     1      22.930  46.065  48.738  1.00  0.00     0.037 A 
HETATM   20  C   UNL     1      22.432  47.303  48.317  1.00  0.00     0.003 A 
HETATM   21  C   UNL     1      23.055  48.486  48.711  1.00  0.00     0.001 A 
HETATM   22  C   UNL     1      24.179  48.437  49.533  1.00  0.00     0.016 A 
BRANCH  18  23
HETATM   23  O   UNL     1      24.630  44.837  50.008  1.00  0.00    -0.355 OA
HETATM   24  C   UNL     1      23.750  43.811  50.460  1.00  0.00     0.210 C 
ENDBRANCH  18  23
ENDBRANCH  16  17
ENDBRANCH  15  16
ENDBRANCH  13  15
ENDBRANCH   1  13
TORSDOF 5
ENDMDL
