MODEL 1
REMARK VINA RESULT:     -11.1      0.000      0.000
REMARK  3 active torsions:
REMARK  status: ('A' for Active; 'I' for Inactive)
REMARK    1  A    between atoms: C_2  and  N_3 
REMARK    2  A    between atoms: C_6  and  C_7 
REMARK       I    between atoms: C_7  and  N_8 
REMARK    3  A    between atoms: N_8  and  C_9 
ROOT
HETATM    1  C   UNL     1      25.525  45.553  50.446  1.00  0.00     0.036 A 
HETATM    2  C   UNL     1      25.224  46.900  50.238  1.00  0.00     0.049 A 
HETATM    3  C   UNL     1      24.134  47.298  49.429  1.00  0.00     0.061 A 
HETATM    4  C   UNL     1      23.345  46.322  48.806  1.00  0.00     0.050 A 
HETATM    5  N   UNL     1      22.214  46.549  48.006  1.00  0.00    -0.324 N 
HETATM    6  C   UNL     1      21.308  47.571  48.072  1.00  0.00     0.245 C 
HETATM    7  O   UNL     1      20.291  47.486  47.379  1.00  0.00    -0.271 OA
HETATM    8  C   UNL     1      21.494  48.635  49.148  1.00  0.00     0.180 C 
HETATM    9  N   UNL     1      22.770  49.315  48.999  1.00  0.00    -0.334 N 
HETATM   10  C   UNL     1      24.012  48.762  49.196  1.00  0.00     0.256 C 
HETATM   11  O   UNL     1      25.032  49.448  49.196  1.00  0.00    -0.267 OA
HETATM   12  C   UNL     1      20.452  49.756  49.036  1.00  0.00     0.037 C 
HETATM   13  C   UNL     1      21.210  50.991  49.504  1.00  0.00     0.022 C 
HETATM   14  C   UNL     1      22.600  50.757  48.936  1.00  0.00     0.127 C 
HETATM   15  C   UNL     1      23.694  44.972  48.965  1.00  0.00     0.033 A 
HETATM   16  C   UNL     1      24.757  44.592  49.790  1.00  0.00     0.032 A 
HETATM   17  H   UNL     1      21.882  45.793  47.416  1.00  0.00     0.169 HD
ENDROOT
BRANCH   1  18
HETATM   18  N   UNL     1      26.567  45.085  51.274  1.00  0.00    -0.323 N 
HETATM   19  C   UNL     1      26.454  44.458  52.500  1.00  0.00     0.257 C 
HETATM   20  O   UNL     1      25.411  44.155  53.067  1.00  0.00    -0.267 OA
HETATM   21  H   UNL     1      27.503  45.180  50.902  1.00  0.00     0.169 HD
BRANCH  19  22
HETATM   22  C   UNL     1      27.738  44.057  53.139  1.00  0.00     0.044 A 
HETATM   23  C   UNL     1      28.216  44.627  54.347  1.00  0.00     0.008 A 
HETATM   24  C   UNL     1      29.468  44.212  54.836  1.00  0.00     0.045 A 
HETATM   25  C   UNL     1      27.702  45.561  55.294  1.00  0.00     0.032 A 
HETATM   26  N   UNL     1      29.720  44.934  55.992  1.00  0.00    -0.352 N 
HETATM   27  C   UNL     1      30.222  43.224  54.178  1.00  0.00     0.030 A 
HETATM   28  C   UNL     1      28.648  45.746  56.271  1.00  0.00     0.092 A 
HETATM   29  C   UNL     1      29.713  42.648  53.013  1.00  0.00     0.003 A 
HETATM   30  C   UNL     1      28.491  43.058  52.497  1.00  0.00     0.018 A 
BRANCH  26  31
HETATM   31  C   UNL     1      30.908  44.871  56.847  1.00  0.00     0.081 C 
HETATM   32  C   UNL     1      31.372  43.441  57.126  1.00  0.00     0.032 C 
HETATM   33  C   UNL     1      30.745  45.689  58.128  1.00  0.00     0.032 C 
ENDBRANCH  26  31
ENDBRANCH  19  22
ENDBRANCH   1  18
TORSDOF 3
ENDMDL
MODEL 2
REMARK VINA RESULT:     -10.4      2.010     10.027
REMARK  3 active torsions:
REMARK  status: ('A' for Active; 'I' for Inactive)
REMARK    1  A    between atoms: C_2  and  N_3 
REMARK    2  A    between atoms: C_6  and  C_7 
REMARK       I    between atoms: C_7  and  N_8 
REMARK    3  A    between atoms: N_8  and  C_9 
ROOT
HETATM    1  C   UNL     1      24.920  46.211  51.373  1.00  0.00     0.036 A 
HETATM    2  C   UNL     1      25.801  46.351  52.447  1.00  0.00     0.049 A 
HETATM    3  C   UNL     1      26.374  45.226  53.083  1.00  0.00     0.061 A 
HETATM    4  C   UNL     1      26.043  43.938  52.641  1.00  0.00     0.050 A 
HETATM    5  N   UNL     1      26.550  42.727  53.138  1.00  0.00    -0.324 N 
HETATM    6  C   UNL     1      27.775  42.473  53.690  1.00  0.00     0.245 C 
HETATM    7  O   UNL     1      28.077  41.298  53.908  1.00  0.00    -0.271 OA
HETATM    8  C   UNL     1      28.774  43.621  53.797  1.00  0.00     0.180 C 
HETATM    9  N   UNL     1      28.246  44.702  54.613  1.00  0.00    -0.334 N 
HETATM   10  C   UNL     1      27.192  45.522  54.290  1.00  0.00     0.256 C 
HETATM   11  O   UNL     1      26.909  46.506  54.970  1.00  0.00    -0.267 OA
HETATM   12  C   UNL     1      30.062  43.199  54.515  1.00  0.00     0.037 C 
HETATM   13  C   UNL     1      30.491  44.464  55.244  1.00  0.00     0.022 C 
HETATM   14  C   UNL     1      29.162  45.055  55.684  1.00  0.00     0.127 C 
HETATM   15  C   UNL     1      25.106  43.804  51.605  1.00  0.00     0.033 A 
HETATM   16  C   UNL     1      24.568  44.925  50.966  1.00  0.00     0.032 A 
HETATM   17  H   UNL     1      26.057  41.870  52.913  1.00  0.00     0.169 HD
ENDROOT
BRANCH   1  18
HETATM   18  N   UNL     1      24.347  47.288  50.665  1.00  0.00    -0.323 N 
HETATM   19  C   UNL     1      23.644  47.238  49.475  1.00  0.00     0.257 C 
HETATM   20  O   UNL     1      23.355  46.227  48.845  1.00  0.00    -0.267 OA
HETATM   21  H   UNL     1      24.420  48.195  51.105  1.00  0.00     0.169 HD
BRANCH  19  22
HETATM   22  C   UNL     1      23.138  48.544  48.971  1.00  0.00     0.044 A 
HETATM   23  C   UNL     1      21.758  48.835  48.817  1.00  0.00     0.008 A 
HETATM   24  C   UNL     1      21.390  50.084  48.283  1.00  0.00     0.045 A 
HETATM   25  C   UNL     1      20.543  48.152  49.120  1.00  0.00     0.032 A 
HETATM   26  N   UNL     1      20.007  50.107  48.201  1.00  0.00    -0.352 N 
HETATM   27  C   UNL     1      22.355  51.049  47.945  1.00  0.00     0.030 A 
HETATM   28  C   UNL     1      19.495  48.939  48.713  1.00  0.00     0.092 A 
HETATM   29  C   UNL     1      23.705  50.756  48.143  1.00  0.00     0.003 A 
HETATM   30  C   UNL     1      24.094  49.523  48.646  1.00  0.00     0.018 A 
BRANCH  26  31
HETATM   31  C   UNL     1      19.157  51.184  47.686  1.00  0.00     0.081 C 
HETATM   32  C   UNL     1      18.943  52.312  48.696  1.00  0.00     0.032 C 
HETATM   33  C   UNL     1      17.841  50.661  47.112  1.00  0.00     0.032 C 
ENDBRANCH  26  31
ENDBRANCH  19  22
ENDBRANCH   1  18
TORSDOF 3
ENDMDL
MODEL 3
REMARK VINA RESULT:     -10.0      2.060      9.980
REMARK  3 active torsions:
REMARK  status: ('A' for Active; 'I' for Inactive)
REMARK    1  A    between atoms: C_2  and  N_3 
REMARK    2  A    between atoms: C_6  and  C_7 
REMARK       I    between atoms: C_7  and  N_8 
REMARK    3  A    between atoms: N_8  and  C_9 
ROOT
HETATM    1  C   UNL     1      24.879  45.931  50.137  1.00  0.00     0.036 A 
HETATM    2  C   UNL     1      25.486  45.702  51.372  1.00  0.00     0.049 A 
HETATM    3  C   UNL     1      26.164  44.491  51.649  1.00  0.00     0.061 A 
HETATM    4  C   UNL     1      26.216  43.490  50.670  1.00  0.00     0.050 A 
HETATM    5  N   UNL     1      26.876  42.255  50.774  1.00  0.00    -0.324 N 
HETATM    6  C   UNL     1      27.999  41.940  51.486  1.00  0.00     0.245 C 
HETATM    7  O   UNL     1      28.508  40.831  51.302  1.00  0.00    -0.271 OA
HETATM    8  C   UNL     1      28.680  43.042  52.291  1.00  0.00     0.180 C 
HETATM    9  N   UNL     1      27.781  43.593  53.292  1.00  0.00    -0.334 N 
HETATM   10  C   UNL     1      26.652  44.337  53.046  1.00  0.00     0.256 C 
HETATM   11  O   UNL     1      26.034  44.890  53.953  1.00  0.00    -0.267 OA
HETATM   12  C   UNL     1      29.870  42.513  53.102  1.00  0.00     0.037 C 
HETATM   13  C   UNL     1      29.861  43.384  54.351  1.00  0.00     0.022 C 
HETATM   14  C   UNL     1      28.376  43.561  54.617  1.00  0.00     0.127 C 
HETATM   15  C   UNL     1      25.546  43.701  49.456  1.00  0.00     0.033 A 
HETATM   16  C   UNL     1      24.903  44.913  49.185  1.00  0.00     0.032 A 
HETATM   17  H   UNL     1      26.637  41.525  50.111  1.00  0.00     0.169 HD
ENDROOT
BRANCH   1  18
HETATM   18  N   UNL     1      24.225  47.128  49.778  1.00  0.00    -0.323 N 
HETATM   19  C   UNL     1      23.087  47.271  49.007  1.00  0.00     0.257 C 
HETATM   20  O   UNL     1      22.413  46.364  48.533  1.00  0.00    -0.267 OA
HETATM   21  H   UNL     1      24.611  47.977  50.171  1.00  0.00     0.169 HD
BRANCH  19  22
HETATM   22  C   UNL     1      22.614  48.669  48.810  1.00  0.00     0.044 A 
HETATM   23  C   UNL     1      21.272  49.073  49.028  1.00  0.00     0.008 A 
HETATM   24  C   UNL     1      20.920  50.409  48.762  1.00  0.00     0.045 A 
HETATM   25  C   UNL     1      20.095  48.438  49.523  1.00  0.00     0.032 A 
HETATM   26  N   UNL     1      19.564  50.539  49.016  1.00  0.00    -0.352 N 
HETATM   27  C   UNL     1      21.876  51.347  48.330  1.00  0.00     0.030 A 
HETATM   28  C   UNL     1      19.066  49.346  49.481  1.00  0.00     0.092 A 
HETATM   29  C   UNL     1      23.199  50.936  48.161  1.00  0.00     0.003 A 
HETATM   30  C   UNL     1      23.565  49.618  48.394  1.00  0.00     0.018 A 
BRANCH  26  31
HETATM   31  C   UNL     1      18.733  51.736  48.861  1.00  0.00     0.081 C 
HETATM   32  C   UNL     1      17.567  51.787  49.849  1.00  0.00     0.032 C 
HETATM   33  C   UNL     1      18.281  51.946  47.417  1.00  0.00     0.032 C 
ENDBRANCH  26  31
ENDBRANCH  19  22
ENDBRANCH   1  18
TORSDOF 3
ENDMDL
MODEL 4
REMARK VINA RESULT:      -9.7      3.465      7.023
REMARK  3 active torsions:
REMARK  status: ('A' for Active; 'I' for Inactive)
REMARK    1  A    between atoms: C_2  and  N_3 
REMARK    2  A    between atoms: C_6  and  C_7 
REMARK       I    between atoms: C_7  and  N_8 
REMARK    3  A    between atoms: N_8  and  C_9 
ROOT
HETATM    1  C   UNL     1      21.053  49.767  49.458  1.00  0.00     0.036 A 
HETATM    2  C   UNL     1      19.957  49.033  49.000  1.00  0.00     0.049 A 
HETATM    3  C   UNL     1      18.664  49.603  48.930  1.00  0.00     0.061 A 
HETATM    4  C   UNL     1      18.470  50.928  49.343  1.00  0.00     0.050 A 
HETATM    5  N   UNL     1      17.265  51.647  49.303  1.00  0.00    -0.324 N 
HETATM    6  C   UNL     1      16.221  51.522  48.428  1.00  0.00     0.245 C 
HETATM    7  O   UNL     1      15.329  52.372  48.470  1.00  0.00    -0.271 OA
HETATM    8  C   UNL     1      16.327  50.483  47.317  1.00  0.00     0.180 C 
HETATM    9  N   UNL     1      16.481  49.145  47.863  1.00  0.00    -0.334 N 
HETATM   10  C   UNL     1      17.574  48.667  48.545  1.00  0.00     0.256 C 
HETATM   11  O   UNL     1      17.682  47.479  48.839  1.00  0.00    -0.267 OA
HETATM   12  C   UNL     1      15.045  50.404  46.477  1.00  0.00     0.037 C 
HETATM   13  C   UNL     1      14.972  48.937  46.081  1.00  0.00     0.022 C 
HETATM   14  C   UNL     1      15.482  48.234  47.328  1.00  0.00     0.127 C 
HETATM   15  C   UNL     1      19.563  51.637  49.864  1.00  0.00     0.033 A 
HETATM   16  C   UNL     1      20.841  51.071  49.902  1.00  0.00     0.032 A 
HETATM   17  H   UNL     1      17.194  52.498  49.850  1.00  0.00     0.169 HD
ENDROOT
BRANCH   1  18
HETATM   18  N   UNL     1      22.375  49.277  49.513  1.00  0.00    -0.323 N 
HETATM   19  C   UNL     1      23.350  49.367  48.538  1.00  0.00     0.257 C 
HETATM   20  O   UNL     1      23.246  49.937  47.457  1.00  0.00    -0.267 OA
HETATM   21  H   UNL     1      22.653  48.853  50.388  1.00  0.00     0.169 HD
BRANCH  19  22
HETATM   22  C   UNL     1      24.668  48.770  48.888  1.00  0.00     0.044 A 
HETATM   23  C   UNL     1      24.810  47.468  49.433  1.00  0.00     0.008 A 
HETATM   24  C   UNL     1      26.100  47.020  49.776  1.00  0.00     0.045 A 
HETATM   25  C   UNL     1      23.921  46.389  49.713  1.00  0.00     0.032 A 
HETATM   26  N   UNL     1      25.967  45.750  50.314  1.00  0.00    -0.352 N 
HETATM   27  C   UNL     1      27.236  47.817  49.551  1.00  0.00     0.030 A 
HETATM   28  C   UNL     1      24.648  45.366  50.271  1.00  0.00     0.092 A 
HETATM   29  C   UNL     1      27.076  49.078  48.977  1.00  0.00     0.003 A 
HETATM   30  C   UNL     1      25.813  49.552  48.651  1.00  0.00     0.018 A 
BRANCH  26  31
HETATM   31  C   UNL     1      27.025  44.884  50.840  1.00  0.00     0.081 C 
HETATM   32  C   UNL     1      27.091  43.526  50.140  1.00  0.00     0.032 C 
HETATM   33  C   UNL     1      26.964  44.750  52.361  1.00  0.00     0.032 C 
ENDBRANCH  26  31
ENDBRANCH  19  22
ENDBRANCH   1  18
TORSDOF 3
ENDMDL
MODEL 5
REMARK VINA RESULT:      -9.6      2.465     10.164
REMARK  3 active torsions:
REMARK  status: ('A' for Active; 'I' for Inactive)
REMARK    1  A    between atoms: C_2  and  N_3 
REMARK    2  A    between atoms: C_6  and  C_7 
REMARK       I    between atoms: C_7  and  N_8 
REMARK    3  A    between atoms: N_8  and  C_9 
ROOT
HETATM    1  C   UNL     1      24.719  46.392  50.885  1.00  0.00     0.036 A 
HETATM    2  C   UNL     1      25.422  45.240  50.532  1.00  0.00     0.049 A 
HETATM    3  C   UNL     1      26.483  44.749  51.329  1.00  0.00     0.061 A 
HETATM    4  C   UNL     1      26.849  45.439  52.492  1.00  0.00     0.050 A 
HETATM    5  N   UNL     1      27.849  45.066  53.405  1.00  0.00    -0.324 N 
HETATM    6  C   UNL     1      28.284  43.812  53.734  1.00  0.00     0.245 C 
HETATM    7  O   UNL     1      29.059  43.702  54.687  1.00  0.00    -0.271 OA
HETATM    8  C   UNL     1      27.626  42.615  53.056  1.00  0.00     0.180 C 
HETATM    9  N   UNL     1      27.793  42.670  51.614  1.00  0.00    -0.334 N 
HETATM   10  C   UNL     1      27.221  43.587  50.765  1.00  0.00     0.256 C 
HETATM   11  O   UNL     1      27.295  43.470  49.543  1.00  0.00    -0.267 OA
HETATM   12  C   UNL     1      28.281  41.289  53.463  1.00  0.00     0.037 C 
HETATM   13  C   UNL     1      28.152  40.433  52.212  1.00  0.00     0.022 C 
HETATM   14  C   UNL     1      28.375  41.443  51.098  1.00  0.00     0.127 C 
HETATM   15  C   UNL     1      26.182  46.634  52.804  1.00  0.00     0.033 A 
HETATM   16  C   UNL     1      25.118  47.093  52.023  1.00  0.00     0.032 A 
HETATM   17  H   UNL     1      28.187  45.763  54.060  1.00  0.00     0.169 HD
ENDROOT
BRANCH   1  18
HETATM   18  N   UNL     1      23.625  46.913  50.162  1.00  0.00    -0.323 N 
HETATM   19  C   UNL     1      23.550  48.124  49.499  1.00  0.00     0.257 C 
HETATM   20  O   UNL     1      24.452  48.946  49.386  1.00  0.00    -0.267 OA
HETATM   21  H   UNL     1      22.819  46.307  50.083  1.00  0.00     0.169 HD
BRANCH  19  22
HETATM   22  C   UNL     1      22.263  48.398  48.803  1.00  0.00     0.044 A 
HETATM   23  C   UNL     1      21.414  49.484  49.140  1.00  0.00     0.008 A 
HETATM   24  C   UNL     1      20.194  49.621  48.452  1.00  0.00     0.045 A 
HETATM   25  C   UNL     1      21.494  50.586  50.041  1.00  0.00     0.032 A 
HETATM   26  N   UNL     1      19.541  50.722  48.984  1.00  0.00    -0.352 N 
HETATM   27  C   UNL     1      19.830  48.736  47.421  1.00  0.00     0.030 A 
HETATM   28  C   UNL     1      20.331  51.308  49.942  1.00  0.00     0.092 A 
HETATM   29  C   UNL     1      20.700  47.700  47.080  1.00  0.00     0.003 A 
HETATM   30  C   UNL     1      21.898  47.529  47.760  1.00  0.00     0.018 A 
BRANCH  26  31
HETATM   31  C   UNL     1      18.226  51.251  48.611  1.00  0.00     0.081 C 
HETATM   32  C   UNL     1      18.248  52.048  47.307  1.00  0.00     0.032 C 
HETATM   33  C   UNL     1      17.567  52.023  49.753  1.00  0.00     0.032 C 
ENDBRANCH  26  31
ENDBRANCH  19  22
ENDBRANCH   1  18
TORSDOF 3
ENDMDL
MODEL 6
REMARK VINA RESULT:      -9.5      1.870      2.378
REMARK  3 active torsions:
REMARK  status: ('A' for Active; 'I' for Inactive)
REMARK    1  A    between atoms: C_2  and  N_3 
REMARK    2  A    between atoms: C_6  and  C_7 
REMARK       I    between atoms: C_7  and  N_8 
REMARK    3  A    between atoms: N_8  and  C_9 
ROOT
HETATM    1  C   UNL     1      24.648  43.994  50.179  1.00  0.00     0.036 A 
HETATM    2  C   UNL     1      24.046  45.215  49.871  1.00  0.00     0.049 A 
HETATM    3  C   UNL     1      22.972  45.298  48.954  1.00  0.00     0.061 A 
HETATM    4  C   UNL     1      22.508  44.134  48.327  1.00  0.00     0.050 A 
HETATM    5  N   UNL     1      21.435  44.042  47.426  1.00  0.00    -0.324 N 
HETATM    6  C   UNL     1      20.303  44.807  47.360  1.00  0.00     0.245 C 
HETATM    7  O   UNL     1      19.407  44.446  46.593  1.00  0.00    -0.271 OA
HETATM    8  C   UNL     1      20.121  45.922  48.384  1.00  0.00     0.180 C 
HETATM    9  N   UNL     1      21.199  46.894  48.300  1.00  0.00    -0.334 N 
HETATM   10  C   UNL     1      22.515  46.676  48.629  1.00  0.00     0.256 C 
HETATM   11  O   UNL     1      23.330  47.595  48.671  1.00  0.00    -0.267 OA
HETATM   12  C   UNL     1      18.851  46.742  48.124  1.00  0.00     0.037 C 
HETATM   13  C   UNL     1      19.235  48.143  48.580  1.00  0.00     0.022 C 
HETATM   14  C   UNL     1      20.686  48.244  48.140  1.00  0.00     0.127 C 
HETATM   15  C   UNL     1      23.162  42.921  48.591  1.00  0.00     0.033 A 
HETATM   16  C   UNL     1      24.204  42.849  49.520  1.00  0.00     0.032 A 
HETATM   17  H   UNL     1      21.355  43.207  46.857  1.00  0.00     0.169 HD
ENDROOT
BRANCH   1  18
HETATM   18  N   UNL     1      25.692  43.832  51.114  1.00  0.00    -0.323 N 
HETATM   19  C   UNL     1      27.033  44.117  50.941  1.00  0.00     0.257 C 
HETATM   20  O   UNL     1      27.547  44.610  49.944  1.00  0.00    -0.267 OA
HETATM   21  H   UNL     1      25.416  43.513  52.034  1.00  0.00     0.169 HD
BRANCH  19  22
HETATM   22  C   UNL     1      27.904  43.858  52.120  1.00  0.00     0.044 A 
HETATM   23  C   UNL     1      27.878  44.654  53.295  1.00  0.00     0.008 A 
HETATM   24  C   UNL     1      28.780  44.352  54.331  1.00  0.00     0.045 A 
HETATM   25  C   UNL     1      27.086  45.747  53.755  1.00  0.00     0.032 A 
HETATM   26  N   UNL     1      28.582  45.285  55.337  1.00  0.00    -0.352 N 
HETATM   27  C   UNL     1      29.666  43.263  54.239  1.00  0.00     0.030 A 
HETATM   28  C   UNL     1      27.552  46.126  54.989  1.00  0.00     0.092 A 
HETATM   29  C   UNL     1      29.646  42.470  53.091  1.00  0.00     0.003 A 
HETATM   30  C   UNL     1      28.781  42.761  52.045  1.00  0.00     0.018 A 
BRANCH  26  31
HETATM   31  C   UNL     1      29.300  45.399  56.609  1.00  0.00     0.081 C 
HETATM   32  C   UNL     1      28.559  46.249  57.641  1.00  0.00     0.032 C 
HETATM   33  C   UNL     1      30.749  45.847  56.419  1.00  0.00     0.032 C 
ENDBRANCH  26  31
ENDBRANCH  19  22
ENDBRANCH   1  18
TORSDOF 3
ENDMDL
MODEL 7
REMARK VINA RESULT:      -9.3      2.375      4.168
REMARK  3 active torsions:
REMARK  status: ('A' for Active; 'I' for Inactive)
REMARK    1  A    between atoms: C_2  and  N_3 
REMARK    2  A    between atoms: C_6  and  C_7 
REMARK       I    between atoms: C_7  and  N_8 
REMARK    3  A    between atoms: N_8  and  C_9 
ROOT
HETATM    1  C   UNL     1      22.284  47.345  48.695  1.00  0.00     0.036 A 
HETATM    2  C   UNL     1      21.738  48.545  49.153  1.00  0.00     0.049 A 
HETATM    3  C   UNL     1      20.667  49.175  48.477  1.00  0.00     0.061 A 
HETATM    4  C   UNL     1      20.148  48.594  47.313  1.00  0.00     0.050 A 
HETATM    5  N   UNL     1      19.070  49.071  46.550  1.00  0.00    -0.324 N 
HETATM    6  C   UNL     1      17.975  49.778  46.963  1.00  0.00     0.245 C 
HETATM    7  O   UNL     1      17.061  49.951  46.153  1.00  0.00    -0.271 OA
HETATM    8  C   UNL     1      17.847  50.117  48.444  1.00  0.00     0.180 C 
HETATM    9  N   UNL     1      18.968  50.924  48.897  1.00  0.00    -0.334 N 
HETATM   10  C   UNL     1      20.274  50.509  49.006  1.00  0.00     0.256 C 
HETATM   11  O   UNL     1      21.131  51.210  49.540  1.00  0.00    -0.267 OA
HETATM   12  C   UNL     1      16.615  50.985  48.733  1.00  0.00     0.037 C 
HETATM   13  C   UNL     1      17.066  51.862  49.893  1.00  0.00     0.022 C 
HETATM   14  C   UNL     1      18.519  52.142  49.548  1.00  0.00     0.127 C 
HETATM   15  C   UNL     1      20.746  47.423  46.821  1.00  0.00     0.033 A 
HETATM   16  C   UNL     1      21.786  46.796  47.514  1.00  0.00     0.032 A 
HETATM   17  H   UNL     1      18.950  48.712  45.609  1.00  0.00     0.169 HD
ENDROOT
BRANCH   1  18
HETATM   18  N   UNL     1      23.321  46.641  49.341  1.00  0.00    -0.323 N 
HETATM   19  C   UNL     1      24.511  47.149  49.829  1.00  0.00     0.257 C 
HETATM   20  O   UNL     1      24.854  48.325  49.824  1.00  0.00    -0.267 OA
HETATM   21  H   UNL     1      23.151  45.658  49.508  1.00  0.00     0.169 HD
BRANCH  19  22
HETATM   22  C   UNL     1      25.411  46.161  50.484  1.00  0.00     0.044 A 
HETATM   23  C   UNL     1      25.787  46.239  51.851  1.00  0.00     0.008 A 
HETATM   24  C   UNL     1      26.685  45.281  52.356  1.00  0.00     0.045 A 
HETATM   25  C   UNL     1      25.435  47.081  52.947  1.00  0.00     0.032 A 
HETATM   26  N   UNL     1      26.916  45.594  53.686  1.00  0.00    -0.352 N 
HETATM   27  C   UNL     1      27.176  44.239  51.550  1.00  0.00     0.030 A 
HETATM   28  C   UNL     1      26.155  46.680  54.044  1.00  0.00     0.092 A 
HETATM   29  C   UNL     1      26.761  44.159  50.220  1.00  0.00     0.003 A 
HETATM   30  C   UNL     1      25.894  45.105  49.692  1.00  0.00     0.018 A 
BRANCH  26  31
HETATM   31  C   UNL     1      27.800  44.903  54.630  1.00  0.00     0.081 C 
HETATM   32  C   UNL     1      28.294  45.806  55.760  1.00  0.00     0.032 C 
HETATM   33  C   UNL     1      28.943  44.174  53.926  1.00  0.00     0.032 C 
ENDBRANCH  26  31
ENDBRANCH  19  22
ENDBRANCH   1  18
TORSDOF 3
ENDMDL
MODEL 8
REMARK VINA RESULT:      -9.2      4.296     12.270
REMARK  3 active torsions:
REMARK  status: ('A' for Active; 'I' for Inactive)
REMARK    1  A    between atoms: C_2  and  N_3 
REMARK    2  A    between atoms: C_6  and  C_7 
REMARK       I    between atoms: C_7  and  N_8 
REMARK    3  A    between atoms: N_8  and  C_9 
ROOT
HETATM    1  C   UNL     1      21.143  50.341  48.569  1.00  0.00     0.036 A 
HETATM    2  C   UNL     1      21.402  48.983  48.760  1.00  0.00     0.049 A 
HETATM    3  C   UNL     1      22.724  48.495  48.886  1.00  0.00     0.061 A 
HETATM    4  C   UNL     1      23.801  49.387  48.803  1.00  0.00     0.050 A 
HETATM    5  N   UNL     1      25.162  49.069  48.943  1.00  0.00    -0.324 N 
HETATM    6  C   UNL     1      25.738  48.080  49.690  1.00  0.00     0.245 C 
HETATM    7  O   UNL     1      26.966  48.084  49.803  1.00  0.00    -0.271 OA
HETATM    8  C   UNL     1      24.831  47.171  50.514  1.00  0.00     0.180 C 
HETATM    9  N   UNL     1      23.892  46.458  49.665  1.00  0.00    -0.334 N 
HETATM   10  C   UNL     1      22.854  47.014  48.957  1.00  0.00     0.256 C 
HETATM   11  O   UNL     1      22.017  46.319  48.385  1.00  0.00    -0.267 OA
HETATM   12  C   UNL     1      25.618  46.062  51.224  1.00  0.00     0.037 C 
HETATM   13  C   UNL     1      24.643  44.893  51.239  1.00  0.00     0.022 C 
HETATM   14  C   UNL     1      23.952  45.024  49.893  1.00  0.00     0.127 C 
HETATM   15  C   UNL     1      23.535  50.740  48.544  1.00  0.00     0.033 A 
HETATM   16  C   UNL     1      22.223  51.214  48.449  1.00  0.00     0.032 A 
HETATM   17  H   UNL     1      25.848  49.741  48.619  1.00  0.00     0.169 HD
ENDROOT
BRANCH   1  18
HETATM   18  N   UNL     1      19.852  50.903  48.480  1.00  0.00    -0.323 N 
HETATM   19  C   UNL     1      18.813  50.781  49.383  1.00  0.00     0.257 C 
HETATM   20  O   UNL     1      18.851  50.192  50.457  1.00  0.00    -0.267 OA
HETATM   21  H   UNL     1      19.685  51.502  47.682  1.00  0.00     0.169 HD
BRANCH  19  22
HETATM   22  C   UNL     1      17.562  51.506  49.028  1.00  0.00     0.044 A 
HETATM   23  C   UNL     1      16.940  51.405  47.756  1.00  0.00     0.008 A 
HETATM   24  C   UNL     1      15.788  52.174  47.509  1.00  0.00     0.045 A 
HETATM   25  C   UNL     1      17.173  50.636  46.578  1.00  0.00     0.032 A 
HETATM   26  N   UNL     1      15.400  51.927  46.202  1.00  0.00    -0.352 N 
HETATM   27  C   UNL     1      15.228  52.997  48.503  1.00  0.00     0.030 A 
HETATM   28  C   UNL     1      16.235  50.992  45.641  1.00  0.00     0.092 A 
HETATM   29  C   UNL     1      15.834  53.049  49.758  1.00  0.00     0.003 A 
HETATM   30  C   UNL     1      16.985  52.319  50.020  1.00  0.00     0.018 A 
BRANCH  26  31
HETATM   31  C   UNL     1      14.269  52.513  45.476  1.00  0.00     0.081 C 
HETATM   32  C   UNL     1      13.687  51.578  44.416  1.00  0.00     0.032 C 
HETATM   33  C   UNL     1      14.595  53.897  44.915  1.00  0.00     0.032 C 
ENDBRANCH  26  31
ENDBRANCH  19  22
ENDBRANCH   1  18
TORSDOF 3
ENDMDL
MODEL 9
REMARK VINA RESULT:      -9.2     12.116     13.561
REMARK  3 active torsions:
REMARK  status: ('A' for Active; 'I' for Inactive)
REMARK    1  A    between atoms: C_2  and  N_3 
REMARK    2  A    between atoms: C_6  and  C_7 
REMARK       I    between atoms: C_7  and  N_8 
REMARK    3  A    between atoms: N_8  and  C_9 
ROOT
HETATM    1  C   UNL     1      29.912  50.899  41.312  1.00  0.00     0.036 A 
HETATM    2  C   UNL     1      29.581  49.697  40.686  1.00  0.00     0.049 A 
HETATM    3  C   UNL     1      28.281  49.461  40.181  1.00  0.00     0.061 A 
HETATM    4  C   UNL     1      27.295  50.446  40.324  1.00  0.00     0.050 A 
HETATM    5  N   UNL     1      25.975  50.382  39.850  1.00  0.00    -0.324 N 
HETATM    6  C   UNL     1      25.490  49.728  38.751  1.00  0.00     0.245 C 
HETATM    7  O   UNL     1      24.321  49.943  38.422  1.00  0.00    -0.271 OA
HETATM    8  C   UNL     1      26.470  48.953  37.878  1.00  0.00     0.180 C 
HETATM    9  N   UNL     1      27.135  47.906  38.636  1.00  0.00    -0.334 N 
HETATM   10  C   UNL     1      28.039  48.091  39.654  1.00  0.00     0.256 C 
HETATM   11  O   UNL     1      28.666  47.151  40.138  1.00  0.00    -0.267 OA
HETATM   12  C   UNL     1      25.762  48.206  36.740  1.00  0.00     0.037 C 
HETATM   13  C   UNL     1      26.609  46.953  36.560  1.00  0.00     0.022 C 
HETATM   14  C   UNL     1      26.999  46.613  37.988  1.00  0.00     0.127 C 
HETATM   15  C   UNL     1      27.617  51.625  41.015  1.00  0.00     0.033 A 
HETATM   16  C   UNL     1      28.913  51.857  41.484  1.00  0.00     0.032 A 
HETATM   17  H   UNL     1      25.296  51.035  40.226  1.00  0.00     0.169 HD
ENDROOT
BRANCH   1  18
HETATM   18  N   UNL     1      31.197  51.219  41.799  1.00  0.00    -0.323 N 
HETATM   19  C   UNL     1      31.927  50.547  42.762  1.00  0.00     0.257 C 
HETATM   20  O   UNL     1      31.597  49.515  43.334  1.00  0.00    -0.267 OA
HETATM   21  H   UNL     1      31.654  52.006  41.357  1.00  0.00     0.169 HD
BRANCH  19  22
HETATM   22  C   UNL     1      33.272  51.112  43.060  1.00  0.00     0.044 A 
HETATM   23  C   UNL     1      34.404  50.901  42.231  1.00  0.00     0.008 A 
HETATM   24  C   UNL     1      35.641  51.438  42.634  1.00  0.00     0.045 A 
HETATM   25  C   UNL     1      34.630  50.267  40.974  1.00  0.00     0.032 A 
HETATM   26  N   UNL     1      36.581  51.066  41.686  1.00  0.00    -0.352 N 
HETATM   27  C   UNL     1      35.760  52.205  43.806  1.00  0.00     0.030 A 
HETATM   28  C   UNL     1      35.967  50.362  40.679  1.00  0.00     0.092 A 
HETATM   29  C   UNL     1      34.625  52.434  44.584  1.00  0.00     0.003 A 
HETATM   30  C   UNL     1      33.398  51.895  44.221  1.00  0.00     0.018 A 
BRANCH  26  31
HETATM   31  C   UNL     1      38.015  51.366  41.680  1.00  0.00     0.081 C 
HETATM   32  C   UNL     1      38.617  51.386  40.274  1.00  0.00     0.032 C 
HETATM   33  C   UNL     1      38.800  50.468  42.635  1.00  0.00     0.032 C 
ENDBRANCH  26  31
ENDBRANCH  19  22
ENDBRANCH   1  18
TORSDOF 3
ENDMDL
MODEL 10
REMARK VINA RESULT:      -9.2     13.555     14.364
REMARK  3 active torsions:
REMARK  status: ('A' for Active; 'I' for Inactive)
REMARK    1  A    between atoms: C_2  and  N_3 
REMARK    2  A    between atoms: C_6  and  C_7 
REMARK       I    between atoms: C_7  and  N_8 
REMARK    3  A    between atoms: N_8  and  C_9 
ROOT
HETATM    1  C   UNL     1      33.930  51.738  43.516  1.00  0.00     0.036 A 
HETATM    2  C   UNL     1      33.501  51.318  42.256  1.00  0.00     0.049 A 
HETATM    3  C   UNL     1      32.140  51.388  41.878  1.00  0.00     0.061 A 
HETATM    4  C   UNL     1      31.194  51.874  42.790  1.00  0.00     0.050 A 
HETATM    5  N   UNL     1      29.819  52.039  42.559  1.00  0.00    -0.324 N 
HETATM    6  C   UNL     1      29.175  52.322  41.386  1.00  0.00     0.245 C 
HETATM    7  O   UNL     1      27.973  52.593  41.438  1.00  0.00    -0.271 OA
HETATM    8  C   UNL     1      30.013  52.502  40.124  1.00  0.00     0.180 C 
HETATM    9  N   UNL     1      30.770  51.300  39.820  1.00  0.00    -0.334 N 
HETATM   10  C   UNL     1      31.813  50.790  40.556  1.00  0.00     0.256 C 
HETATM   11  O   UNL     1      32.494  49.853  40.145  1.00  0.00    -0.267 OA
HETATM   12  C   UNL     1      29.142  52.726  38.881  1.00  0.00     0.037 C 
HETATM   13  C   UNL     1      29.943  52.068  37.766  1.00  0.00     0.022 C 
HETATM   14  C   UNL     1      30.531  50.850  38.459  1.00  0.00     0.127 C 
HETATM   15  C   UNL     1      31.622  52.230  44.078  1.00  0.00     0.033 A 
HETATM   16  C   UNL     1      32.974  52.183  44.429  1.00  0.00     0.032 A 
HETATM   17  H   UNL     1      29.207  52.159  43.358  1.00  0.00     0.169 HD
ENDROOT
BRANCH   1  18
HETATM   18  N   UNL     1      35.274  51.738  43.944  1.00  0.00    -0.323 N 
HETATM   19  C   UNL     1      36.332  52.445  43.405  1.00  0.00     0.257 C 
HETATM   20  O   UNL     1      36.274  53.241  42.475  1.00  0.00    -0.267 OA
HETATM   21  H   UNL     1      35.474  51.191  44.771  1.00  0.00     0.169 HD
BRANCH  19  22
HETATM   22  C   UNL     1      37.644  52.258  44.083  1.00  0.00     0.044 A 
HETATM   23  C   UNL     1      38.209  53.220  44.960  1.00  0.00     0.008 A 
HETATM   24  C   UNL     1      39.479  52.965  45.509  1.00  0.00     0.045 A 
HETATM   25  C   UNL     1      37.775  54.463  45.507  1.00  0.00     0.032 A 
HETATM   26  N   UNL     1      39.818  54.057  46.291  1.00  0.00    -0.352 N 
HETATM   27  C   UNL     1      40.168  51.769  45.238  1.00  0.00     0.030 A 
HETATM   28  C   UNL     1      38.784  54.962  46.294  1.00  0.00     0.092 A 
HETATM   29  C   UNL     1      39.575  50.820  44.405  1.00  0.00     0.003 A 
HETATM   30  C   UNL     1      38.333  51.058  43.833  1.00  0.00     0.018 A 
BRANCH  26  31
HETATM   31  C   UNL     1      41.056  54.270  47.047  1.00  0.00     0.081 C 
HETATM   32  C   UNL     1      40.878  54.076  48.553  1.00  0.00     0.032 C 
HETATM   33  C   UNL     1      41.722  55.602  46.707  1.00  0.00     0.032 C 
ENDBRANCH  26  31
ENDBRANCH  19  22
ENDBRANCH   1  18
TORSDOF 3
ENDMDL
