MODEL 1
REMARK VINA RESULT:     -10.1      0.000      0.000
REMARK  3 active torsions:
REMARK  status: ('A' for Active; 'I' for Inactive)
REMARK    1  A    between atoms: C_4  and  C_5 
REMARK    2  A    between atoms: C_11  and  C_12 
REMARK    3  A    between atoms: C_21  and  N_22 
ROOT
HETATM    1  C   UNL     1      28.884  42.648  53.682  1.00  0.00     0.098 A 
HETATM    2  N   UNL     1      29.133  41.323  53.662  1.00  0.00    -0.172 NA
HETATM    3  N   UNL     1      28.515  40.874  52.554  1.00  0.00    -0.256 N 
HETATM    4  H   UNL     1      28.617  39.899  52.297  1.00  0.00     0.191 HD
HETATM    5  C   UNL     1      27.863  41.855  51.885  1.00  0.00     0.175 A 
HETATM    6  C   UNL     1      28.003  43.003  52.620  1.00  0.00     0.036 A 
HETATM    7  C   UNL     1      27.338  44.263  52.157  1.00  0.00     0.077 C 
HETATM    8  C   UNL     1      27.101  44.123  50.627  1.00  0.00     0.076 C 
HETATM    9  C   UNL     1      26.995  45.319  49.859  1.00  0.00     0.100 C 
HETATM   10  N   UNL     1      26.892  46.295  49.240  1.00  0.00    -0.192 NA
HETATM   11  C   UNL     1      27.047  42.911  50.004  1.00  0.00     0.140 C 
HETATM   12  O   UNL     1      27.283  41.712  50.701  1.00  0.00    -0.279 OA
ENDROOT
BRANCH   7  13
HETATM   13  C   UNL     1      25.959  44.551  52.864  1.00  0.00     0.003 C 
HETATM   14  C   UNL     1      26.010  44.822  54.387  1.00  0.00     0.032 C 
HETATM   15  C   UNL     1      26.430  46.217  54.740  1.00  0.00    -0.030 C 
HETATM   16  C   UNL     1      26.394  47.233  53.867  1.00  0.00    -0.031 C 
HETATM   17  C   UNL     1      25.890  47.087  52.463  1.00  0.00     0.027 C 
HETATM   18  C   UNL     1      25.202  45.738  52.217  1.00  0.00     0.009 C 
ENDBRANCH   7  13
BRANCH  11  19
HETATM   19  N   UNL     1      26.796  42.705  48.667  1.00  0.00    -0.282 NA
HETATM   20  H   UNL     1      26.092  43.313  48.253  1.00  0.00     0.126 HD
HETATM   21  H   UNL     1      26.651  41.721  48.452  1.00  0.00     0.126 HD
ENDBRANCH  11  19
BRANCH   1  22
HETATM   22  C   UNL     1      29.485  43.501  54.705  1.00  0.00    -0.005 A 
HETATM   23  C   UNL     1      29.109  44.845  54.836  1.00  0.00     0.014 A 
HETATM   24  C   UNL     1      29.677  45.646  55.831  1.00  0.00     0.001 A 
HETATM   25  C   UNL     1      30.633  45.114  56.694  1.00  0.00     0.000 A 
HETATM   26  C   UNL     1      31.032  43.785  56.558  1.00  0.00     0.001 A 
HETATM   27  C   UNL     1      30.464  42.984  55.564  1.00  0.00     0.014 A 
ENDBRANCH   1  22
TORSDOF 3
ENDMDL
MODEL 2
REMARK VINA RESULT:      -9.5      2.340      3.364
REMARK  3 active torsions:
REMARK  status: ('A' for Active; 'I' for Inactive)
REMARK    1  A    between atoms: C_4  and  C_5 
REMARK    2  A    between atoms: C_11  and  C_12 
REMARK    3  A    between atoms: C_21  and  N_22 
ROOT
HETATM    1  C   UNL     1      26.359  42.641  51.416  1.00  0.00     0.098 A 
HETATM    2  N   UNL     1      25.745  41.551  50.911  1.00  0.00    -0.172 NA
HETATM    3  N   UNL     1      24.665  42.032  50.268  1.00  0.00    -0.256 N 
HETATM    4  H   UNL     1      24.076  41.390  49.752  1.00  0.00     0.191 HD
HETATM    5  C   UNL     1      24.555  43.378  50.367  1.00  0.00     0.175 A 
HETATM    6  C   UNL     1      25.579  43.807  51.169  1.00  0.00     0.036 A 
HETATM    7  C   UNL     1      25.693  45.262  51.510  1.00  0.00     0.077 C 
HETATM    8  C   UNL     1      24.939  46.054  50.404  1.00  0.00     0.076 C 
HETATM    9  C   UNL     1      25.326  47.407  50.176  1.00  0.00     0.100 C 
HETATM   10  N   UNL     1      25.631  48.513  50.005  1.00  0.00    -0.192 NA
HETATM   11  C   UNL     1      23.975  45.484  49.626  1.00  0.00     0.140 C 
HETATM   12  O   UNL     1      23.660  44.117  49.725  1.00  0.00    -0.279 OA
ENDROOT
BRANCH   7  13
HETATM   13  C   UNL     1      25.079  45.635  52.913  1.00  0.00     0.003 C 
HETATM   14  C   UNL     1      25.193  44.559  54.021  1.00  0.00     0.032 C 
HETATM   15  C   UNL     1      26.539  44.503  54.675  1.00  0.00    -0.030 C 
HETATM   16  C   UNL     1      27.430  45.502  54.602  1.00  0.00    -0.031 C 
HETATM   17  C   UNL     1      27.151  46.794  53.895  1.00  0.00     0.027 C 
HETATM   18  C   UNL     1      25.679  46.943  53.489  1.00  0.00     0.009 C 
ENDBRANCH   7  13
BRANCH  11  19
HETATM   19  N   UNL     1      23.235  46.130  48.662  1.00  0.00    -0.282 NA
HETATM   20  H   UNL     1      23.076  47.122  48.821  1.00  0.00     0.126 HD
HETATM   21  H   UNL     1      22.386  45.621  48.428  1.00  0.00     0.126 HD
ENDBRANCH  11  19
BRANCH   1  22
HETATM   22  C   UNL     1      27.640  42.518  52.107  1.00  0.00    -0.005 A 
HETATM   23  C   UNL     1      28.668  43.446  51.893  1.00  0.00     0.014 A 
HETATM   24  C   UNL     1      29.883  43.329  52.575  1.00  0.00     0.001 A 
HETATM   25  C   UNL     1      30.084  42.277  53.467  1.00  0.00     0.000 A 
HETATM   26  C   UNL     1      29.077  41.335  53.671  1.00  0.00     0.001 A 
HETATM   27  C   UNL     1      27.863  41.452  52.989  1.00  0.00     0.014 A 
ENDBRANCH   1  22
TORSDOF 3
ENDMDL
MODEL 3
REMARK VINA RESULT:      -9.4     12.846     15.572
REMARK  3 active torsions:
REMARK  status: ('A' for Active; 'I' for Inactive)
REMARK    1  A    between atoms: C_4  and  C_5 
REMARK    2  A    between atoms: C_11  and  C_12 
REMARK    3  A    between atoms: C_21  and  N_22 
ROOT
HETATM    1  C   UNL     1      30.517  50.050  38.561  1.00  0.00     0.098 A 
HETATM    2  N   UNL     1      30.135  50.814  37.516  1.00  0.00    -0.172 NA
HETATM    3  N   UNL     1      31.015  51.833  37.496  1.00  0.00    -0.256 N 
HETATM    4  H   UNL     1      30.960  52.512  36.747  1.00  0.00     0.191 HD
HETATM    5  C   UNL     1      31.921  51.760  38.500  1.00  0.00     0.175 A 
HETATM    6  C   UNL     1      31.589  50.672  39.263  1.00  0.00     0.036 A 
HETATM    7  C   UNL     1      32.387  50.358  40.492  1.00  0.00     0.077 C 
HETATM    8  C   UNL     1      33.783  51.020  40.316  1.00  0.00     0.076 C 
HETATM    9  C   UNL     1      34.879  50.461  41.035  1.00  0.00     0.100 C 
HETATM   10  N   UNL     1      35.765  50.014  41.636  1.00  0.00    -0.192 NA
HETATM   11  C   UNL     1      33.993  52.067  39.467  1.00  0.00     0.140 C 
HETATM   12  O   UNL     1      32.970  52.560  38.637  1.00  0.00    -0.279 OA
ENDROOT
BRANCH   7  13
HETATM   13  C   UNL     1      31.735  50.889  41.826  1.00  0.00     0.003 C 
HETATM   14  C   UNL     1      30.209  51.150  41.788  1.00  0.00     0.032 C 
HETATM   15  C   UNL     1      29.379  49.911  41.929  1.00  0.00    -0.030 C 
HETATM   16  C   UNL     1      29.862  48.759  42.417  1.00  0.00    -0.031 C 
HETATM   17  C   UNL     1      31.269  48.609  42.911  1.00  0.00     0.027 C 
HETATM   18  C   UNL     1      32.005  49.950  43.028  1.00  0.00     0.009 C 
ENDBRANCH   7  13
BRANCH  11  19
HETATM   19  N   UNL     1      35.184  52.732  39.292  1.00  0.00    -0.282 NA
HETATM   20  H   UNL     1      35.796  52.357  38.571  1.00  0.00     0.126 HD
HETATM   21  H   UNL     1      35.662  52.900  40.174  1.00  0.00     0.126 HD
ENDBRANCH  11  19
BRANCH   1  22
HETATM   22  C   UNL     1      29.843  48.784  38.840  1.00  0.00    -0.005 A 
HETATM   23  C   UNL     1      30.575  47.629  39.145  1.00  0.00     0.014 A 
HETATM   24  C   UNL     1      29.919  46.428  39.428  1.00  0.00     0.001 A 
HETATM   25  C   UNL     1      28.527  46.369  39.398  1.00  0.00     0.000 A 
HETATM   26  C   UNL     1      27.789  47.506  39.074  1.00  0.00     0.001 A 
HETATM   27  C   UNL     1      28.445  48.707  38.790  1.00  0.00     0.014 A 
ENDBRANCH   1  22
TORSDOF 3
ENDMDL
MODEL 4
REMARK VINA RESULT:      -9.1      8.584     11.167
REMARK  3 active torsions:
REMARK  status: ('A' for Active; 'I' for Inactive)
REMARK    1  A    between atoms: C_4  and  C_5 
REMARK    2  A    between atoms: C_11  and  C_12 
REMARK    3  A    between atoms: C_21  and  N_22 
ROOT
HETATM    1  C   UNL     1      20.210  47.492  48.416  1.00  0.00     0.098 A 
HETATM    2  N   UNL     1      20.235  46.153  48.580  1.00  0.00    -0.172 NA
HETATM    3  N   UNL     1      18.950  45.768  48.471  1.00  0.00    -0.256 N 
HETATM    4  H   UNL     1      18.731  44.780  48.501  1.00  0.00     0.191 HD
HETATM    5  C   UNL     1      18.109  46.811  48.270  1.00  0.00     0.175 A 
HETATM    6  C   UNL     1      18.865  47.952  48.311  1.00  0.00     0.036 A 
HETATM    7  C   UNL     1      18.200  49.287  48.171  1.00  0.00     0.077 C 
HETATM    8  C   UNL     1      16.850  49.053  47.436  1.00  0.00     0.076 C 
HETATM    9  C   UNL     1      16.289  50.146  46.713  1.00  0.00     0.100 C 
HETATM   10  N   UNL     1      15.826  51.043  46.140  1.00  0.00    -0.192 NA
HETATM   11  C   UNL     1      16.228  47.840  47.419  1.00  0.00     0.140 C 
HETATM   12  O   UNL     1      16.814  46.702  48.003  1.00  0.00    -0.279 OA
ENDROOT
BRANCH   7  13
HETATM   13  C   UNL     1      17.915  50.002  49.546  1.00  0.00     0.003 C 
HETATM   14  C   UNL     1      18.990  49.829  50.647  1.00  0.00     0.032 C 
HETATM   15  C   UNL     1      20.179  50.726  50.479  1.00  0.00    -0.030 C 
HETATM   16  C   UNL     1      20.164  51.821  49.706  1.00  0.00    -0.031 C 
HETATM   17  C   UNL     1      18.944  52.282  48.967  1.00  0.00     0.027 C 
HETATM   18  C   UNL     1      17.677  51.524  49.380  1.00  0.00     0.009 C 
ENDBRANCH   7  13
BRANCH  11  19
HETATM   19  N   UNL     1      15.014  47.566  46.831  1.00  0.00    -0.282 NA
HETATM   20  H   UNL     1      15.054  47.246  45.867  1.00  0.00     0.126 HD
HETATM   21  H   UNL     1      14.342  48.316  46.976  1.00  0.00     0.126 HD
ENDBRANCH  11  19
BRANCH   1  22
HETATM   22  C   UNL     1      21.452  48.259  48.376  1.00  0.00    -0.005 A 
HETATM   23  C   UNL     1      21.566  49.407  47.581  1.00  0.00     0.014 A 
HETATM   24  C   UNL     1      22.754  50.144  47.565  1.00  0.00     0.001 A 
HETATM   25  C   UNL     1      23.841  49.732  48.334  1.00  0.00     0.000 A 
HETATM   26  C   UNL     1      23.747  48.579  49.111  1.00  0.00     0.001 A 
HETATM   27  C   UNL     1      22.560  47.842  49.127  1.00  0.00     0.014 A 
ENDBRANCH   1  22
TORSDOF 3
ENDMDL
MODEL 5
REMARK VINA RESULT:      -9.0     13.371     14.731
REMARK  3 active torsions:
REMARK  status: ('A' for Active; 'I' for Inactive)
REMARK    1  A    between atoms: C_4  and  C_5 
REMARK    2  A    between atoms: C_11  and  C_12 
REMARK    3  A    between atoms: C_21  and  N_22 
ROOT
HETATM    1  C   UNL     1      32.395  49.442  40.553  1.00  0.00     0.098 A 
HETATM    2  N   UNL     1      32.890  48.267  40.993  1.00  0.00    -0.172 NA
HETATM    3  N   UNL     1      31.831  47.437  41.024  1.00  0.00    -0.256 N 
HETATM    4  H   UNL     1      31.977  46.466  41.270  1.00  0.00     0.191 HD
HETATM    5  C   UNL     1      30.681  48.046  40.647  1.00  0.00     0.175 A 
HETATM    6  C   UNL     1      30.979  49.362  40.414  1.00  0.00     0.036 A 
HETATM    7  C   UNL     1      29.887  50.311  40.027  1.00  0.00     0.077 C 
HETATM    8  C   UNL     1      28.734  49.464  39.419  1.00  0.00     0.076 C 
HETATM    9  C   UNL     1      27.845  50.107  38.509  1.00  0.00     0.100 C 
HETATM   10  N   UNL     1      27.113  50.639  37.782  1.00  0.00    -0.192 NA
HETATM   11  C   UNL     1      28.586  48.135  39.685  1.00  0.00     0.140 C 
HETATM   12  O   UNL     1      29.519  47.430  40.467  1.00  0.00    -0.279 OA
ENDROOT
BRANCH   7  13
HETATM   13  C   UNL     1      29.319  51.152  41.234  1.00  0.00     0.003 C 
HETATM   14  C   UNL     1      30.359  51.676  42.256  1.00  0.00     0.032 C 
HETATM   15  C   UNL     1      31.089  52.903  41.803  1.00  0.00    -0.030 C 
HETATM   16  C   UNL     1      30.646  53.694  40.815  1.00  0.00    -0.031 C 
HETATM   17  C   UNL     1      29.354  53.454  40.094  1.00  0.00     0.027 C 
HETATM   18  C   UNL     1      28.492  52.375  40.762  1.00  0.00     0.009 C 
ENDBRANCH   7  13
BRANCH  11  19
HETATM   19  N   UNL     1      27.569  47.331  39.222  1.00  0.00    -0.282 NA
HETATM   20  H   UNL     1      26.724  47.815  38.928  1.00  0.00     0.126 HD
HETATM   21  H   UNL     1      27.385  46.549  39.847  1.00  0.00     0.126 HD
ENDBRANCH  11  19
BRANCH   1  22
HETATM   22  C   UNL     1      33.283  50.573  40.297  1.00  0.00    -0.005 A 
HETATM   23  C   UNL     1      33.057  51.440  39.219  1.00  0.00     0.014 A 
HETATM   24  C   UNL     1      33.903  52.529  38.996  1.00  0.00     0.001 A 
HETATM   25  C   UNL     1      34.988  52.756  39.841  1.00  0.00     0.000 A 
HETATM   26  C   UNL     1      35.237  51.887  40.903  1.00  0.00     0.001 A 
HETATM   27  C   UNL     1      34.391  50.798  41.126  1.00  0.00     0.014 A 
ENDBRANCH   1  22
TORSDOF 3
ENDMDL
MODEL 6
REMARK VINA RESULT:      -9.0     13.233     15.666
REMARK  3 active torsions:
REMARK  status: ('A' for Active; 'I' for Inactive)
REMARK    1  A    between atoms: C_4  and  C_5 
REMARK    2  A    between atoms: C_11  and  C_12 
REMARK    3  A    between atoms: C_21  and  N_22 
ROOT
HETATM    1  C   UNL     1      29.921  51.635  40.350  1.00  0.00     0.098 A 
HETATM    2  N   UNL     1      29.107  52.708  40.437  1.00  0.00    -0.172 NA
HETATM    3  N   UNL     1      29.936  53.769  40.440  1.00  0.00    -0.256 N 
HETATM    4  H   UNL     1      29.539  54.700  40.438  1.00  0.00     0.191 HD
HETATM    5  C   UNL     1      31.241  53.411  40.385  1.00  0.00     0.175 A 
HETATM    6  C   UNL     1      31.285  52.042  40.410  1.00  0.00     0.036 A 
HETATM    7  C   UNL     1      32.610  51.344  40.413  1.00  0.00     0.077 C 
HETATM    8  C   UNL     1      33.651  52.328  39.810  1.00  0.00     0.076 C 
HETATM    9  C   UNL     1      34.819  51.774  39.210  1.00  0.00     0.100 C 
HETATM   10  N   UNL     1      35.778  51.321  38.739  1.00  0.00    -0.192 NA
HETATM   11  C   UNL     1      33.454  53.678  39.791  1.00  0.00     0.140 C 
HETATM   12  O   UNL     1      32.255  54.255  40.247  1.00  0.00    -0.279 OA
ENDROOT
BRANCH   7  13
HETATM   13  C   UNL     1      33.094  50.906  41.848  1.00  0.00     0.003 C 
HETATM   14  C   UNL     1      31.984  50.575  42.876  1.00  0.00     0.032 C 
HETATM   15  C   UNL     1      31.392  49.209  42.709  1.00  0.00    -0.030 C 
HETATM   16  C   UNL     1      31.993  48.231  42.016  1.00  0.00    -0.031 C 
HETATM   17  C   UNL     1      33.338  48.393  41.376  1.00  0.00     0.027 C 
HETATM   18  C   UNL     1      34.047  49.685  41.801  1.00  0.00     0.009 C 
ENDBRANCH   7  13
BRANCH  11  19
HETATM   19  N   UNL     1      34.345  54.613  39.317  1.00  0.00    -0.282 NA
HETATM   20  H   UNL     1      34.912  54.319  38.525  1.00  0.00     0.126 HD
HETATM   21  H   UNL     1      34.891  55.034  40.065  1.00  0.00     0.126 HD
ENDBRANCH  11  19
BRANCH   1  22
HETATM   22  C   UNL     1      29.365  50.290  40.224  1.00  0.00    -0.005 A 
HETATM   23  C   UNL     1      28.371  49.835  41.100  1.00  0.00     0.014 A 
HETATM   24  C   UNL     1      27.833  48.553  40.958  1.00  0.00     0.001 A 
HETATM   25  C   UNL     1      28.293  47.711  39.947  1.00  0.00     0.000 A 
HETATM   26  C   UNL     1      29.298  48.145  39.083  1.00  0.00     0.001 A 
HETATM   27  C   UNL     1      29.835  49.427  39.225  1.00  0.00     0.014 A 
ENDBRANCH   1  22
TORSDOF 3
ENDMDL
MODEL 7
REMARK VINA RESULT:      -8.5     15.277     16.868
REMARK  3 active torsions:
REMARK  status: ('A' for Active; 'I' for Inactive)
REMARK    1  A    between atoms: C_4  and  C_5 
REMARK    2  A    between atoms: C_11  and  C_12 
REMARK    3  A    between atoms: C_21  and  N_22 
ROOT
HETATM    1  C   UNL     1      36.812  42.493  65.223  1.00  0.00     0.098 A 
HETATM    2  N   UNL     1      35.606  42.020  65.600  1.00  0.00    -0.172 NA
HETATM    3  N   UNL     1      34.998  43.064  66.193  1.00  0.00    -0.256 N 
HETATM    4  H   UNL     1      34.041  42.959  66.507  1.00  0.00     0.191 HD
HETATM    5  C   UNL     1      35.778  44.171  66.230  1.00  0.00     0.175 A 
HETATM    6  C   UNL     1      36.989  43.827  65.691  1.00  0.00     0.036 A 
HETATM    7  C   UNL     1      38.092  44.840  65.641  1.00  0.00     0.077 C 
HETATM    8  C   UNL     1      37.429  46.245  65.701  1.00  0.00     0.076 C 
HETATM    9  C   UNL     1      38.149  47.343  65.146  1.00  0.00     0.100 C 
HETATM   10  N   UNL     1      38.746  48.238  64.710  1.00  0.00    -0.192 NA
HETATM   11  C   UNL     1      36.179  46.442  66.210  1.00  0.00     0.140 C 
HETATM   12  O   UNL     1      35.381  45.368  66.641  1.00  0.00    -0.279 OA
ENDROOT
BRANCH   7  13
HETATM   13  C   UNL     1      39.125  44.713  66.825  1.00  0.00     0.003 C 
HETATM   14  C   UNL     1      39.429  43.278  67.321  1.00  0.00     0.032 C 
HETATM   15  C   UNL     1      40.397  42.530  66.456  1.00  0.00    -0.030 C 
HETATM   16  C   UNL     1      41.211  43.135  65.579  1.00  0.00    -0.031 C 
HETATM   17  C   UNL     1      41.264  44.623  65.406  1.00  0.00     0.027 C 
HETATM   18  C   UNL     1      40.486  45.375  66.493  1.00  0.00     0.009 C 
ENDBRANCH   7  13
BRANCH  11  19
HETATM   19  N   UNL     1      35.546  47.657  66.337  1.00  0.00    -0.282 NA
HETATM   20  H   UNL     1      34.614  47.712  65.932  1.00  0.00     0.126 HD
HETATM   21  H   UNL     1      36.146  48.432  66.066  1.00  0.00     0.126 HD
ENDBRANCH  11  19
BRANCH   1  22
HETATM   22  C   UNL     1      37.729  41.658  64.450  1.00  0.00    -0.005 A 
HETATM   23  C   UNL     1      38.244  42.095  63.223  1.00  0.00     0.014 A 
HETATM   24  C   UNL     1      39.135  41.295  62.502  1.00  0.00     0.001 A 
HETATM   25  C   UNL     1      39.509  40.047  62.997  1.00  0.00     0.000 A 
HETATM   26  C   UNL     1      38.985  39.591  64.205  1.00  0.00     0.001 A 
HETATM   27  C   UNL     1      38.094  40.391  64.926  1.00  0.00     0.014 A 
ENDBRANCH   1  22
TORSDOF 3
ENDMDL
MODEL 8
REMARK VINA RESULT:      -8.5     10.188     13.866
REMARK  3 active torsions:
REMARK  status: ('A' for Active; 'I' for Inactive)
REMARK    1  A    between atoms: C_4  and  C_5 
REMARK    2  A    between atoms: C_11  and  C_12 
REMARK    3  A    between atoms: C_21  and  N_22 
ROOT
HETATM    1  C   UNL     1      17.488  51.949  48.166  1.00  0.00     0.098 A 
HETATM    2  N   UNL     1      16.985  52.630  49.216  1.00  0.00    -0.172 NA
HETATM    3  N   UNL     1      17.864  52.422  50.214  1.00  0.00    -0.256 N 
HETATM    4  H   UNL     1      17.722  52.894  51.098  1.00  0.00     0.191 HD
HETATM    5  C   UNL     1      18.889  51.616  49.847  1.00  0.00     0.175 A 
HETATM    6  C   UNL     1      18.646  51.218  48.559  1.00  0.00     0.036 A 
HETATM    7  C   UNL     1      19.590  50.267  47.888  1.00  0.00     0.077 C 
HETATM    8  C   UNL     1      20.958  50.385  48.617  1.00  0.00     0.076 C 
HETATM    9  C   UNL     1      22.131  50.029  47.890  1.00  0.00     0.100 C 
HETATM   10  N   UNL     1      23.082  49.721  47.301  1.00  0.00    -0.192 NA
HETATM   11  C   UNL     1      21.069  50.863  49.890  1.00  0.00     0.140 C 
HETATM   12  O   UNL     1      19.954  51.353  50.593  1.00  0.00    -0.279 OA
ENDROOT
BRANCH   7  13
HETATM   13  C   UNL     1      19.116  48.764  47.933  1.00  0.00     0.003 C 
HETATM   14  C   UNL     1      17.594  48.528  48.090  1.00  0.00     0.032 C 
HETATM   15  C   UNL     1      16.822  48.686  46.815  1.00  0.00    -0.030 C 
HETATM   16  C   UNL     1      17.396  48.652  45.604  1.00  0.00    -0.031 C 
HETATM   17  C   UNL     1      18.861  48.409  45.402  1.00  0.00     0.027 C 
HETATM   18  C   UNL     1      19.573  47.965  46.687  1.00  0.00     0.009 C 
ENDBRANCH   7  13
BRANCH  11  19
HETATM   19  N   UNL     1      22.235  50.954  50.615  1.00  0.00    -0.282 NA
HETATM   20  H   UNL     1      22.173  51.487  51.480  1.00  0.00     0.126 HD
HETATM   21  H   UNL     1      23.026  51.223  50.035  1.00  0.00     0.126 HD
ENDBRANCH  11  19
BRANCH   1  22
HETATM   22  C   UNL     1      16.844  52.020  46.857  1.00  0.00    -0.005 A 
HETATM   23  C   UNL     1      17.597  52.220  45.692  1.00  0.00     0.014 A 
HETATM   24  C   UNL     1      16.972  52.268  44.443  1.00  0.00     0.001 A 
HETATM   25  C   UNL     1      15.588  52.129  44.349  1.00  0.00     0.000 A 
HETATM   26  C   UNL     1      14.826  51.953  45.503  1.00  0.00     0.001 A 
HETATM   27  C   UNL     1      15.451  51.905  46.752  1.00  0.00     0.014 A 
ENDBRANCH   1  22
TORSDOF 3
ENDMDL
MODEL 9
REMARK VINA RESULT:      -8.4     15.411     17.676
REMARK  3 active torsions:
REMARK  status: ('A' for Active; 'I' for Inactive)
REMARK    1  A    between atoms: C_4  and  C_5 
REMARK    2  A    between atoms: C_11  and  C_12 
REMARK    3  A    between atoms: C_21  and  N_22 
ROOT
HETATM    1  C   UNL     1      40.121  45.673  64.664  1.00  0.00     0.098 A 
HETATM    2  N   UNL     1      41.196  46.153  64.006  1.00  0.00    -0.172 NA
HETATM    3  N   UNL     1      41.420  47.363  64.549  1.00  0.00    -0.256 N 
HETATM    4  H   UNL     1      42.229  47.893  64.248  1.00  0.00     0.191 HD
HETATM    5  C   UNL     1      40.516  47.681  65.506  1.00  0.00     0.175 A 
HETATM    6  C   UNL     1      39.608  46.657  65.557  1.00  0.00     0.036 A 
HETATM    7  C   UNL     1      38.443  46.746  66.495  1.00  0.00     0.077 C 
HETATM    8  C   UNL     1      38.837  47.740  67.624  1.00  0.00     0.076 C 
HETATM    9  C   UNL     1      38.181  47.609  68.883  1.00  0.00     0.100 C 
HETATM   10  N   UNL     1      37.632  47.512  69.900  1.00  0.00    -0.192 NA
HETATM   11  C   UNL     1      39.812  48.679  67.463  1.00  0.00     0.140 C 
HETATM   12  O   UNL     1      40.578  48.752  66.285  1.00  0.00    -0.279 OA
ENDROOT
BRANCH   7  13
HETATM   13  C   UNL     1      37.114  47.249  65.813  1.00  0.00     0.003 C 
HETATM   14  C   UNL     1      36.897  46.829  64.338  1.00  0.00     0.032 C 
HETATM   15  C   UNL     1      36.396  45.426  64.176  1.00  0.00    -0.030 C 
HETATM   16  C   UNL     1      35.828  44.733  65.173  1.00  0.00    -0.031 C 
HETATM   17  C   UNL     1      35.599  45.307  66.539  1.00  0.00     0.027 C 
HETATM   18  C   UNL     1      35.850  46.819  66.598  1.00  0.00     0.009 C 
ENDBRANCH   7  13
BRANCH  11  19
HETATM   19  N   UNL     1      40.184  49.620  68.396  1.00  0.00    -0.282 NA
HETATM   20  H   UNL     1      41.135  49.538  68.747  1.00  0.00     0.126 HD
HETATM   21  H   UNL     1      39.492  49.721  69.135  1.00  0.00     0.126 HD
ENDBRANCH  11  19
BRANCH   1  22
HETATM   22  C   UNL     1      39.636  44.319  64.406  1.00  0.00    -0.005 A 
HETATM   23  C   UNL     1      39.322  43.452  65.461  1.00  0.00     0.014 A 
HETATM   24  C   UNL     1      38.841  42.165  65.203  1.00  0.00     0.001 A 
HETATM   25  C   UNL     1      38.681  41.731  63.888  1.00  0.00     0.000 A 
HETATM   26  C   UNL     1      39.011  42.577  62.830  1.00  0.00     0.001 A 
HETATM   27  C   UNL     1      39.492  43.863  63.089  1.00  0.00     0.014 A 
ENDBRANCH   1  22
TORSDOF 3
ENDMDL
MODEL 10
REMARK VINA RESULT:      -8.4     15.350     17.213
REMARK  3 active torsions:
REMARK  status: ('A' for Active; 'I' for Inactive)
REMARK    1  A    between atoms: C_4  and  C_5 
REMARK    2  A    between atoms: C_11  and  C_12 
REMARK    3  A    between atoms: C_21  and  N_22 
ROOT
HETATM    1  C   UNL     1      40.155  46.676  64.951  1.00  0.00     0.098 A 
HETATM    2  N   UNL     1      40.380  47.979  64.681  1.00  0.00    -0.172 NA
HETATM    3  N   UNL     1      39.170  48.561  64.763  1.00  0.00    -0.256 N 
HETATM    4  H   UNL     1      39.101  49.565  64.655  1.00  0.00     0.191 HD
HETATM    5  C   UNL     1      38.184  47.677  65.047  1.00  0.00     0.175 A 
HETATM    6  C   UNL     1      38.759  46.435  65.095  1.00  0.00     0.036 A 
HETATM    7  C   UNL     1      37.901  45.231  65.341  1.00  0.00     0.077 C 
HETATM    8  C   UNL     1      36.612  45.723  66.058  1.00  0.00     0.076 C 
HETATM    9  C   UNL     1      35.903  44.787  66.866  1.00  0.00     0.100 C 
HETATM   10  N   UNL     1      35.318  44.018  67.509  1.00  0.00    -0.192 NA
HETATM   11  C   UNL     1      36.181  47.015  65.980  1.00  0.00     0.140 C 
HETATM   12  O   UNL     1      36.924  48.001  65.307  1.00  0.00    -0.279 OA
ENDROOT
BRANCH   7  13
HETATM   13  C   UNL     1      37.492  44.462  64.027  1.00  0.00     0.003 C 
HETATM   14  C   UNL     1      38.555  44.412  62.902  1.00  0.00     0.032 C 
HETATM   15  C   UNL     1      39.620  43.381  63.119  1.00  0.00    -0.030 C 
HETATM   16  C   UNL     1      39.480  42.356  63.972  1.00  0.00    -0.031 C 
HETATM   17  C   UNL     1      38.229  42.114  64.760  1.00  0.00     0.027 C 
HETATM   18  C   UNL     1      37.062  43.001  64.310  1.00  0.00     0.009 C 
ENDBRANCH   7  13
BRANCH  11  19
HETATM   19  N   UNL     1      35.030  47.513  66.546  1.00  0.00    -0.282 NA
HETATM   20  H   UNL     1      34.454  46.836  67.041  1.00  0.00     0.126 HD
HETATM   21  H   UNL     1      34.501  48.088  65.895  1.00  0.00     0.126 HD
ENDBRANCH  11  19
BRANCH   1  22
HETATM   22  C   UNL     1      41.268  45.735  65.049  1.00  0.00    -0.005 A 
HETATM   23  C   UNL     1      42.321  45.763  64.125  1.00  0.00     0.014 A 
HETATM   24  C   UNL     1      43.390  44.870  64.241  1.00  0.00     0.001 A 
HETATM   25  C   UNL     1      43.409  43.934  65.274  1.00  0.00     0.000 A 
HETATM   26  C   UNL     1      42.356  43.881  66.186  1.00  0.00     0.001 A 
HETATM   27  C   UNL     1      41.287  44.775  66.070  1.00  0.00     0.014 A 
ENDBRANCH   1  22
TORSDOF 3
ENDMDL
