MODEL 1
REMARK VINA RESULT:      -9.6      0.000      0.000
REMARK  6 active torsions:
REMARK  status: ('A' for Active; 'I' for Inactive)
REMARK    1  A    between atoms: C_3  and  C_4 
REMARK    2  A    between atoms: C_4  and  C_5 
REMARK    3  A    between atoms: N_8  and  C_10 
REMARK    4  A    between atoms: C_10  and  C_11 
REMARK    5  A    between atoms: N_24  and  C_25 
REMARK    6  A    between atoms: C_25  and  C_26 
ROOT
HETATM    1  C   UNL     1      25.430  45.099  51.566  1.00  0.00     0.149 C 
HETATM    2  N   UNL     1      26.723  44.458  51.366  1.00  0.00    -0.220 NA
HETATM    3  C   UNL     1      26.602  43.251  50.722  1.00  0.00     0.304 C 
HETATM    4  O   UNL     1      27.561  42.589  50.369  1.00  0.00    -0.253 OA
HETATM    5  N   UNL     1      25.289  42.939  50.611  1.00  0.00    -0.270 N 
HETATM    6  C   UNL     1      24.509  43.987  51.016  1.00  0.00     0.257 C 
HETATM    7  O   UNL     1      23.286  44.016  51.044  1.00  0.00    -0.270 OA
HETATM    8  H   UNL     1      27.491  45.031  51.017  1.00  0.00     0.134 HD
ENDROOT
BRANCH   1   9
HETATM    9  C   UNL     1      25.397  46.393  50.758  1.00  0.00     0.067 A 
HETATM   10  C   UNL     1      26.545  47.018  50.278  1.00  0.00     0.030 A 
HETATM   11  C   UNL     1      26.408  48.158  49.487  1.00  0.00     0.003 A 
HETATM   12  C   UNL     1      25.141  48.642  49.186  1.00  0.00     0.019 A 
HETATM   13  C   UNL     1      24.048  47.963  49.690  1.00  0.00     0.117 A 
HETATM   14  N   UNL     1      24.143  46.851  50.453  1.00  0.00    -0.263 NA
ENDBRANCH   1   9
BRANCH   1  15
HETATM   15  C   UNL     1      25.121  45.369  53.084  1.00  0.00     0.028 C 
HETATM   16  C   UNL     1      25.829  46.595  53.688  1.00  0.00     0.035 C 
HETATM   17  C   UNL     1      27.330  46.410  53.842  1.00  0.00     0.235 C 
HETATM   18  N   UNL     1      27.657  45.162  54.632  1.00  0.00    -0.067 N 
HETATM   19  H   UNL     1      27.455  45.373  55.619  1.00  0.00     0.280 HD
HETATM   20  C   UNL     1      26.878  43.918  54.278  1.00  0.00     0.235 C 
HETATM   21  C   UNL     1      25.403  44.196  54.042  1.00  0.00     0.035 C 
BRANCH  18  22
HETATM   22  C   UNL     1      29.150  44.832  54.565  1.00  0.00     0.278 C 
BRANCH  22  23
HETATM   23  C   UNL     1      29.858  44.774  55.884  1.00  0.00     0.028 A 
HETATM   24  C   UNL     1      29.577  45.636  56.954  1.00  0.00     0.045 A 
HETATM   25 CL   UNL     1      28.327  46.823  56.865  1.00  0.00    -0.084 Cl
HETATM   26  C   UNL     1      30.297  45.543  58.150  1.00  0.00     0.024 A 
HETATM   27  C   UNL     1      31.302  44.586  58.293  1.00  0.00     0.005 A 
HETATM   28  C   UNL     1      31.584  43.716  57.244  1.00  0.00     0.043 A 
HETATM   29  C   UNL     1      30.862  43.818  56.059  1.00  0.00     0.126 A 
HETATM   30  F   UNL     1      31.116  42.959  55.063  1.00  0.00    -0.205 F 
ENDBRANCH  22  23
ENDBRANCH  18  22
ENDBRANCH   1  15
BRANCH   5  31
HETATM   31  C   UNL     1      24.814  41.680  50.060  1.00  0.00     0.168 C 
BRANCH  31  32
HETATM   32  C   UNL     1      24.354  41.811  48.606  1.00  0.00     0.140 C 
HETATM   33  O   UNL     1      22.930  41.606  48.525  1.00  0.00    -0.384 OA
HETATM   34  C   UNL     1      22.673  40.584  47.552  1.00  0.00     0.168 C 
HETATM   35  C   UNL     1      23.914  40.493  46.695  1.00  0.00     0.029 C 
HETATM   36  C   UNL     1      24.999  40.765  47.705  1.00  0.00     0.036 C 
ENDBRANCH  31  32
ENDBRANCH   5  31
TORSDOF 6
ENDMDL
MODEL 2
REMARK VINA RESULT:      -8.7      8.354     12.183
REMARK  6 active torsions:
REMARK  status: ('A' for Active; 'I' for Inactive)
REMARK    1  A    between atoms: C_3  and  C_4 
REMARK    2  A    between atoms: C_4  and  C_5 
REMARK    3  A    between atoms: N_8  and  C_10 
REMARK    4  A    between atoms: C_10  and  C_11 
REMARK    5  A    between atoms: N_24  and  C_25 
REMARK    6  A    between atoms: C_25  and  C_26 
ROOT
HETATM    1  C   UNL     1      16.950  51.162  48.478  1.00  0.00     0.149 C 
HETATM    2  N   UNL     1      17.083  50.162  49.530  1.00  0.00    -0.220 NA
HETATM    3  C   UNL     1      18.330  50.188  50.105  1.00  0.00     0.304 C 
HETATM    4  O   UNL     1      18.631  49.503  51.067  1.00  0.00    -0.253 OA
HETATM    5  N   UNL     1      19.124  51.032  49.405  1.00  0.00    -0.270 N 
HETATM    6  C   UNL     1      18.395  51.709  48.465  1.00  0.00     0.257 C 
HETATM    7  O   UNL     1      18.822  52.535  47.671  1.00  0.00    -0.270 OA
HETATM    8  H   UNL     1      16.324  50.077  50.205  1.00  0.00     0.134 HD
ENDROOT
BRANCH   1   9
HETATM    9  C   UNL     1      15.900  52.183  48.906  1.00  0.00     0.067 A 
HETATM   10  C   UNL     1      15.613  52.463  50.238  1.00  0.00     0.030 A 
HETATM   11  C   UNL     1      14.688  53.465  50.529  1.00  0.00     0.003 A 
HETATM   12  C   UNL     1      14.081  54.166  49.495  1.00  0.00     0.019 A 
HETATM   13  C   UNL     1      14.423  53.839  48.197  1.00  0.00     0.117 A 
HETATM   14  N   UNL     1      15.322  52.880  47.878  1.00  0.00    -0.263 NA
ENDBRANCH   1   9
BRANCH   1  15
HETATM   15  C   UNL     1      16.591  50.526  47.085  1.00  0.00     0.028 C 
HETATM   16  C   UNL     1      15.376  49.581  47.092  1.00  0.00     0.035 C 
HETATM   17  C   UNL     1      15.630  48.274  47.824  1.00  0.00     0.235 C 
HETATM   18  N   UNL     1      16.854  47.565  47.286  1.00  0.00    -0.067 N 
HETATM   19  H   UNL     1      16.585  47.152  46.382  1.00  0.00     0.280 HD
HETATM   20  C   UNL     1      18.072  48.422  47.035  1.00  0.00     0.235 C 
HETATM   21  C   UNL     1      17.729  49.755  46.390  1.00  0.00     0.035 C 
BRANCH  18  22
HETATM   22  C   UNL     1      17.264  46.395  48.184  1.00  0.00     0.278 C 
BRANCH  22  23
HETATM   23  C   UNL     1      18.492  45.653  47.754  1.00  0.00     0.028 A 
HETATM   24  C   UNL     1      18.511  44.728  46.700  1.00  0.00     0.045 A 
HETATM   25 CL   UNL     1      17.109  44.403  45.747  1.00  0.00    -0.084 Cl
HETATM   26  C   UNL     1      19.689  44.051  46.369  1.00  0.00     0.024 A 
HETATM   27  C   UNL     1      20.863  44.289  47.085  1.00  0.00     0.005 A 
HETATM   28  C   UNL     1      20.861  45.212  48.126  1.00  0.00     0.043 A 
HETATM   29  C   UNL     1      19.684  45.881  48.446  1.00  0.00     0.126 A 
HETATM   30  F   UNL     1      19.695  46.791  49.430  1.00  0.00    -0.205 F 
ENDBRANCH  22  23
ENDBRANCH  18  22
ENDBRANCH   1  15
BRANCH   5  31
HETATM   31  C   UNL     1      20.536  51.221  49.693  1.00  0.00     0.168 C 
BRANCH  31  32
HETATM   32  C   UNL     1      21.442  50.453  48.728  1.00  0.00     0.140 C 
HETATM   33  O   UNL     1      21.716  49.141  49.258  1.00  0.00    -0.384 OA
HETATM   34  C   UNL     1      23.139  48.953  49.292  1.00  0.00     0.168 C 
HETATM   35  C   UNL     1      23.723  49.973  48.342  1.00  0.00     0.029 C 
HETATM   36  C   UNL     1      22.789  51.140  48.539  1.00  0.00     0.036 C 
ENDBRANCH  31  32
ENDBRANCH   5  31
TORSDOF 6
ENDMDL
MODEL 3
REMARK VINA RESULT:      -8.5      6.848      9.787
REMARK  6 active torsions:
REMARK  status: ('A' for Active; 'I' for Inactive)
REMARK    1  A    between atoms: C_3  and  C_4 
REMARK    2  A    between atoms: C_4  and  C_5 
REMARK    3  A    between atoms: N_8  and  C_10 
REMARK    4  A    between atoms: C_10  and  C_11 
REMARK    5  A    between atoms: N_24  and  C_25 
REMARK    6  A    between atoms: C_25  and  C_26 
ROOT
HETATM    1  C   UNL     1      17.597  50.123  48.687  1.00  0.00     0.149 C 
HETATM    2  N   UNL     1      18.528  50.379  47.595  1.00  0.00    -0.220 NA
HETATM    3  C   UNL     1      18.391  49.465  46.581  1.00  0.00     0.304 C 
HETATM    4  O   UNL     1      19.003  49.543  45.531  1.00  0.00    -0.253 OA
HETATM    5  N   UNL     1      17.535  48.492  46.974  1.00  0.00    -0.270 N 
HETATM    6  C   UNL     1      16.957  48.814  48.171  1.00  0.00     0.257 C 
HETATM    7  O   UNL     1      16.148  48.140  48.793  1.00  0.00    -0.270 OA
HETATM    8  H   UNL     1      18.628  51.340  47.269  1.00  0.00     0.134 HD
ENDROOT
BRANCH   1   9
HETATM    9  C   UNL     1      16.625  51.296  48.783  1.00  0.00     0.067 A 
HETATM   10  C   UNL     1      16.422  52.019  49.955  1.00  0.00     0.030 A 
HETATM   11  C   UNL     1      15.567  53.121  49.924  1.00  0.00     0.003 A 
HETATM   12  C   UNL     1      14.946  53.480  48.735  1.00  0.00     0.019 A 
HETATM   13  C   UNL     1      15.204  52.721  47.610  1.00  0.00     0.117 A 
HETATM   14  N   UNL     1      16.033  51.652  47.601  1.00  0.00    -0.263 NA
ENDBRANCH   1   9
BRANCH   1  15
HETATM   15  C   UNL     1      18.327  49.876  50.057  1.00  0.00     0.028 C 
HETATM   16  C   UNL     1      19.607  50.703  50.274  1.00  0.00     0.035 C 
HETATM   17  C   UNL     1      20.760  50.279  49.379  1.00  0.00     0.235 C 
HETATM   18  N   UNL     1      21.051  48.801  49.512  1.00  0.00    -0.067 N 
HETATM   19  H   UNL     1      21.537  48.673  50.411  1.00  0.00     0.280 HD
HETATM   20  C   UNL     1      19.856  47.877  49.521  1.00  0.00     0.235 C 
HETATM   21  C   UNL     1      18.706  48.413  50.357  1.00  0.00     0.035 C 
BRANCH  18  22
HETATM   22  C   UNL     1      22.023  48.321  48.431  1.00  0.00     0.278 C 
BRANCH  22  23
HETATM   23  C   UNL     1      23.473  48.364  48.803  1.00  0.00     0.028 A 
HETATM   24  C   UNL     1      24.320  49.441  48.506  1.00  0.00     0.045 A 
HETATM   25 CL   UNL     1      23.741  50.867  47.724  1.00  0.00    -0.084 Cl
HETATM   26  C   UNL     1      25.672  49.402  48.861  1.00  0.00     0.024 A 
HETATM   27  C   UNL     1      26.195  48.288  49.519  1.00  0.00     0.005 A 
HETATM   28  C   UNL     1      25.364  47.216  49.830  1.00  0.00     0.043 A 
HETATM   29  C   UNL     1      24.021  47.266  49.473  1.00  0.00     0.126 A 
HETATM   30  F   UNL     1      23.218  46.245  49.802  1.00  0.00    -0.205 F 
ENDBRANCH  22  23
ENDBRANCH  18  22
ENDBRANCH   1  15
BRANCH   5  31
HETATM   31  C   UNL     1      17.239  47.318  46.168  1.00  0.00     0.168 C 
BRANCH  31  32
HETATM   32  C   UNL     1      17.957  46.063  46.670  1.00  0.00     0.140 C 
HETATM   33  O   UNL     1      19.370  46.174  46.409  1.00  0.00    -0.384 OA
HETATM   34  C   UNL     1      19.790  45.008  45.684  1.00  0.00     0.168 C 
HETATM   35  C   UNL     1      18.724  43.961  45.912  1.00  0.00     0.029 C 
HETATM   36  C   UNL     1      17.476  44.805  45.958  1.00  0.00     0.036 C 
ENDBRANCH  31  32
ENDBRANCH   5  31
TORSDOF 6
ENDMDL
MODEL 4
REMARK VINA RESULT:      -8.5     12.224     14.289
REMARK  6 active torsions:
REMARK  status: ('A' for Active; 'I' for Inactive)
REMARK    1  A    between atoms: C_3  and  C_4 
REMARK    2  A    between atoms: C_4  and  C_5 
REMARK    3  A    between atoms: N_8  and  C_10 
REMARK    4  A    between atoms: C_10  and  C_11 
REMARK    5  A    between atoms: N_24  and  C_25 
REMARK    6  A    between atoms: C_25  and  C_26 
ROOT
HETATM    1  C   UNL     1      28.259  48.671  39.335  1.00  0.00     0.149 C 
HETATM    2  N   UNL     1      28.620  48.547  40.742  1.00  0.00    -0.220 NA
HETATM    3  C   UNL     1      28.209  49.634  41.473  1.00  0.00     0.304 C 
HETATM    4  O   UNL     1      28.322  49.700  42.684  1.00  0.00    -0.253 OA
HETATM    5  N   UNL     1      27.730  50.580  40.631  1.00  0.00    -0.270 N 
HETATM    6  C   UNL     1      27.652  50.092  39.355  1.00  0.00     0.257 C 
HETATM    7  O   UNL     1      27.269  50.700  38.366  1.00  0.00    -0.270 OA
HETATM    8  H   UNL     1      28.444  47.655  41.203  1.00  0.00     0.134 HD
ENDROOT
BRANCH   1   9
HETATM    9  C   UNL     1      27.260  47.570  38.990  1.00  0.00     0.067 A 
HETATM   10  C   UNL     1      26.733  47.397  37.714  1.00  0.00     0.030 A 
HETATM   11  C   UNL     1      25.882  46.317  37.480  1.00  0.00     0.003 A 
HETATM   12  C   UNL     1      25.584  45.437  38.513  1.00  0.00     0.019 A 
HETATM   13  C   UNL     1      26.152  45.668  39.751  1.00  0.00     0.117 A 
HETATM   14  N   UNL     1      26.987  46.699  40.011  1.00  0.00    -0.263 NA
ENDBRANCH   1   9
BRANCH   1  15
HETATM   15  C   UNL     1      29.511  48.620  38.386  1.00  0.00     0.028 C 
HETATM   16  C   UNL     1      30.290  47.292  38.400  1.00  0.00     0.035 C 
HETATM   17  C   UNL     1      31.041  47.047  39.699  1.00  0.00     0.235 C 
HETATM   18  N   UNL     1      31.954  48.205  40.039  1.00  0.00    -0.067 N 
HETATM   19  H   UNL     1      32.766  48.138  39.410  1.00  0.00     0.280 HD
HETATM   20  C   UNL     1      31.376  49.589  39.870  1.00  0.00     0.235 C 
HETATM   21  C   UNL     1      30.556  49.732  38.599  1.00  0.00     0.035 C 
BRANCH  18  22
HETATM   22  C   UNL     1      32.506  48.083  41.462  1.00  0.00     0.278 C 
BRANCH  22  23
HETATM   23  C   UNL     1      32.844  49.378  42.135  1.00  0.00     0.028 A 
HETATM   24  C   UNL     1      33.986  50.134  41.836  1.00  0.00     0.045 A 
HETATM   25 CL   UNL     1      35.094  49.662  40.600  1.00  0.00    -0.084 Cl
HETATM   26  C   UNL     1      34.253  51.322  42.524  1.00  0.00     0.024 A 
HETATM   27  C   UNL     1      33.381  51.771  43.517  1.00  0.00     0.005 A 
HETATM   28  C   UNL     1      32.237  51.038  43.816  1.00  0.00     0.043 A 
HETATM   29  C   UNL     1      31.982  49.858  43.125  1.00  0.00     0.126 A 
HETATM   30  F   UNL     1      30.864  49.170  43.396  1.00  0.00    -0.205 F 
ENDBRANCH  22  23
ENDBRANCH  18  22
ENDBRANCH   1  15
BRANCH   5  31
HETATM   31  C   UNL     1      27.297  51.895  41.073  1.00  0.00     0.168 C 
BRANCH  31  32
HETATM   32  C   UNL     1      28.427  52.927  41.047  1.00  0.00     0.140 C 
HETATM   33  O   UNL     1      28.835  53.167  39.686  1.00  0.00    -0.384 OA
HETATM   34  C   UNL     1      30.253  52.968  39.595  1.00  0.00     0.168 C 
HETATM   35  C   UNL     1      30.785  53.063  41.007  1.00  0.00     0.029 C 
HETATM   36  C   UNL     1      29.662  52.441  41.796  1.00  0.00     0.036 C 
ENDBRANCH  31  32
ENDBRANCH   5  31
TORSDOF 6
ENDMDL
MODEL 5
REMARK VINA RESULT:      -8.3     13.069     15.509
REMARK  6 active torsions:
REMARK  status: ('A' for Active; 'I' for Inactive)
REMARK    1  A    between atoms: C_3  and  C_4 
REMARK    2  A    between atoms: C_4  and  C_5 
REMARK    3  A    between atoms: N_8  and  C_10 
REMARK    4  A    between atoms: C_10  and  C_11 
REMARK    5  A    between atoms: N_24  and  C_25 
REMARK    6  A    between atoms: C_25  and  C_26 
ROOT
HETATM    1  C   UNL     1      32.649  50.702  41.392  1.00  0.00     0.149 C 
HETATM    2  N   UNL     1      32.406  50.522  39.966  1.00  0.00    -0.220 NA
HETATM    3  C   UNL     1      31.716  51.580  39.427  1.00  0.00     0.304 C 
HETATM    4  O   UNL     1      31.486  51.683  38.235  1.00  0.00    -0.253 OA
HETATM    5  N   UNL     1      31.321  52.406  40.424  1.00  0.00    -0.270 N 
HETATM    6  C   UNL     1      31.872  52.019  41.615  1.00  0.00     0.257 C 
HETATM    7  O   UNL     1      31.704  52.554  42.702  1.00  0.00    -0.270 OA
HETATM    8  H   UNL     1      33.182  50.203  39.387  1.00  0.00     0.134 HD
ENDROOT
BRANCH   1   9
HETATM    9  C   UNL     1      34.153  50.818  41.618  1.00  0.00     0.067 A 
HETATM   10  C   UNL     1      35.096  50.349  40.709  1.00  0.00     0.030 A 
HETATM   11  C   UNL     1      36.448  50.567  40.971  1.00  0.00     0.003 A 
HETATM   12  C   UNL     1      36.828  51.249  42.120  1.00  0.00     0.019 A 
HETATM   13  C   UNL     1      35.835  51.694  42.972  1.00  0.00     0.117 A 
HETATM   14  N   UNL     1      34.515  51.508  42.745  1.00  0.00    -0.263 NA
ENDBRANCH   1   9
BRANCH   1  15
HETATM   15  C   UNL     1      32.031  49.545  42.259  1.00  0.00     0.028 C 
HETATM   16  C   UNL     1      32.563  48.135  41.943  1.00  0.00     0.035 C 
HETATM   17  C   UNL     1      32.110  47.607  40.592  1.00  0.00     0.235 C 
HETATM   18  N   UNL     1      30.604  47.652  40.455  1.00  0.00    -0.067 N 
HETATM   19  H   UNL     1      30.230  46.878  41.024  1.00  0.00     0.280 HD
HETATM   20  C   UNL     1      29.923  48.914  40.925  1.00  0.00     0.235 C 
HETATM   21  C   UNL     1      30.494  49.439  42.232  1.00  0.00     0.035 C 
BRANCH  18  22
HETATM   22  C   UNL     1      30.163  47.373  39.016  1.00  0.00     0.278 C 
BRANCH  22  23
HETATM   23  C   UNL     1      28.683  47.354  38.787  1.00  0.00     0.028 A 
HETATM   24  C   UNL     1      27.859  46.270  39.121  1.00  0.00     0.045 A 
HETATM   25 CL   UNL     1      28.480  44.858  39.895  1.00  0.00    -0.084 Cl
HETATM   26  C   UNL     1      26.487  46.311  38.854  1.00  0.00     0.024 A 
HETATM   27  C   UNL     1      25.920  47.436  38.253  1.00  0.00     0.005 A 
HETATM   28  C   UNL     1      26.724  48.524  37.927  1.00  0.00     0.043 A 
HETATM   29  C   UNL     1      28.087  48.472  38.197  1.00  0.00     0.126 A 
HETATM   30  F   UNL     1      28.852  49.534  37.908  1.00  0.00    -0.205 F 
ENDBRANCH  22  23
ENDBRANCH  18  22
ENDBRANCH   1  15
BRANCH   5  31
HETATM   31  C   UNL     1      30.488  53.577  40.206  1.00  0.00     0.168 C 
BRANCH  31  32
HETATM   32  C   UNL     1      28.994  53.269  40.337  1.00  0.00     0.140 C 
HETATM   33  O   UNL     1      28.706  52.814  41.673  1.00  0.00    -0.384 OA
HETATM   34  C   UNL     1      28.020  51.557  41.587  1.00  0.00     0.168 C 
HETATM   35  C   UNL     1      27.472  51.470  40.181  1.00  0.00     0.029 C 
HETATM   36  C   UNL     1      28.554  52.159  39.391  1.00  0.00     0.036 C 
ENDBRANCH  31  32
ENDBRANCH   5  31
TORSDOF 6
ENDMDL
MODEL 6
REMARK VINA RESULT:      -8.2      7.555     10.491
REMARK  6 active torsions:
REMARK  status: ('A' for Active; 'I' for Inactive)
REMARK    1  A    between atoms: C_3  and  C_4 
REMARK    2  A    between atoms: C_4  and  C_5 
REMARK    3  A    between atoms: N_8  and  C_10 
REMARK    4  A    between atoms: C_10  and  C_11 
REMARK    5  A    between atoms: N_24  and  C_25 
REMARK    6  A    between atoms: C_25  and  C_26 
ROOT
HETATM    1  C   UNL     1      17.489  49.928  48.689  1.00  0.00     0.149 C 
HETATM    2  N   UNL     1      18.428  50.060  47.582  1.00  0.00    -0.220 NA
HETATM    3  C   UNL     1      18.157  49.169  46.573  1.00  0.00     0.304 C 
HETATM    4  O   UNL     1      18.756  49.165  45.513  1.00  0.00    -0.253 OA
HETATM    5  N   UNL     1      17.190  48.315  46.984  1.00  0.00    -0.270 N 
HETATM    6  C   UNL     1      16.678  48.712  48.189  1.00  0.00     0.257 C 
HETATM    7  O   UNL     1      15.799  48.149  48.827  1.00  0.00    -0.270 OA
HETATM    8  H   UNL     1      18.644  50.999  47.250  1.00  0.00     0.134 HD
ENDROOT
BRANCH   1   9
HETATM    9  C   UNL     1      16.679  51.217  48.796  1.00  0.00     0.067 A 
HETATM   10  C   UNL     1      15.881  51.700  47.763  1.00  0.00     0.030 A 
HETATM   11  C   UNL     1      15.121  52.848  47.982  1.00  0.00     0.003 A 
HETATM   12  C   UNL     1      15.165  53.480  49.219  1.00  0.00     0.019 A 
HETATM   13  C   UNL     1      15.973  52.937  50.200  1.00  0.00     0.117 A 
HETATM   14  N   UNL     1      16.716  51.821  50.025  1.00  0.00    -0.263 NA
ENDBRANCH   1   9
BRANCH   1  15
HETATM   15  C   UNL     1      18.205  49.592  50.048  1.00  0.00     0.028 C 
HETATM   16  C   UNL     1      19.462  50.427  50.350  1.00  0.00     0.035 C 
HETATM   17  C   UNL     1      20.637  50.097  49.444  1.00  0.00     0.235 C 
HETATM   18  N   UNL     1      20.959  48.620  49.468  1.00  0.00    -0.067 N 
HETATM   19  H   UNL     1      21.435  48.433  50.362  1.00  0.00     0.280 HD
HETATM   20  C   UNL     1      19.786  47.673  49.386  1.00  0.00     0.235 C 
HETATM   21  C   UNL     1      18.611  48.118  50.242  1.00  0.00     0.035 C 
BRANCH  18  22
HETATM   22  C   UNL     1      21.958  48.246  48.369  1.00  0.00     0.278 C 
BRANCH  22  23
HETATM   23  C   UNL     1      23.402  48.320  48.758  1.00  0.00     0.028 A 
HETATM   24  C   UNL     1      24.224  49.423  48.484  1.00  0.00     0.045 A 
HETATM   25 CL   UNL     1      23.618  50.843  47.714  1.00  0.00    -0.084 Cl
HETATM   26  C   UNL     1      25.573  49.414  48.854  1.00  0.00     0.024 A 
HETATM   27  C   UNL     1      26.117  48.305  49.504  1.00  0.00     0.005 A 
HETATM   28  C   UNL     1      25.311  47.209  49.793  1.00  0.00     0.043 A 
HETATM   29  C   UNL     1      23.971  47.229  49.421  1.00  0.00     0.126 A 
HETATM   30  F   UNL     1      23.191  46.183  49.728  1.00  0.00    -0.205 F 
ENDBRANCH  22  23
ENDBRANCH  18  22
ENDBRANCH   1  15
BRANCH   5  31
HETATM   31  C   UNL     1      16.731  47.187  46.188  1.00  0.00     0.168 C 
BRANCH  31  32
HETATM   32  C   UNL     1      15.597  47.564  45.233  1.00  0.00     0.140 C 
HETATM   33  O   UNL     1      16.141  48.174  44.047  1.00  0.00    -0.384 OA
HETATM   34  C   UNL     1      15.494  49.439  43.849  1.00  0.00     0.168 C 
HETATM   35  C   UNL     1      14.216  49.392  44.655  1.00  0.00     0.029 C 
HETATM   36  C   UNL     1      14.643  48.579  45.851  1.00  0.00     0.036 C 
ENDBRANCH  31  32
ENDBRANCH   5  31
TORSDOF 6
ENDMDL
MODEL 7
REMARK VINA RESULT:      -8.2      7.681     10.527
REMARK  6 active torsions:
REMARK  status: ('A' for Active; 'I' for Inactive)
REMARK    1  A    between atoms: C_3  and  C_4 
REMARK    2  A    between atoms: C_4  and  C_5 
REMARK    3  A    between atoms: N_8  and  C_10 
REMARK    4  A    between atoms: C_10  and  C_11 
REMARK    5  A    between atoms: N_24  and  C_25 
REMARK    6  A    between atoms: C_25  and  C_26 
ROOT
HETATM    1  C   UNL     1      17.513  49.840  48.594  1.00  0.00     0.149 C 
HETATM    2  N   UNL     1      18.404  50.018  47.454  1.00  0.00    -0.220 NA
HETATM    3  C   UNL     1      18.124  49.133  46.443  1.00  0.00     0.304 C 
HETATM    4  O   UNL     1      18.682  49.165  45.361  1.00  0.00    -0.253 OA
HETATM    5  N   UNL     1      17.201  48.242  46.876  1.00  0.00    -0.270 N 
HETATM    6  C   UNL     1      16.723  48.605  48.106  1.00  0.00     0.257 C 
HETATM    7  O   UNL     1      15.888  48.004  48.768  1.00  0.00    -0.270 OA
HETATM    8  H   UNL     1      18.578  50.968  47.129  1.00  0.00     0.134 HD
ENDROOT
BRANCH   1   9
HETATM    9  C   UNL     1      16.667  51.099  48.752  1.00  0.00     0.067 A 
HETATM   10  C   UNL     1      16.642  51.856  49.920  1.00  0.00     0.030 A 
HETATM   11  C   UNL     1      15.893  53.032  49.942  1.00  0.00     0.003 A 
HETATM   12  C   UNL     1      15.197  53.429  48.807  1.00  0.00     0.019 A 
HETATM   13  C   UNL     1      15.277  52.632  47.682  1.00  0.00     0.117 A 
HETATM   14  N   UNL     1      16.000  51.491  47.621  1.00  0.00    -0.263 NA
ENDBRANCH   1   9
BRANCH   1  15
HETATM   15  C   UNL     1      18.291  49.507  49.920  1.00  0.00     0.028 C 
HETATM   16  C   UNL     1      19.471  50.442  50.238  1.00  0.00     0.035 C 
HETATM   17  C   UNL     1      20.649  50.271  49.293  1.00  0.00     0.235 C 
HETATM   18  N   UNL     1      21.110  48.831  49.236  1.00  0.00    -0.067 N 
HETATM   19  H   UNL     1      21.622  48.647  50.110  1.00  0.00     0.280 HD
HETATM   20  C   UNL     1      20.028  47.782  49.129  1.00  0.00     0.235 C 
HETATM   21  C   UNL     1      18.839  48.072  50.030  1.00  0.00     0.035 C 
BRANCH  18  22
HETATM   22  C   UNL     1      22.111  48.608  48.100  1.00  0.00     0.278 C 
BRANCH  22  23
HETATM   23  C   UNL     1      23.556  48.704  48.486  1.00  0.00     0.028 A 
HETATM   24  C   UNL     1      24.233  47.713  49.211  1.00  0.00     0.045 A 
HETATM   25 CL   UNL     1      23.465  46.240  49.680  1.00  0.00    -0.084 Cl
HETATM   26  C   UNL     1      25.577  47.881  49.560  1.00  0.00     0.024 A 
HETATM   27  C   UNL     1      26.262  49.039  49.188  1.00  0.00     0.005 A 
HETATM   28  C   UNL     1      25.605  50.025  48.458  1.00  0.00     0.043 A 
HETATM   29  C   UNL     1      24.269  49.847  48.116  1.00  0.00     0.126 A 
HETATM   30  F   UNL     1      23.649  50.786  47.388  1.00  0.00    -0.205 F 
ENDBRANCH  22  23
ENDBRANCH  18  22
ENDBRANCH   1  15
BRANCH   5  31
HETATM   31  C   UNL     1      16.749  47.112  46.081  1.00  0.00     0.168 C 
BRANCH  31  32
HETATM   32  C   UNL     1      15.754  47.519  44.992  1.00  0.00     0.140 C 
HETATM   33  O   UNL     1      14.633  48.201  45.588  1.00  0.00    -0.384 OA
HETATM   34  C   UNL     1      13.427  47.550  45.162  1.00  0.00     0.168 C 
HETATM   35  C   UNL     1      13.787  46.757  43.927  1.00  0.00     0.029 C 
HETATM   36  C   UNL     1      15.190  46.312  44.252  1.00  0.00     0.036 C 
ENDBRANCH  31  32
ENDBRANCH   5  31
TORSDOF 6
ENDMDL
MODEL 8
REMARK VINA RESULT:      -8.1     16.446     18.400
REMARK  6 active torsions:
REMARK  status: ('A' for Active; 'I' for Inactive)
REMARK    1  A    between atoms: C_3  and  C_4 
REMARK    2  A    between atoms: C_4  and  C_5 
REMARK    3  A    between atoms: N_8  and  C_10 
REMARK    4  A    between atoms: C_10  and  C_11 
REMARK    5  A    between atoms: N_24  and  C_25 
REMARK    6  A    between atoms: C_25  and  C_26 
ROOT
HETATM    1  C   UNL     1      38.164  47.434  66.473  1.00  0.00     0.149 C 
HETATM    2  N   UNL     1      38.250  47.200  65.037  1.00  0.00    -0.220 NA
HETATM    3  C   UNL     1      37.155  46.520  64.563  1.00  0.00     0.304 C 
HETATM    4  O   UNL     1      36.972  46.300  63.380  1.00  0.00    -0.253 OA
HETATM    5  N   UNL     1      36.393  46.123  65.610  1.00  0.00    -0.270 N 
HETATM    6  C   UNL     1      36.859  46.664  66.777  1.00  0.00     0.257 C 
HETATM    7  O   UNL     1      36.395  46.491  67.895  1.00  0.00    -0.270 OA
HETATM    8  H   UNL     1      38.535  47.978  64.443  1.00  0.00     0.134 HD
ENDROOT
BRANCH   1   9
HETATM    9  C   UNL     1      38.072  48.937  66.717  1.00  0.00     0.067 A 
HETATM   10  C   UNL     1      37.927  49.865  65.690  1.00  0.00     0.030 A 
HETATM   11  C   UNL     1      37.779  51.212  66.018  1.00  0.00     0.003 A 
HETATM   12  C   UNL     1      37.771  51.602  67.352  1.00  0.00     0.019 A 
HETATM   13  C   UNL     1      37.911  50.623  68.317  1.00  0.00     0.117 A 
HETATM   14  N   UNL     1      38.048  49.307  68.035  1.00  0.00    -0.263 NA
ENDBRANCH   1   9
BRANCH   1  15
HETATM   15  C   UNL     1      39.371  46.803  67.259  1.00  0.00     0.028 C 
HETATM   16  C   UNL     1      40.766  47.197  66.742  1.00  0.00     0.035 C 
HETATM   17  C   UNL     1      41.101  46.594  65.388  1.00  0.00     0.235 C 
HETATM   18  N   UNL     1      40.939  45.090  65.395  1.00  0.00    -0.067 N 
HETATM   19  H   UNL     1      41.747  44.706  65.906  1.00  0.00     0.280 HD
HETATM   20  C   UNL     1      39.698  44.549  66.062  1.00  0.00     0.235 C 
HETATM   21  C   UNL     1      39.370  45.266  67.361  1.00  0.00     0.035 C 
BRANCH  18  22
HETATM   22  C   UNL     1      41.017  44.511  63.980  1.00  0.00     0.278 C 
BRANCH  22  23
HETATM   23  C   UNL     1      40.406  43.155  63.803  1.00  0.00     0.028 A 
HETATM   24  C   UNL     1      40.848  42.009  64.480  1.00  0.00     0.045 A 
HETATM   25 CL   UNL     1      42.121  42.072  65.644  1.00  0.00    -0.084 Cl
HETATM   26  C   UNL     1      40.246  40.768  64.247  1.00  0.00     0.024 A 
HETATM   27  C   UNL     1      39.194  40.656  63.337  1.00  0.00     0.005 A 
HETATM   28  C   UNL     1      38.737  41.787  62.666  1.00  0.00     0.043 A 
HETATM   29  C   UNL     1      39.342  43.016  62.907  1.00  0.00     0.126 A 
HETATM   30  F   UNL     1      38.880  44.107  62.281  1.00  0.00    -0.205 F 
ENDBRANCH  22  23
ENDBRANCH  18  22
ENDBRANCH   1  15
BRANCH   5  31
HETATM   31  C   UNL     1      35.204  45.299  65.463  1.00  0.00     0.168 C 
BRANCH  31  32
HETATM   32  C   UNL     1      35.362  43.918  66.104  1.00  0.00     0.140 C 
HETATM   33  O   UNL     1      36.483  43.233  65.513  1.00  0.00    -0.384 OA
HETATM   34  C   UNL     1      36.037  41.951  65.047  1.00  0.00     0.168 C 
HETATM   35  C   UNL     1      34.745  41.662  65.775  1.00  0.00     0.029 C 
HETATM   36  C   UNL     1      34.140  43.038  65.875  1.00  0.00     0.036 C 
ENDBRANCH  31  32
ENDBRANCH   5  31
TORSDOF 6
ENDMDL
MODEL 9
REMARK VINA RESULT:      -8.1     16.401     19.200
REMARK  6 active torsions:
REMARK  status: ('A' for Active; 'I' for Inactive)
REMARK    1  A    between atoms: C_3  and  C_4 
REMARK    2  A    between atoms: C_4  and  C_5 
REMARK    3  A    between atoms: N_8  and  C_10 
REMARK    4  A    between atoms: C_10  and  C_11 
REMARK    5  A    between atoms: N_24  and  C_25 
REMARK    6  A    between atoms: C_25  and  C_26 
ROOT
HETATM    1  C   UNL     1      37.386  45.917  65.960  1.00  0.00     0.149 C 
HETATM    2  N   UNL     1      38.826  45.715  65.852  1.00  0.00    -0.220 NA
HETATM    3  C   UNL     1      39.484  46.879  65.541  1.00  0.00     0.304 C 
HETATM    4  O   UNL     1      40.698  46.962  65.493  1.00  0.00    -0.253 OA
HETATM    5  N   UNL     1      38.574  47.842  65.264  1.00  0.00    -0.270 N 
HETATM    6  C   UNL     1      37.308  47.403  65.544  1.00  0.00     0.257 C 
HETATM    7  O   UNL     1      36.270  48.033  65.394  1.00  0.00    -0.270 OA
HETATM    8  H   UNL     1      39.286  45.167  66.578  1.00  0.00     0.134 HD
ENDROOT
BRANCH   1   9
HETATM    9  C   UNL     1      36.964  45.650  67.402  1.00  0.00     0.067 A 
HETATM   10  C   UNL     1      35.676  45.889  67.872  1.00  0.00     0.030 A 
HETATM   11  C   UNL     1      35.367  45.544  69.187  1.00  0.00     0.003 A 
HETATM   12  C   UNL     1      36.338  44.967  69.996  1.00  0.00     0.019 A 
HETATM   13  C   UNL     1      37.591  44.751  69.457  1.00  0.00     0.117 A 
HETATM   14  N   UNL     1      37.923  45.065  68.184  1.00  0.00    -0.263 NA
ENDBRANCH   1   9
BRANCH   1  15
HETATM   15  C   UNL     1      36.575  45.021  64.954  1.00  0.00     0.028 C 
HETATM   16  C   UNL     1      36.574  43.515  65.275  1.00  0.00     0.035 C 
HETATM   17  C   UNL     1      37.923  42.850  65.058  1.00  0.00     0.235 C 
HETATM   18  N   UNL     1      38.445  43.098  63.660  1.00  0.00    -0.067 N 
HETATM   19  H   UNL     1      37.903  42.491  63.028  1.00  0.00     0.280 HD
HETATM   20  C   UNL     1      38.319  44.507  63.134  1.00  0.00     0.235 C 
HETATM   21  C   UNL     1      36.982  45.144  63.473  1.00  0.00     0.035 C 
BRANCH  18  22
HETATM   22  C   UNL     1      39.905  42.660  63.521  1.00  0.00     0.278 C 
BRANCH  22  23
HETATM   23  C   UNL     1      40.176  41.216  63.813  1.00  0.00     0.028 A 
HETATM   24  C   UNL     1      40.947  40.774  64.898  1.00  0.00     0.045 A 
HETATM   25 CL   UNL     1      41.615  41.873  66.049  1.00  0.00    -0.084 Cl
HETATM   26  C   UNL     1      41.181  39.410  65.095  1.00  0.00     0.024 A 
HETATM   27  C   UNL     1      40.647  38.469  64.214  1.00  0.00     0.005 A 
HETATM   28  C   UNL     1      39.870  38.892  63.140  1.00  0.00     0.043 A 
HETATM   29  C   UNL     1      39.643  40.252  62.953  1.00  0.00     0.126 A 
HETATM   30  F   UNL     1      38.870  40.652  61.935  1.00  0.00    -0.205 F 
ENDBRANCH  22  23
ENDBRANCH  18  22
ENDBRANCH   1  15
BRANCH   5  31
HETATM   31  C   UNL     1      38.937  49.174  64.808  1.00  0.00     0.168 C 
BRANCH  31  32
HETATM   32  C   UNL     1      39.043  50.181  65.956  1.00  0.00     0.140 C 
HETATM   33  O   UNL     1      39.084  49.481  67.215  1.00  0.00    -0.384 OA
HETATM   34  C   UNL     1      38.056  50.012  68.064  1.00  0.00     0.168 C 
HETATM   35  C   UNL     1      37.689  51.361  67.491  1.00  0.00     0.029 C 
HETATM   36  C   UNL     1      37.838  51.113  66.012  1.00  0.00     0.036 C 
ENDBRANCH  31  32
ENDBRANCH   5  31
TORSDOF 6
ENDMDL
MODEL 10
REMARK VINA RESULT:      -8.1     17.010     19.916
REMARK  6 active torsions:
REMARK  status: ('A' for Active; 'I' for Inactive)
REMARK    1  A    between atoms: C_3  and  C_4 
REMARK    2  A    between atoms: C_4  and  C_5 
REMARK    3  A    between atoms: N_8  and  C_10 
REMARK    4  A    between atoms: C_10  and  C_11 
REMARK    5  A    between atoms: N_24  and  C_25 
REMARK    6  A    between atoms: C_25  and  C_26 
ROOT
HETATM    1  C   UNL     1      39.395  45.422  64.863  1.00  0.00     0.149 C 
HETATM    2  N   UNL     1      39.653  44.424  65.893  1.00  0.00    -0.220 NA
HETATM    3  C   UNL     1      40.853  44.638  66.523  1.00  0.00     0.304 C 
HETATM    4  O   UNL     1      41.227  43.980  67.478  1.00  0.00    -0.253 OA
HETATM    5  N   UNL     1      41.521  45.626  65.882  1.00  0.00    -0.270 N 
HETATM    6  C   UNL     1      40.726  46.204  64.930  1.00  0.00     0.257 C 
HETATM    7  O   UNL     1      41.039  47.116  64.178  1.00  0.00    -0.270 OA
HETATM    8  H   UNL     1      38.893  44.189  66.530  1.00  0.00     0.134 HD
ENDROOT
BRANCH   1   9
HETATM    9  C   UNL     1      38.171  46.238  65.271  1.00  0.00     0.067 A 
HETATM   10  C   UNL     1      37.757  47.378  64.588  1.00  0.00     0.030 A 
HETATM   11  C   UNL     1      36.584  48.014  64.994  1.00  0.00     0.003 A 
HETATM   12  C   UNL     1      35.851  47.500  66.056  1.00  0.00     0.019 A 
HETATM   13  C   UNL     1      36.320  46.359  66.679  1.00  0.00     0.117 A 
HETATM   14  N   UNL     1      37.447  45.712  66.307  1.00  0.00    -0.263 NA
ENDBRANCH   1   9
BRANCH   1  15
HETATM   15  C   UNL     1      39.203  44.783  63.439  1.00  0.00     0.028 C 
HETATM   16  C   UNL     1      37.834  44.124  63.197  1.00  0.00     0.035 C 
HETATM   17  C   UNL     1      37.629  42.846  63.994  1.00  0.00     0.235 C 
HETATM   18  N   UNL     1      38.748  41.856  63.754  1.00  0.00    -0.067 N 
HETATM   19  H   UNL     1      38.589  41.449  62.822  1.00  0.00     0.280 HD
HETATM   20  C   UNL     1      40.152  42.413  63.760  1.00  0.00     0.235 C 
HETATM   21  C   UNL     1      40.260  43.740  63.028  1.00  0.00     0.035 C 
BRANCH  18  22
HETATM   22  C   UNL     1      38.687  40.690  64.744  1.00  0.00     0.278 C 
BRANCH  22  23
HETATM   23  C   UNL     1      39.969  39.939  64.934  1.00  0.00     0.028 A 
HETATM   24  C   UNL     1      40.473  39.015  64.008  1.00  0.00     0.045 A 
HETATM   25 CL   UNL     1      39.677  38.702  62.509  1.00  0.00    -0.084 Cl
HETATM   26  C   UNL     1      41.665  38.329  64.263  1.00  0.00     0.024 A 
HETATM   27  C   UNL     1      42.369  38.559  65.445  1.00  0.00     0.005 A 
HETATM   28  C   UNL     1      41.887  39.481  66.369  1.00  0.00     0.043 A 
HETATM   29  C   UNL     1      40.701  40.158  66.105  1.00  0.00     0.126 A 
HETATM   30  F   UNL     1      40.257  41.066  66.984  1.00  0.00    -0.205 F 
ENDBRANCH  22  23
ENDBRANCH  18  22
ENDBRANCH   1  15
BRANCH   5  31
HETATM   31  C   UNL     1      42.869  46.039  66.239  1.00  0.00     0.168 C 
BRANCH  31  32
HETATM   32  C   UNL     1      43.922  45.517  65.259  1.00  0.00     0.140 C 
HETATM   33  O   UNL     1      44.856  44.668  65.954  1.00  0.00    -0.384 OA
HETATM   34  C   UNL     1      46.184  45.148  65.699  1.00  0.00     0.168 C 
HETATM   35  C   UNL     1      46.091  46.013  64.463  1.00  0.00     0.029 C 
HETATM   36  C   UNL     1      44.735  46.647  64.639  1.00  0.00     0.036 C 
ENDBRANCH  31  32
ENDBRANCH   5  31
TORSDOF 6
ENDMDL
