MODEL 1
REMARK VINA RESULT:      -8.4      0.000      0.000
REMARK  5 active torsions:
REMARK  status: ('A' for Active; 'I' for Inactive)
REMARK    1  A    between atoms: C_8  and  N_9 
REMARK       I    between atoms: N_9  and  C_10 
REMARK    2  A    between atoms: C_10  and  C_11 
REMARK    3  A    between atoms: C_11  and  N_12 
REMARK    4  A    between atoms: N_12  and  C_13 
REMARK    5  A    between atoms: C_13  and  C_14 
ROOT
HETATM    1  C   UNL     1      25.506  45.544  51.540  1.00  0.00     0.372 C 
ENDROOT
BRANCH   1   2
HETATM    2  C   UNL     1      25.620  46.297  50.208  1.00  0.00     0.250 C 
HETATM    3  N   UNL     1      25.238  47.617  50.300  1.00  0.00    -0.322 N 
HETATM    4  H   UNL     1      24.994  47.929  51.235  1.00  0.00     0.169 HD
HETATM    5  O   UNL     1      26.078  45.730  49.221  1.00  0.00    -0.271 OA
BRANCH   3   6
HETATM    6  C   UNL     1      25.196  48.550  49.280  1.00  0.00     0.085 A 
HETATM    7  C   UNL     1      26.336  49.180  48.818  1.00  0.00     0.052 A 
HETATM    8  C   UNL     1      27.767  49.068  49.188  1.00  0.00     0.072 C 
HETATM    9  N   UNL     1      25.923  50.023  47.826  1.00  0.00    -0.280 N 
HETATM   10  H   UNL     1      26.486  50.642  47.253  1.00  0.00     0.189 HD
HETATM   11  N   UNL     1      24.605  50.003  47.613  1.00  0.00    -0.177 NA
HETATM   12  C   UNL     1      24.139  49.110  48.500  1.00  0.00     0.079 A 
HETATM   13  C   UNL     1      22.671  48.889  48.560  1.00  0.00     0.075 C 
ENDBRANCH   3   6
ENDBRANCH   1   2
BRANCH   1  14
HETATM   14  N   UNL     1      26.823  45.045  51.997  1.00  0.00     0.100 N 
HETATM   15  H   UNL     1      27.423  45.856  52.177  1.00  0.00     0.317 HD
BRANCH  14  16
HETATM   16  C   UNL     1      26.717  44.282  53.253  1.00  0.00     0.251 C 
HETATM   17  C   UNL     1      25.346  44.377  53.942  1.00  0.00     0.048 C 
BRANCH  16  18
HETATM   18  C   UNL     1      27.822  44.662  54.240  1.00  0.00    -0.002 A 
HETATM   19  C   UNL     1      28.890  43.817  54.620  1.00  0.00     0.064 A 
HETATM   20 CL   UNL     1      28.994  42.188  54.019  1.00  0.00    -0.082 Cl
HETATM   21  C   UNL     1      29.890  44.296  55.489  1.00  0.00     0.056 A 
HETATM   22 CL   UNL     1      31.231  43.323  55.997  1.00  0.00    -0.083 Cl
HETATM   23  C   UNL     1      29.841  45.605  55.975  1.00  0.00     0.026 A 
HETATM   24  C   UNL     1      28.796  46.444  55.609  1.00  0.00     0.002 A 
HETATM   25  C   UNL     1      27.799  45.978  54.753  1.00  0.00     0.011 A 
ENDBRANCH  16  18
ENDBRANCH  14  16
ENDBRANCH   1  14
TORSDOF 5
ENDMDL
MODEL 2
REMARK VINA RESULT:      -8.3      2.624      4.016
REMARK  5 active torsions:
REMARK  status: ('A' for Active; 'I' for Inactive)
REMARK    1  A    between atoms: C_8  and  N_9 
REMARK       I    between atoms: N_9  and  C_10 
REMARK    2  A    between atoms: C_10  and  C_11 
REMARK    3  A    between atoms: C_11  and  N_12 
REMARK    4  A    between atoms: N_12  and  C_13 
REMARK    5  A    between atoms: C_13  and  C_14 
ROOT
HETATM    1  C   UNL     1      26.998  43.014  52.947  1.00  0.00     0.372 C 
ENDROOT
BRANCH   1   2
HETATM    2  C   UNL     1      25.839  43.948  52.575  1.00  0.00     0.250 C 
HETATM    3  N   UNL     1      25.856  44.328  51.251  1.00  0.00    -0.322 N 
HETATM    4  H   UNL     1      26.585  43.898  50.691  1.00  0.00     0.169 HD
HETATM    5  O   UNL     1      24.986  44.229  53.410  1.00  0.00    -0.271 OA
BRANCH   3   6
HETATM    6  C   UNL     1      24.975  45.182  50.613  1.00  0.00     0.085 A 
HETATM    7  C   UNL     1      23.768  44.740  50.105  1.00  0.00     0.052 A 
HETATM    8  C   UNL     1      23.106  43.415  50.095  1.00  0.00     0.072 C 
HETATM    9  N   UNL     1      23.170  45.837  49.553  1.00  0.00    -0.280 N 
HETATM   10  H   UNL     1      22.268  45.895  49.093  1.00  0.00     0.189 HD
HETATM   11  N   UNL     1      23.895  46.954  49.648  1.00  0.00    -0.177 NA
HETATM   12  C   UNL     1      25.010  46.573  50.289  1.00  0.00     0.079 A 
HETATM   13  C   UNL     1      26.068  47.590  50.511  1.00  0.00     0.075 C 
ENDBRANCH   3   6
ENDBRANCH   1   2
BRANCH   1  14
HETATM   14  N   UNL     1      27.686  43.466  54.178  1.00  0.00     0.100 N 
HETATM   15  H   UNL     1      27.752  42.665  54.815  1.00  0.00     0.317 HD
BRANCH  14  16
HETATM   16  C   UNL     1      29.058  43.928  53.903  1.00  0.00     0.251 C 
HETATM   17  C   UNL     1      29.833  43.062  52.897  1.00  0.00     0.048 C 
BRANCH  16  18
HETATM   18  C   UNL     1      29.870  44.084  55.190  1.00  0.00    -0.002 A 
HETATM   19  C   UNL     1      29.768  45.177  56.082  1.00  0.00     0.064 A 
HETATM   20 CL   UNL     1      28.715  46.515  55.733  1.00  0.00    -0.082 Cl
HETATM   21  C   UNL     1      30.520  45.183  57.273  1.00  0.00     0.056 A 
HETATM   22 CL   UNL     1      30.447  46.483  58.417  1.00  0.00    -0.083 Cl
HETATM   23  C   UNL     1      31.363  44.114  57.587  1.00  0.00     0.026 A 
HETATM   24  C   UNL     1      31.472  43.036  56.718  1.00  0.00     0.002 A 
HETATM   25  C   UNL     1      30.735  43.021  55.535  1.00  0.00     0.011 A 
ENDBRANCH  16  18
ENDBRANCH  14  16
ENDBRANCH   1  14
TORSDOF 5
ENDMDL
MODEL 3
REMARK VINA RESULT:      -8.3      0.866      1.934
REMARK  5 active torsions:
REMARK  status: ('A' for Active; 'I' for Inactive)
REMARK    1  A    between atoms: C_8  and  N_9 
REMARK       I    between atoms: N_9  and  C_10 
REMARK    2  A    between atoms: C_10  and  C_11 
REMARK    3  A    between atoms: C_11  and  N_12 
REMARK    4  A    between atoms: N_12  and  C_13 
REMARK    5  A    between atoms: C_13  and  C_14 
ROOT
HETATM    1  C   UNL     1      25.388  45.275  51.750  1.00  0.00     0.372 C 
ENDROOT
BRANCH   1   2
HETATM    2  C   UNL     1      25.580  46.739  51.333  1.00  0.00     0.250 C 
HETATM    3  N   UNL     1      25.182  46.987  50.038  1.00  0.00    -0.322 N 
HETATM    4  H   UNL     1      24.764  46.196  49.558  1.00  0.00     0.169 HD
HETATM    5  O   UNL     1      25.989  47.560  52.147  1.00  0.00    -0.271 OA
BRANCH   3   6
HETATM    6  C   UNL     1      25.253  48.189  49.355  1.00  0.00     0.085 A 
HETATM    7  C   UNL     1      24.122  48.832  48.889  1.00  0.00     0.052 A 
HETATM    8  C   UNL     1      22.677  48.512  48.972  1.00  0.00     0.072 C 
HETATM    9  N   UNL     1      24.564  49.968  48.274  1.00  0.00    -0.280 N 
HETATM   10  H   UNL     1      24.015  50.690  47.820  1.00  0.00     0.189 HD
HETATM   11  N   UNL     1      25.891  50.110  48.289  1.00  0.00    -0.177 NA
HETATM   12  C   UNL     1      26.334  49.025  48.943  1.00  0.00     0.079 A 
HETATM   13  C   UNL     1      27.802  48.850  49.087  1.00  0.00     0.075 C 
ENDBRANCH   3   6
ENDBRANCH   1   2
BRANCH   1  14
HETATM   14  N   UNL     1      26.657  44.672  52.215  1.00  0.00     0.100 N 
HETATM   15  H   UNL     1      27.373  45.406  52.220  1.00  0.00     0.317 HD
BRANCH  14  16
HETATM   16  C   UNL     1      26.548  44.148  53.588  1.00  0.00     0.251 C 
HETATM   17  C   UNL     1      25.197  44.422  54.269  1.00  0.00     0.048 C 
BRANCH  16  18
HETATM   18  C   UNL     1      27.688  44.648  54.476  1.00  0.00    -0.002 A 
HETATM   19  C   UNL     1      28.862  43.916  54.772  1.00  0.00     0.064 A 
HETATM   20 CL   UNL     1      29.074  42.297  54.175  1.00  0.00    -0.082 Cl
HETATM   21  C   UNL     1      29.878  44.503  55.550  1.00  0.00     0.056 A 
HETATM   22 CL   UNL     1      31.345  43.673  55.952  1.00  0.00    -0.083 Cl
HETATM   23  C   UNL     1      29.741  45.808  56.030  1.00  0.00     0.026 A 
HETATM   24  C   UNL     1      28.593  46.536  55.746  1.00  0.00     0.002 A 
HETATM   25  C   UNL     1      27.580  45.964  54.980  1.00  0.00     0.011 A 
ENDBRANCH  16  18
ENDBRANCH  14  16
ENDBRANCH   1  14
TORSDOF 5
ENDMDL
MODEL 4
REMARK VINA RESULT:      -8.1      2.890      3.713
REMARK  5 active torsions:
REMARK  status: ('A' for Active; 'I' for Inactive)
REMARK    1  A    between atoms: C_8  and  N_9 
REMARK       I    between atoms: N_9  and  C_10 
REMARK    2  A    between atoms: C_10  and  C_11 
REMARK    3  A    between atoms: C_11  and  N_12 
REMARK    4  A    between atoms: N_12  and  C_13 
REMARK    5  A    between atoms: C_13  and  C_14 
ROOT
HETATM    1  C   UNL     1      25.805  47.089  53.614  1.00  0.00     0.372 C 
ENDROOT
BRANCH   1   2
HETATM    2  C   UNL     1      25.699  46.806  52.110  1.00  0.00     0.250 C 
HETATM    3  N   UNL     1      25.280  45.524  51.831  1.00  0.00    -0.322 N 
HETATM    4  H   UNL     1      25.042  44.963  52.643  1.00  0.00     0.169 HD
HETATM    5  O   UNL     1      25.916  47.702  51.301  1.00  0.00    -0.271 OA
BRANCH   3   6
HETATM    6  C   UNL     1      25.114  44.949  50.583  1.00  0.00     0.085 A 
HETATM    7  C   UNL     1      25.858  43.858  50.177  1.00  0.00     0.052 A 
HETATM    8  C   UNL     1      26.903  43.048  50.846  1.00  0.00     0.072 C 
HETATM    9  N   UNL     1      25.435  43.566  48.911  1.00  0.00    -0.280 N 
HETATM   10  H   UNL     1      25.752  42.822  48.300  1.00  0.00     0.189 HD
HETATM   11  N   UNL     1      24.487  44.387  48.455  1.00  0.00    -0.177 NA
HETATM   12  C   UNL     1      24.280  45.248  49.463  1.00  0.00     0.079 A 
HETATM   13  C   UNL     1      23.301  46.346  49.252  1.00  0.00     0.075 C 
ENDBRANCH   3   6
ENDBRANCH   1   2
BRANCH   1  14
HETATM   14  N   UNL     1      26.363  45.930  54.347  1.00  0.00     0.100 N 
HETATM   15  H   UNL     1      26.645  45.226  53.657  1.00  0.00     0.317 HD
BRANCH  14  16
HETATM   16  C   UNL     1      27.561  46.294  55.124  1.00  0.00     0.251 C 
HETATM   17  C   UNL     1      28.147  47.673  54.781  1.00  0.00     0.048 C 
BRANCH  16  18
HETATM   18  C   UNL     1      28.649  45.225  55.019  1.00  0.00    -0.002 A 
HETATM   19  C   UNL     1      29.647  44.990  55.993  1.00  0.00     0.064 A 
HETATM   20 CL   UNL     1      29.756  45.987  57.414  1.00  0.00    -0.082 Cl
HETATM   21  C   UNL     1      30.561  43.933  55.821  1.00  0.00     0.056 A 
HETATM   22 CL   UNL     1      31.809  43.580  56.971  1.00  0.00    -0.083 Cl
HETATM   23  C   UNL     1      30.489  43.107  54.698  1.00  0.00     0.026 A 
HETATM   24  C   UNL     1      29.513  43.327  53.734  1.00  0.00     0.002 A 
HETATM   25  C   UNL     1      28.605  44.374  53.893  1.00  0.00     0.011 A 
ENDBRANCH  16  18
ENDBRANCH  14  16
ENDBRANCH   1  14
TORSDOF 5
ENDMDL
MODEL 5
REMARK VINA RESULT:      -8.1      1.765      2.769
REMARK  5 active torsions:
REMARK  status: ('A' for Active; 'I' for Inactive)
REMARK    1  A    between atoms: C_8  and  N_9 
REMARK       I    between atoms: N_9  and  C_10 
REMARK    2  A    between atoms: C_10  and  C_11 
REMARK    3  A    between atoms: C_11  and  N_12 
REMARK    4  A    between atoms: N_12  and  C_13 
REMARK    5  A    between atoms: C_13  and  C_14 
ROOT
HETATM    1  C   UNL     1      24.999  45.180  52.085  1.00  0.00     0.372 C 
ENDROOT
BRANCH   1   2
HETATM    2  C   UNL     1      25.170  46.635  51.628  1.00  0.00     0.250 C 
HETATM    3  N   UNL     1      24.980  46.800  50.273  1.00  0.00    -0.322 N 
HETATM    4  H   UNL     1      24.696  45.963  49.774  1.00  0.00     0.169 HD
HETATM    5  O   UNL     1      25.387  47.515  52.453  1.00  0.00    -0.271 OA
BRANCH   3   6
HETATM    6  C   UNL     1      25.093  47.973  49.548  1.00  0.00     0.085 A 
HETATM    7  C   UNL     1      23.986  48.634  49.052  1.00  0.00     0.052 A 
HETATM    8  C   UNL     1      22.531  48.364  49.137  1.00  0.00     0.072 C 
HETATM    9  N   UNL     1      24.467  49.733  48.399  1.00  0.00    -0.280 N 
HETATM   10  H   UNL     1      23.944  50.455  47.917  1.00  0.00     0.189 HD
HETATM   11  N   UNL     1      25.798  49.834  48.418  1.00  0.00    -0.177 NA
HETATM   12  C   UNL     1      26.203  48.759  49.113  1.00  0.00     0.079 A 
HETATM   13  C   UNL     1      27.663  48.543  49.272  1.00  0.00     0.075 C 
ENDBRANCH   3   6
ENDBRANCH   1   2
BRANCH   1  14
HETATM   14  N   UNL     1      26.012  44.806  53.097  1.00  0.00     0.100 N 
HETATM   15  H   UNL     1      25.787  43.865  53.436  1.00  0.00     0.317 HD
BRANCH  14  16
HETATM   16  C   UNL     1      27.370  44.760  52.526  1.00  0.00     0.251 C 
HETATM   17  C   UNL     1      27.544  43.754  51.377  1.00  0.00     0.048 C 
BRANCH  16  18
HETATM   18  C   UNL     1      28.427  44.508  53.602  1.00  0.00    -0.002 A 
HETATM   19  C   UNL     1      28.665  45.350  54.713  1.00  0.00     0.064 A 
HETATM   20 CL   UNL     1      27.778  46.833  54.912  1.00  0.00    -0.082 Cl
HETATM   21  C   UNL     1      29.623  44.985  55.679  1.00  0.00     0.056 A 
HETATM   22 CL   UNL     1      29.968  45.961  57.068  1.00  0.00    -0.083 Cl
HETATM   23  C   UNL     1      30.339  43.792  55.553  1.00  0.00     0.026 A 
HETATM   24  C   UNL     1      30.115  42.957  54.466  1.00  0.00     0.002 A 
HETATM   25  C   UNL     1      29.171  43.311  53.502  1.00  0.00     0.011 A 
ENDBRANCH  16  18
ENDBRANCH  14  16
ENDBRANCH   1  14
TORSDOF 5
ENDMDL
MODEL 6
REMARK VINA RESULT:      -7.9      4.132      5.304
REMARK  5 active torsions:
REMARK  status: ('A' for Active; 'I' for Inactive)
REMARK    1  A    between atoms: C_8  and  N_9 
REMARK       I    between atoms: N_9  and  C_10 
REMARK    2  A    between atoms: C_10  and  C_11 
REMARK    3  A    between atoms: C_11  and  N_12 
REMARK    4  A    between atoms: N_12  and  C_13 
REMARK    5  A    between atoms: C_13  and  C_14 
ROOT
HETATM    1  C   UNL     1      26.641  44.709  53.331  1.00  0.00     0.372 C 
ENDROOT
BRANCH   1   2
HETATM    2  C   UNL     1      26.313  44.254  51.902  1.00  0.00     0.250 C 
HETATM    3  N   UNL     1      25.597  43.078  51.863  1.00  0.00    -0.322 N 
HETATM    4  H   UNL     1      25.331  42.706  52.769  1.00  0.00     0.169 HD
HETATM    5  O   UNL     1      26.632  44.954  50.948  1.00  0.00    -0.271 OA
BRANCH   3   6
HETATM    6  C   UNL     1      25.175  42.391  50.738  1.00  0.00     0.085 A 
HETATM    7  C   UNL     1      24.073  42.794  50.007  1.00  0.00     0.052 A 
HETATM    8  C   UNL     1      23.135  43.932  50.147  1.00  0.00     0.072 C 
HETATM    9  N   UNL     1      23.954  41.897  48.984  1.00  0.00    -0.280 N 
HETATM   10  H   UNL     1      23.264  41.879  48.241  1.00  0.00     0.189 HD
HETATM   11  N   UNL     1      24.880  40.935  48.997  1.00  0.00    -0.177 NA
HETATM   12  C   UNL     1      25.636  41.216  50.070  1.00  0.00     0.079 A 
HETATM   13  C   UNL     1      26.745  40.286  50.404  1.00  0.00     0.075 C 
ENDBRANCH   3   6
ENDBRANCH   1   2
BRANCH   1  14
HETATM   14  N   UNL     1      27.547  43.756  54.010  1.00  0.00     0.100 N 
HETATM   15  H   UNL     1      27.355  42.819  53.640  1.00  0.00     0.317 HD
BRANCH  14  16
HETATM   16  C   UNL     1      28.964  44.057  53.742  1.00  0.00     0.251 C 
HETATM   17  C   UNL     1      29.649  43.084  52.768  1.00  0.00     0.048 C 
BRANCH  16  18
HETATM   18  C   UNL     1      29.775  44.156  55.035  1.00  0.00    -0.002 A 
HETATM   19  C   UNL     1      29.704  45.230  55.952  1.00  0.00     0.064 A 
HETATM   20 CL   UNL     1      28.694  46.609  55.631  1.00  0.00    -0.082 Cl
HETATM   21  C   UNL     1      30.451  45.185  57.145  1.00  0.00     0.056 A 
HETATM   22 CL   UNL     1      30.414  46.459  58.319  1.00  0.00    -0.083 Cl
HETATM   23  C   UNL     1      31.259  44.084  57.436  1.00  0.00     0.026 A 
HETATM   24  C   UNL     1      31.337  43.023  56.543  1.00  0.00     0.002 A 
HETATM   25  C   UNL     1      30.605  43.059  55.357  1.00  0.00     0.011 A 
ENDBRANCH  16  18
ENDBRANCH  14  16
ENDBRANCH   1  14
TORSDOF 5
ENDMDL
MODEL 7
REMARK VINA RESULT:      -7.8      4.087      7.902
REMARK  5 active torsions:
REMARK  status: ('A' for Active; 'I' for Inactive)
REMARK    1  A    between atoms: C_8  and  N_9 
REMARK       I    between atoms: N_9  and  C_10 
REMARK    2  A    between atoms: C_10  and  C_11 
REMARK    3  A    between atoms: C_11  and  N_12 
REMARK    4  A    between atoms: N_12  and  C_13 
REMARK    5  A    between atoms: C_13  and  C_14 
ROOT
HETATM    1  C   UNL     1      25.306  44.726  52.362  1.00  0.00     0.372 C 
ENDROOT
BRANCH   1   2
HETATM    2  C   UNL     1      26.208  44.465  53.576  1.00  0.00     0.250 C 
HETATM    3  N   UNL     1      27.543  44.677  53.310  1.00  0.00    -0.322 N 
HETATM    4  H   UNL     1      27.745  45.031  52.380  1.00  0.00     0.169 HD
HETATM    5  O   UNL     1      25.711  44.166  54.656  1.00  0.00    -0.271 OA
BRANCH   3   6
HETATM    6  C   UNL     1      28.608  44.501  54.176  1.00  0.00     0.085 A 
HETATM    7  C   UNL     1      29.530  43.486  54.002  1.00  0.00     0.052 A 
HETATM    8  C   UNL     1      29.678  42.426  52.977  1.00  0.00     0.072 C 
HETATM    9  N   UNL     1      30.425  43.614  55.026  1.00  0.00    -0.280 N 
HETATM   10  H   UNL     1      31.244  43.048  55.219  1.00  0.00     0.189 HD
HETATM   11  N   UNL     1      30.152  44.620  55.860  1.00  0.00    -0.177 NA
HETATM   12  C   UNL     1      29.037  45.173  55.360  1.00  0.00     0.079 A 
HETATM   13  C   UNL     1      28.430  46.309  56.100  1.00  0.00     0.075 C 
ENDBRANCH   3   6
ENDBRANCH   1   2
BRANCH   1  14
HETATM   14  N   UNL     1      25.568  46.055  51.766  1.00  0.00     0.100 N 
HETATM   15  H   UNL     1      26.526  46.054  51.401  1.00  0.00     0.317 HD
BRANCH  14  16
HETATM   16  C   UNL     1      24.664  46.340  50.637  1.00  0.00     0.251 C 
HETATM   17  C   UNL     1      24.413  45.145  49.704  1.00  0.00     0.048 C 
BRANCH  16  18
HETATM   18  C   UNL     1      25.139  47.545  49.824  1.00  0.00    -0.002 A 
HETATM   19  C   UNL     1      24.287  48.483  49.198  1.00  0.00     0.064 A 
HETATM   20 CL   UNL     1      22.559  48.292  49.254  1.00  0.00    -0.082 Cl
HETATM   21  C   UNL     1      24.837  49.593  48.527  1.00  0.00     0.056 A 
HETATM   22 CL   UNL     1      23.858  50.787  47.739  1.00  0.00    -0.083 Cl
HETATM   23  C   UNL     1      26.220  49.780  48.478  1.00  0.00     0.026 A 
HETATM   24  C   UNL     1      27.067  48.865  49.089  1.00  0.00     0.002 A 
HETATM   25  C   UNL     1      26.534  47.761  49.753  1.00  0.00     0.011 A 
ENDBRANCH  16  18
ENDBRANCH  14  16
ENDBRANCH   1  14
TORSDOF 5
ENDMDL
MODEL 8
REMARK VINA RESULT:      -7.5      1.664      2.670
REMARK  5 active torsions:
REMARK  status: ('A' for Active; 'I' for Inactive)
REMARK    1  A    between atoms: C_8  and  N_9 
REMARK       I    between atoms: N_9  and  C_10 
REMARK    2  A    between atoms: C_10  and  C_11 
REMARK    3  A    between atoms: C_11  and  N_12 
REMARK    4  A    between atoms: N_12  and  C_13 
REMARK    5  A    between atoms: C_13  and  C_14 
ROOT
HETATM    1  C   UNL     1      24.518  45.571  50.834  1.00  0.00     0.372 C 
ENDROOT
BRANCH   1   2
HETATM    2  C   UNL     1      24.071  46.390  49.616  1.00  0.00     0.250 C 
HETATM    3  N   UNL     1      24.200  47.748  49.804  1.00  0.00    -0.322 N 
HETATM    4  H   UNL     1      24.624  48.022  50.685  1.00  0.00     0.169 HD
HETATM    5  O   UNL     1      23.710  45.819  48.593  1.00  0.00    -0.271 OA
BRANCH   3   6
HETATM    6  C   UNL     1      23.857  48.753  48.916  1.00  0.00     0.085 A 
HETATM    7  C   UNL     1      22.542  49.017  48.585  1.00  0.00     0.052 A 
HETATM    8  C   UNL     1      21.256  48.422  49.019  1.00  0.00     0.072 C 
HETATM    9  N   UNL     1      22.580  50.055  47.698  1.00  0.00    -0.280 N 
HETATM   10  H   UNL     1      21.803  50.523  47.245  1.00  0.00     0.189 HD
HETATM   11  N   UNL     1      23.814  50.479  47.415  1.00  0.00    -0.177 NA
HETATM   12  C   UNL     1      24.613  49.689  48.147  1.00  0.00     0.079 A 
HETATM   13  C   UNL     1      26.082  49.869  48.016  1.00  0.00     0.075 C 
ENDBRANCH   3   6
ENDBRANCH   1   2
BRANCH   1  14
HETATM   14  N   UNL     1      25.905  45.901  51.232  1.00  0.00     0.100 N 
HETATM   15  H   UNL     1      25.915  46.870  51.568  1.00  0.00     0.317 HD
BRANCH  14  16
HETATM   16  C   UNL     1      26.381  45.045  52.333  1.00  0.00     0.251 C 
HETATM   17  C   UNL     1      25.416  43.915  52.725  1.00  0.00     0.048 C 
BRANCH  16  18
HETATM   18  C   UNL     1      26.749  45.867  53.569  1.00  0.00    -0.002 A 
HETATM   19  C   UNL     1      27.796  45.553  54.466  1.00  0.00     0.064 A 
HETATM   20 CL   UNL     1      28.743  44.109  54.257  1.00  0.00    -0.082 Cl
HETATM   21  C   UNL     1      28.087  46.419  55.538  1.00  0.00     0.056 A 
HETATM   22 CL   UNL     1      29.356  46.105  56.675  1.00  0.00    -0.083 Cl
HETATM   23  C   UNL     1      27.353  47.593  55.721  1.00  0.00     0.026 A 
HETATM   24  C   UNL     1      26.322  47.912  54.847  1.00  0.00     0.002 A 
HETATM   25  C   UNL     1      26.023  47.060  53.785  1.00  0.00     0.011 A 
ENDBRANCH  16  18
ENDBRANCH  14  16
ENDBRANCH   1  14
TORSDOF 5
ENDMDL
MODEL 9
REMARK VINA RESULT:      -7.4      5.510      7.237
REMARK  5 active torsions:
REMARK  status: ('A' for Active; 'I' for Inactive)
REMARK    1  A    between atoms: C_8  and  N_9 
REMARK       I    between atoms: N_9  and  C_10 
REMARK    2  A    between atoms: C_10  and  C_11 
REMARK    3  A    between atoms: C_11  and  N_12 
REMARK    4  A    between atoms: N_12  and  C_13 
REMARK    5  A    between atoms: C_13  and  C_14 
ROOT
HETATM    1  C   UNL     1      27.762  42.322  51.454  1.00  0.00     0.372 C 
ENDROOT
BRANCH   1   2
HETATM    2  C   UNL     1      27.537  41.009  50.693  1.00  0.00     0.250 C 
HETATM    3  N   UNL     1      28.644  40.601  49.982  1.00  0.00    -0.322 N 
HETATM    4  H   UNL     1      29.469  41.180  50.103  1.00  0.00     0.169 HD
HETATM    5  O   UNL     1      26.474  40.408  50.809  1.00  0.00    -0.271 OA
BRANCH   3   6
HETATM    6  C   UNL     1      28.755  39.484  49.173  1.00  0.00     0.085 A 
HETATM    7  C   UNL     1      29.352  38.319  49.616  1.00  0.00     0.052 A 
HETATM    8  C   UNL     1      29.958  37.928  50.910  1.00  0.00     0.072 C 
HETATM    9  N   UNL     1      29.286  37.444  48.569  1.00  0.00    -0.280 N 
HETATM   10  H   UNL     1      29.619  36.486  48.530  1.00  0.00     0.189 HD
HETATM   11  N   UNL     1      28.708  37.948  47.477  1.00  0.00    -0.177 NA
HETATM   12  C   UNL     1      28.380  39.202  47.825  1.00  0.00     0.079 A 
HETATM   13  C   UNL     1      27.754  40.069  46.794  1.00  0.00     0.075 C 
ENDBRANCH   3   6
ENDBRANCH   1   2
BRANCH   1  14
HETATM   14  N   UNL     1      29.112  42.374  52.060  1.00  0.00     0.100 N 
HETATM   15  H   UNL     1      29.465  43.331  51.962  1.00  0.00     0.317 HD
BRANCH  14  16
HETATM   16  C   UNL     1      29.083  42.057  53.498  1.00  0.00     0.251 C 
HETATM   17  C   UNL     1      27.755  41.460  53.992  1.00  0.00     0.048 C 
BRANCH  16  18
HETATM   18  C   UNL     1      29.458  43.269  54.352  1.00  0.00    -0.002 A 
HETATM   19  C   UNL     1      28.697  44.458  54.446  1.00  0.00     0.064 A 
HETATM   20 CL   UNL     1      27.249  44.664  53.505  1.00  0.00    -0.082 Cl
HETATM   21  C   UNL     1      29.107  45.486  55.316  1.00  0.00     0.056 A 
HETATM   22 CL   UNL     1      28.227  46.969  55.489  1.00  0.00    -0.083 Cl
HETATM   23  C   UNL     1      30.258  45.342  56.095  1.00  0.00     0.026 A 
HETATM   24  C   UNL     1      31.013  44.180  56.011  1.00  0.00     0.002 A 
HETATM   25  C   UNL     1      30.618  43.156  55.150  1.00  0.00     0.011 A 
ENDBRANCH  16  18
ENDBRANCH  14  16
ENDBRANCH   1  14
TORSDOF 5
ENDMDL
MODEL 10
REMARK VINA RESULT:      -7.4      2.548      3.573
REMARK  5 active torsions:
REMARK  status: ('A' for Active; 'I' for Inactive)
REMARK    1  A    between atoms: C_8  and  N_9 
REMARK       I    between atoms: N_9  and  C_10 
REMARK    2  A    between atoms: C_10  and  C_11 
REMARK    3  A    between atoms: C_11  and  N_12 
REMARK    4  A    between atoms: N_12  and  C_13 
REMARK    5  A    between atoms: C_13  and  C_14 
ROOT
HETATM    1  C   UNL     1      25.903  42.659  51.200  1.00  0.00     0.372 C 
ENDROOT
BRANCH   1   2
HETATM    2  C   UNL     1      24.960  43.869  51.183  1.00  0.00     0.250 C 
HETATM    3  N   UNL     1      25.000  44.567  49.996  1.00  0.00    -0.322 N 
HETATM    4  H   UNL     1      25.593  44.160  49.279  1.00  0.00     0.169 HD
HETATM    5  O   UNL     1      24.227  44.088  52.141  1.00  0.00    -0.271 OA
BRANCH   3   6
HETATM    6  C   UNL     1      24.299  45.715  49.675  1.00  0.00     0.085 A 
HETATM    7  C   UNL     1      23.016  45.668  49.163  1.00  0.00     0.052 A 
HETATM    8  C   UNL     1      22.096  44.548  48.857  1.00  0.00     0.072 C 
HETATM    9  N   UNL     1      22.643  46.967  48.967  1.00  0.00    -0.280 N 
HETATM   10  H   UNL     1      21.762  47.321  48.610  1.00  0.00     0.189 HD
HETATM   11  N   UNL     1      23.584  47.856  49.296  1.00  0.00    -0.177 NA
HETATM   12  C   UNL     1      24.611  47.108  49.727  1.00  0.00     0.079 A 
HETATM   13  C   UNL     1      25.861  47.804  50.125  1.00  0.00     0.075 C 
ENDBRANCH   3   6
ENDBRANCH   1   2
BRANCH   1  14
HETATM   14  N   UNL     1      26.666  42.583  52.466  1.00  0.00     0.100 N 
HETATM   15  H   UNL     1      26.517  41.652  52.870  1.00  0.00     0.317 HD
BRANCH  14  16
HETATM   16  C   UNL     1      28.114  42.745  52.247  1.00  0.00     0.251 C 
HETATM   17  C   UNL     1      28.853  41.447  51.884  1.00  0.00     0.048 C 
BRANCH  16  18
HETATM   18  C   UNL     1      28.795  43.415  53.442  1.00  0.00    -0.002 A 
HETATM   19  C   UNL     1      28.379  44.632  54.030  1.00  0.00     0.064 A 
HETATM   20 CL   UNL     1      27.045  45.530  53.370  1.00  0.00    -0.082 Cl
HETATM   21  C   UNL     1      29.044  45.123  55.171  1.00  0.00     0.056 A 
HETATM   22 CL   UNL     1      28.592  46.604  55.950  1.00  0.00    -0.083 Cl
HETATM   23  C   UNL     1      30.110  44.416  55.732  1.00  0.00     0.026 A 
HETATM   24  C   UNL     1      30.527  43.220  55.162  1.00  0.00     0.002 A 
HETATM   25  C   UNL     1      29.879  42.726  54.031  1.00  0.00     0.011 A 
ENDBRANCH  16  18
ENDBRANCH  14  16
ENDBRANCH   1  14
TORSDOF 5
ENDMDL
