MODEL 1
REMARK VINA RESULT:      -9.7      0.000      0.000
REMARK  4 active torsions:
REMARK  status: ('A' for Active; 'I' for Inactive)
REMARK    1  A    between atoms: C_9  and  C_10 
REMARK       I    between atoms: C_10  and  N_11 
REMARK    2  A    between atoms: N_11  and  C_12 
REMARK    3  A    between atoms: C_14  and  C_15 
REMARK       I    between atoms: C_15  and  N_16 
REMARK    4  A    between atoms: N_16  and  C_17 
ROOT
HETATM    1  C   UNL     1      26.131  45.888  51.774  1.00  0.00     0.277 C 
HETATM    2  N   UNL     1      26.409  46.230  50.462  1.00  0.00    -0.322 N 
HETATM    3  O   UNL     1      25.618  46.616  52.618  1.00  0.00    -0.266 OA
HETATM    4  H   UNL     1      26.842  45.474  49.938  1.00  0.00     0.169 HD
ENDROOT
BRANCH   2   5
HETATM    5  C   UNL     1      26.170  47.446  49.802  1.00  0.00     0.036 A 
HETATM    6  C   UNL     1      24.895  47.922  49.486  1.00  0.00     0.046 A 
HETATM    7  C   UNL     1      24.742  49.136  48.800  1.00  0.00     0.034 A 
HETATM    8  C   UNL     1      25.868  49.899  48.472  1.00  0.00     0.017 A 
HETATM    9  C   UNL     1      27.142  49.434  48.793  1.00  0.00     0.003 A 
HETATM   10  C   UNL     1      27.291  48.209  49.446  1.00  0.00     0.029 A 
BRANCH   7  11
HETATM   11  C   UNL     1      23.402  49.656  48.410  1.00  0.00     0.252 C 
HETATM   12  N   UNL     1      22.424  49.610  49.386  1.00  0.00    -0.352 N 
HETATM   13  H   UNL     1      22.629  49.165  50.272  1.00  0.00     0.163 HD
HETATM   14  O   UNL     1      23.213  50.052  47.264  1.00  0.00    -0.268 OA
BRANCH  12  15
HETATM   15  C   UNL     1      21.081  50.042  49.154  1.00  0.00     0.084 A 
HETATM   16  C   UNL     1      20.387  50.935  50.146  1.00  0.00     0.027 A 
HETATM   17  C   UNL     1      20.798  51.478  48.809  1.00  0.00     0.027 A 
ENDBRANCH  12  15
ENDBRANCH   7  11
ENDBRANCH   2   5
BRANCH   1  18
HETATM   18  C   UNL     1      26.531  44.499  52.070  1.00  0.00     0.157 A 
HETATM   19  C   UNL     1      27.528  44.059  52.988  1.00  0.00     0.029 A 
HETATM   20  C   UNL     1      28.441  44.673  53.868  1.00  0.00     0.023 A 
HETATM   21  C   UNL     1      27.509  42.672  52.904  1.00  0.00     0.063 A 
HETATM   22  C   UNL     1      29.313  43.876  54.629  1.00  0.00    -0.061 A 
HETATM   23  C   UNL     1      30.301  44.509  55.566  1.00  0.00     0.048 C 
HETATM   24  C   UNL     1      29.250  42.480  54.524  1.00  0.00     0.009 A 
HETATM   25  C   UNL     1      28.348  41.849  53.659  1.00  0.00     0.032 A 
HETATM   26  N   UNL     1      26.546  42.379  51.979  1.00  0.00    -0.277 N 
HETATM   27  H   UNL     1      26.258  41.459  51.666  1.00  0.00     0.189 HD
HETATM   28  N   UNL     1      25.945  43.455  51.438  1.00  0.00    -0.168 NA
ENDBRANCH   1  18
TORSDOF 4
ENDMDL
MODEL 2
REMARK VINA RESULT:      -9.3      5.408      8.119
REMARK  4 active torsions:
REMARK  status: ('A' for Active; 'I' for Inactive)
REMARK    1  A    between atoms: C_9  and  C_10 
REMARK       I    between atoms: C_10  and  N_11 
REMARK    2  A    between atoms: N_11  and  C_12 
REMARK    3  A    between atoms: C_14  and  C_15 
REMARK       I    between atoms: C_15  and  N_16 
REMARK    4  A    between atoms: N_16  and  C_17 
ROOT
HETATM    1  C   UNL     1      28.130  43.990  52.949  1.00  0.00     0.277 C 
HETATM    2  N   UNL     1      26.821  43.600  52.728  1.00  0.00    -0.322 N 
HETATM    3  O   UNL     1      29.101  43.685  52.264  1.00  0.00    -0.266 OA
HETATM    4  H   UNL     1      26.175  43.964  53.425  1.00  0.00     0.169 HD
ENDROOT
BRANCH   2   5
HETATM    5  C   UNL     1      26.305  42.798  51.697  1.00  0.00     0.036 A 
HETATM    6  C   UNL     1      26.883  41.594  51.287  1.00  0.00     0.046 A 
HETATM    7  C   UNL     1      26.323  40.863  50.229  1.00  0.00     0.034 A 
HETATM    8  C   UNL     1      25.150  41.315  49.613  1.00  0.00     0.017 A 
HETATM    9  C   UNL     1      24.564  42.510  50.025  1.00  0.00     0.003 A 
HETATM   10  C   UNL     1      25.145  43.251  51.056  1.00  0.00     0.029 A 
BRANCH   7  11
HETATM   11  C   UNL     1      26.933  39.597  49.736  1.00  0.00     0.252 C 
HETATM   12  N   UNL     1      28.060  39.163  50.410  1.00  0.00    -0.352 N 
HETATM   13  H   UNL     1      28.458  39.745  51.136  1.00  0.00     0.163 HD
HETATM   14  O   UNL     1      26.456  39.031  48.759  1.00  0.00    -0.268 OA
BRANCH  12  15
HETATM   15  C   UNL     1      28.776  37.984  50.035  1.00  0.00     0.084 A 
HETATM   16  C   UNL     1      30.192  38.082  49.534  1.00  0.00     0.027 A 
HETATM   17  C   UNL     1      29.914  37.489  50.884  1.00  0.00     0.027 A 
ENDBRANCH  12  15
ENDBRANCH   7  11
ENDBRANCH   2   5
BRANCH   1  18
HETATM   18  C   UNL     1      28.247  44.847  54.144  1.00  0.00     0.157 A 
HETATM   19  C   UNL     1      29.186  44.729  55.210  1.00  0.00     0.029 A 
HETATM   20  C   UNL     1      30.242  43.857  55.541  1.00  0.00     0.023 A 
HETATM   21  C   UNL     1      28.886  45.776  56.073  1.00  0.00     0.063 A 
HETATM   22  C   UNL     1      30.959  44.058  56.734  1.00  0.00    -0.061 A 
HETATM   23  C   UNL     1      32.081  43.135  57.112  1.00  0.00     0.048 C 
HETATM   24  C   UNL     1      30.631  45.134  57.569  1.00  0.00     0.009 A 
HETATM   25  C   UNL     1      29.589  46.015  57.257  1.00  0.00     0.032 A 
HETATM   26  N   UNL     1      27.830  46.427  55.499  1.00  0.00    -0.277 N 
HETATM   27  H   UNL     1      27.350  47.245  55.855  1.00  0.00     0.189 HD
HETATM   28  N   UNL     1      27.402  45.886  54.343  1.00  0.00    -0.168 NA
ENDBRANCH   1  18
TORSDOF 4
ENDMDL
MODEL 3
REMARK VINA RESULT:      -9.3      1.702      2.404
REMARK  4 active torsions:
REMARK  status: ('A' for Active; 'I' for Inactive)
REMARK    1  A    between atoms: C_9  and  C_10 
REMARK       I    between atoms: C_10  and  N_11 
REMARK    2  A    between atoms: N_11  and  C_12 
REMARK    3  A    between atoms: C_14  and  C_15 
REMARK       I    between atoms: C_15  and  N_16 
REMARK    4  A    between atoms: N_16  and  C_17 
ROOT
HETATM    1  C   UNL     1      25.883  44.240  52.080  1.00  0.00     0.277 C 
HETATM    2  N   UNL     1      25.928  44.808  50.820  1.00  0.00    -0.322 N 
HETATM    3  O   UNL     1      24.914  44.227  52.833  1.00  0.00    -0.266 OA
HETATM    4  H   UNL     1      26.837  44.710  50.372  1.00  0.00     0.169 HD
ENDROOT
BRANCH   2   5
HETATM    5  C   UNL     1      24.910  45.474  50.119  1.00  0.00     0.036 A 
HETATM    6  C   UNL     1      24.747  46.862  50.116  1.00  0.00     0.046 A 
HETATM    7  C   UNL     1      23.686  47.450  49.412  1.00  0.00     0.034 A 
HETATM    8  C   UNL     1      22.813  46.647  48.668  1.00  0.00     0.017 A 
HETATM    9  C   UNL     1      22.976  45.264  48.660  1.00  0.00     0.003 A 
HETATM   10  C   UNL     1      24.014  44.681  49.390  1.00  0.00     0.029 A 
BRANCH   7  11
HETATM   11  C   UNL     1      23.456  48.921  49.419  1.00  0.00     0.252 C 
HETATM   12  N   UNL     1      22.162  49.332  49.682  1.00  0.00    -0.352 N 
HETATM   13  H   UNL     1      21.431  48.638  49.778  1.00  0.00     0.163 HD
HETATM   14  O   UNL     1      24.380  49.683  49.157  1.00  0.00    -0.268 OA
BRANCH  12  15
HETATM   15  C   UNL     1      21.777  50.709  49.692  1.00  0.00     0.084 A 
HETATM   16  C   UNL     1      20.933  51.270  48.579  1.00  0.00     0.027 A 
HETATM   17  C   UNL     1      20.346  51.091  49.948  1.00  0.00     0.027 A 
ENDBRANCH  12  15
ENDBRANCH   7  11
ENDBRANCH   2   5
BRANCH   1  18
HETATM   18  C   UNL     1      27.173  43.626  52.446  1.00  0.00     0.157 A 
HETATM   19  C   UNL     1      28.034  43.987  53.523  1.00  0.00     0.029 A 
HETATM   20  C   UNL     1      28.032  44.959  54.543  1.00  0.00     0.023 A 
HETATM   21  C   UNL     1      29.104  43.103  53.443  1.00  0.00     0.063 A 
HETATM   22  C   UNL     1      29.108  45.019  55.445  1.00  0.00    -0.061 A 
HETATM   23  C   UNL     1      29.132  46.054  56.533  1.00  0.00     0.048 C 
HETATM   24  C   UNL     1      30.160  44.100  55.336  1.00  0.00     0.009 A 
HETATM   25  C   UNL     1      30.180  43.123  54.334  1.00  0.00     0.032 A 
HETATM   26  N   UNL     1      28.832  42.303  52.368  1.00  0.00    -0.277 N 
HETATM   27  H   UNL     1      29.398  41.540  52.015  1.00  0.00     0.189 HD
HETATM   28  N   UNL     1      27.685  42.598  51.728  1.00  0.00    -0.168 NA
ENDBRANCH   1  18
TORSDOF 4
ENDMDL
MODEL 4
REMARK VINA RESULT:      -9.3      1.239      1.456
REMARK  4 active torsions:
REMARK  status: ('A' for Active; 'I' for Inactive)
REMARK    1  A    between atoms: C_9  and  C_10 
REMARK       I    between atoms: C_10  and  N_11 
REMARK    2  A    between atoms: N_11  and  C_12 
REMARK    3  A    between atoms: C_14  and  C_15 
REMARK       I    between atoms: C_15  and  N_16 
REMARK    4  A    between atoms: N_16  and  C_17 
ROOT
HETATM    1  C   UNL     1      25.740  46.433  52.005  1.00  0.00     0.277 C 
HETATM    2  N   UNL     1      25.653  46.585  50.633  1.00  0.00    -0.322 N 
HETATM    3  O   UNL     1      25.426  47.268  52.847  1.00  0.00    -0.266 OA
HETATM    4  H   UNL     1      25.975  45.767  50.121  1.00  0.00     0.169 HD
ENDROOT
BRANCH   2   5
HETATM    5  C   UNL     1      25.190  47.690  49.900  1.00  0.00     0.036 A 
HETATM    6  C   UNL     1      23.838  47.999  49.729  1.00  0.00     0.046 A 
HETATM    7  C   UNL     1      23.456  49.106  48.958  1.00  0.00     0.034 A 
HETATM    8  C   UNL     1      24.434  49.936  48.396  1.00  0.00     0.017 A 
HETATM    9  C   UNL     1      25.783  49.638  48.571  1.00  0.00     0.003 A 
HETATM   10  C   UNL     1      26.158  48.516  49.311  1.00  0.00     0.029 A 
BRANCH   7  11
HETATM   11  C   UNL     1      22.026  49.443  48.719  1.00  0.00     0.252 C 
HETATM   12  N   UNL     1      21.124  48.963  49.651  1.00  0.00    -0.352 N 
HETATM   13  H   UNL     1      21.452  48.355  50.390  1.00  0.00     0.163 HD
HETATM   14  O   UNL     1      21.708  50.075  47.717  1.00  0.00    -0.268 OA
BRANCH  12  15
HETATM   15  C   UNL     1      19.715  49.176  49.542  1.00  0.00     0.084 A 
HETATM   16  C   UNL     1      18.750  48.075  49.890  1.00  0.00     0.027 A 
HETATM   17  C   UNL     1      18.867  49.278  50.780  1.00  0.00     0.027 A 
ENDBRANCH  12  15
ENDBRANCH   7  11
ENDBRANCH   2   5
BRANCH   1  18
HETATM   18  C   UNL     1      26.274  45.107  52.371  1.00  0.00     0.157 A 
HETATM   19  C   UNL     1      27.279  44.811  53.338  1.00  0.00     0.029 A 
HETATM   20  C   UNL     1      28.091  45.553  54.218  1.00  0.00     0.023 A 
HETATM   21  C   UNL     1      27.409  43.428  53.312  1.00  0.00     0.063 A 
HETATM   22  C   UNL     1      29.015  44.883  55.039  1.00  0.00    -0.061 A 
HETATM   23  C   UNL     1      29.898  45.654  55.977  1.00  0.00     0.048 C 
HETATM   24  C   UNL     1      29.104  43.486  54.990  1.00  0.00     0.009 A 
HETATM   25  C   UNL     1      28.304  42.729  54.126  1.00  0.00     0.032 A 
HETATM   26  N   UNL     1      26.515  42.998  52.370  1.00  0.00    -0.277 N 
HETATM   27  H   UNL     1      26.337  42.041  52.089  1.00  0.00     0.189 HD
HETATM   28  N   UNL     1      25.824  43.983  51.767  1.00  0.00    -0.168 NA
ENDBRANCH   1  18
TORSDOF 4
ENDMDL
MODEL 5
REMARK VINA RESULT:      -9.1      2.123      3.058
REMARK  4 active torsions:
REMARK  status: ('A' for Active; 'I' for Inactive)
REMARK    1  A    between atoms: C_9  and  C_10 
REMARK       I    between atoms: C_10  and  N_11 
REMARK    2  A    between atoms: N_11  and  C_12 
REMARK    3  A    between atoms: C_14  and  C_15 
REMARK       I    between atoms: C_15  and  N_16 
REMARK    4  A    between atoms: N_16  and  C_17 
ROOT
HETATM    1  C   UNL     1      26.381  46.453  53.786  1.00  0.00     0.277 C 
HETATM    2  N   UNL     1      26.445  46.051  52.464  1.00  0.00    -0.322 N 
HETATM    3  O   UNL     1      25.451  47.055  54.314  1.00  0.00    -0.266 OA
HETATM    4  H   UNL     1      27.313  45.571  52.237  1.00  0.00     0.169 HD
ENDROOT
BRANCH   2   5
HETATM    5  C   UNL     1      25.492  46.220  51.447  1.00  0.00     0.036 A 
HETATM    6  C   UNL     1      25.189  47.453  50.863  1.00  0.00     0.046 A 
HETATM    7  C   UNL     1      24.203  47.544  49.870  1.00  0.00     0.034 A 
HETATM    8  C   UNL     1      23.553  46.387  49.425  1.00  0.00     0.017 A 
HETATM    9  C   UNL     1      23.858  45.154  49.997  1.00  0.00     0.003 A 
HETATM   10  C   UNL     1      24.816  45.074  51.009  1.00  0.00     0.029 A 
BRANCH   7  11
HETATM   11  C   UNL     1      23.824  48.845  49.254  1.00  0.00     0.252 C 
HETATM   12  N   UNL     1      22.634  49.399  49.689  1.00  0.00    -0.352 N 
HETATM   13  H   UNL     1      22.048  48.876  50.328  1.00  0.00     0.163 HD
HETATM   14  O   UNL     1      24.534  49.338  48.383  1.00  0.00    -0.268 OA
BRANCH  12  15
HETATM   15  C   UNL     1      22.119  50.627  49.169  1.00  0.00     0.084 A 
HETATM   16  C   UNL     1      21.057  50.616  48.102  1.00  0.00     0.027 A 
HETATM   17  C   UNL     1      20.715  51.056  49.495  1.00  0.00     0.027 A 
ENDBRANCH  12  15
ENDBRANCH   7  11
ENDBRANCH   2   5
BRANCH   1  18
HETATM   18  C   UNL     1      27.595  46.069  54.531  1.00  0.00     0.157 A 
HETATM   19  C   UNL     1      28.303  44.834  54.462  1.00  0.00     0.029 A 
HETATM   20  C   UNL     1      28.158  43.618  53.766  1.00  0.00     0.023 A 
HETATM   21  C   UNL     1      29.370  44.980  55.340  1.00  0.00     0.063 A 
HETATM   22  C   UNL     1      29.084  42.582  53.981  1.00  0.00    -0.061 A 
HETATM   23  C   UNL     1      28.943  41.273  53.258  1.00  0.00     0.048 C 
HETATM   24  C   UNL     1      30.153  42.777  54.865  1.00  0.00     0.009 A 
HETATM   25  C   UNL     1      30.319  43.979  55.563  1.00  0.00     0.032 A 
HETATM   26  N   UNL     1      29.240  46.237  55.861  1.00  0.00    -0.277 N 
HETATM   27  H   UNL     1      29.848  46.685  56.537  1.00  0.00     0.189 HD
HETATM   28  N   UNL     1      28.171  46.920  55.412  1.00  0.00    -0.168 NA
ENDBRANCH   1  18
TORSDOF 4
ENDMDL
MODEL 6
REMARK VINA RESULT:      -9.0      2.617      9.064
REMARK  4 active torsions:
REMARK  status: ('A' for Active; 'I' for Inactive)
REMARK    1  A    between atoms: C_9  and  C_10 
REMARK       I    between atoms: C_10  and  N_11 
REMARK    2  A    between atoms: N_11  and  C_12 
REMARK    3  A    between atoms: C_14  and  C_15 
REMARK       I    between atoms: C_15  and  N_16 
REMARK    4  A    between atoms: N_16  and  C_17 
ROOT
HETATM    1  C   UNL     1      26.314  46.987  50.305  1.00  0.00     0.277 C 
HETATM    2  N   UNL     1      26.075  47.202  51.650  1.00  0.00    -0.322 N 
HETATM    3  O   UNL     1      26.769  45.962  49.806  1.00  0.00    -0.266 OA
HETATM    4  H   UNL     1      25.701  48.128  51.844  1.00  0.00     0.169 HD
ENDROOT
BRANCH   2   5
HETATM    5  C   UNL     1      26.278  46.327  52.730  1.00  0.00     0.036 A 
HETATM    6  C   UNL     1      27.311  46.468  53.660  1.00  0.00     0.046 A 
HETATM    7  C   UNL     1      27.464  45.535  54.696  1.00  0.00     0.034 A 
HETATM    8  C   UNL     1      26.549  44.484  54.828  1.00  0.00     0.017 A 
HETATM    9  C   UNL     1      25.511  44.344  53.909  1.00  0.00     0.003 A 
HETATM   10  C   UNL     1      25.384  45.256  52.860  1.00  0.00     0.029 A 
BRANCH   7  11
HETATM   11  C   UNL     1      28.576  45.627  55.682  1.00  0.00     0.252 C 
HETATM   12  N   UNL     1      29.665  44.808  55.449  1.00  0.00    -0.352 N 
HETATM   13  H   UNL     1      29.629  44.142  54.687  1.00  0.00     0.163 HD
HETATM   14  O   UNL     1      28.469  46.369  56.653  1.00  0.00    -0.268 OA
BRANCH  12  15
HETATM   15  C   UNL     1      30.795  44.759  56.322  1.00  0.00     0.084 A 
HETATM   16  C   UNL     1      30.743  43.950  57.590  1.00  0.00     0.027 A 
HETATM   17  C   UNL     1      31.601  43.496  56.446  1.00  0.00     0.027 A 
ENDBRANCH  12  15
ENDBRANCH   7  11
ENDBRANCH   2   5
BRANCH   1  18
HETATM   18  C   UNL     1      25.953  48.165  49.494  1.00  0.00     0.157 A 
HETATM   19  C   UNL     1      24.645  48.618  49.152  1.00  0.00     0.029 A 
HETATM   20  C   UNL     1      23.326  48.186  49.393  1.00  0.00     0.023 A 
HETATM   21  C   UNL     1      24.846  49.763  48.392  1.00  0.00     0.063 A 
HETATM   22  C   UNL     1      22.250  48.913  48.856  1.00  0.00    -0.061 A 
HETATM   23  C   UNL     1      20.836  48.466  49.092  1.00  0.00     0.048 C 
HETATM   24  C   UNL     1      22.497  50.070  48.106  1.00  0.00     0.009 A 
HETATM   25  C   UNL     1      23.800  50.520  47.858  1.00  0.00     0.032 A 
HETATM   26  N   UNL     1      26.203  49.919  48.324  1.00  0.00    -0.277 N 
HETATM   27  H   UNL     1      26.711  50.656  47.849  1.00  0.00     0.189 HD
HETATM   28  N   UNL     1      26.907  48.964  48.961  1.00  0.00    -0.168 NA
ENDBRANCH   1  18
TORSDOF 4
ENDMDL
MODEL 7
REMARK VINA RESULT:      -8.5      4.131      7.451
REMARK  4 active torsions:
REMARK  status: ('A' for Active; 'I' for Inactive)
REMARK    1  A    between atoms: C_9  and  C_10 
REMARK       I    between atoms: C_10  and  N_11 
REMARK    2  A    between atoms: N_11  and  C_12 
REMARK    3  A    between atoms: C_14  and  C_15 
REMARK       I    between atoms: C_15  and  N_16 
REMARK    4  A    between atoms: N_16  and  C_17 
ROOT
HETATM    1  C   UNL     1      22.142  49.608  48.055  1.00  0.00     0.277 C 
HETATM    2  N   UNL     1      21.617  50.836  48.415  1.00  0.00    -0.322 N 
HETATM    3  O   UNL     1      21.502  48.628  47.685  1.00  0.00    -0.266 OA
HETATM    4  H   UNL     1      22.330  51.505  48.697  1.00  0.00     0.169 HD
ENDROOT
BRANCH   2   5
HETATM    5  C   UNL     1      20.275  51.247  48.432  1.00  0.00     0.036 A 
HETATM    6  C   UNL     1      19.453  51.268  47.303  1.00  0.00     0.046 A 
HETATM    7  C   UNL     1      18.128  51.718  47.398  1.00  0.00     0.034 A 
HETATM    8  C   UNL     1      17.610  52.104  48.640  1.00  0.00     0.017 A 
HETATM    9  C   UNL     1      18.422  52.076  49.771  1.00  0.00     0.003 A 
HETATM   10  C   UNL     1      19.750  51.659  49.665  1.00  0.00     0.029 A 
BRANCH   7  11
HETATM   11  C   UNL     1      17.235  51.794  46.209  1.00  0.00     0.252 C 
HETATM   12  N   UNL     1      17.298  52.965  45.475  1.00  0.00    -0.352 N 
HETATM   13  H   UNL     1      17.870  53.730  45.811  1.00  0.00     0.163 HD
HETATM   14  O   UNL     1      16.474  50.866  45.958  1.00  0.00    -0.268 OA
BRANCH  12  15
HETATM   15  C   UNL     1      16.479  53.201  44.327  1.00  0.00     0.084 A 
HETATM   16  C   UNL     1      16.967  54.089  43.215  1.00  0.00     0.027 A 
HETATM   17  C   UNL     1      16.854  52.609  42.997  1.00  0.00     0.027 A 
ENDBRANCH  12  15
ENDBRANCH   7  11
ENDBRANCH   2   5
BRANCH   1  18
HETATM   18  C   UNL     1      23.613  49.591  48.167  1.00  0.00     0.157 A 
HETATM   19  C   UNL     1      24.411  48.769  49.014  1.00  0.00     0.029 A 
HETATM   20  C   UNL     1      24.172  47.775  49.983  1.00  0.00     0.023 A 
HETATM   21  C   UNL     1      25.724  49.129  48.734  1.00  0.00     0.063 A 
HETATM   22  C   UNL     1      25.258  47.179  50.647  1.00  0.00    -0.061 A 
HETATM   23  C   UNL     1      25.026  46.124  51.691  1.00  0.00     0.048 C 
HETATM   24  C   UNL     1      26.566  47.562  50.324  1.00  0.00     0.009 A 
HETATM   25  C   UNL     1      26.827  48.544  49.362  1.00  0.00     0.032 A 
HETATM   26  N   UNL     1      25.636  50.104  47.780  1.00  0.00    -0.277 N 
HETATM   27  H   UNL     1      26.403  50.597  47.337  1.00  0.00     0.189 HD
HETATM   28  N   UNL     1      24.378  50.425  47.424  1.00  0.00    -0.168 NA
ENDBRANCH   1  18
TORSDOF 4
ENDMDL
MODEL 8
REMARK VINA RESULT:      -8.4      2.087      9.192
REMARK  4 active torsions:
REMARK  status: ('A' for Active; 'I' for Inactive)
REMARK    1  A    between atoms: C_9  and  C_10 
REMARK       I    between atoms: C_10  and  N_11 
REMARK    2  A    between atoms: N_11  and  C_12 
REMARK    3  A    between atoms: C_14  and  C_15 
REMARK       I    between atoms: C_15  and  N_16 
REMARK    4  A    between atoms: N_16  and  C_17 
ROOT
HETATM    1  C   UNL     1      23.618  47.569  49.452  1.00  0.00     0.277 C 
HETATM    2  N   UNL     1      24.780  47.579  50.201  1.00  0.00    -0.322 N 
HETATM    3  O   UNL     1      23.082  46.580  48.960  1.00  0.00    -0.266 OA
HETATM    4  H   UNL     1      25.050  48.511  50.505  1.00  0.00     0.169 HD
ENDROOT
BRANCH   2   5
HETATM    5  C   UNL     1      25.594  46.496  50.575  1.00  0.00     0.036 A 
HETATM    6  C   UNL     1      25.960  46.218  51.894  1.00  0.00     0.046 A 
HETATM    7  C   UNL     1      26.799  45.132  52.183  1.00  0.00     0.034 A 
HETATM    8  C   UNL     1      27.234  44.293  51.150  1.00  0.00     0.017 A 
HETATM    9  C   UNL     1      26.864  44.560  49.834  1.00  0.00     0.003 A 
HETATM   10  C   UNL     1      26.056  45.662  49.548  1.00  0.00     0.029 A 
BRANCH   7  11
HETATM   11  C   UNL     1      27.245  44.829  53.571  1.00  0.00     0.252 C 
HETATM   12  N   UNL     1      28.478  44.214  53.692  1.00  0.00    -0.352 N 
HETATM   13  H   UNL     1      28.975  43.931  52.857  1.00  0.00     0.163 HD
HETATM   14  O   UNL     1      26.510  45.088  54.517  1.00  0.00    -0.268 OA
BRANCH  12  15
HETATM   15  C   UNL     1      29.027  43.830  54.955  1.00  0.00     0.084 A 
HETATM   16  C   UNL     1      30.453  43.357  55.052  1.00  0.00     0.027 A 
HETATM   17  C   UNL     1      30.066  44.691  55.620  1.00  0.00     0.027 A 
ENDBRANCH  12  15
ENDBRANCH   7  11
ENDBRANCH   2   5
BRANCH   1  18
HETATM   18  C   UNL     1      23.061  48.926  49.295  1.00  0.00     0.157 A 
HETATM   19  C   UNL     1      21.688  49.299  49.216  1.00  0.00     0.029 A 
HETATM   20  C   UNL     1      20.450  48.626  49.233  1.00  0.00     0.023 A 
HETATM   21  C   UNL     1      21.696  50.682  49.086  1.00  0.00     0.063 A 
HETATM   22  C   UNL     1      19.259  49.362  49.110  1.00  0.00    -0.061 A 
HETATM   23  C   UNL     1      17.929  48.665  49.115  1.00  0.00     0.048 C 
HETATM   24  C   UNL     1      19.312  50.757  48.993  1.00  0.00     0.009 A 
HETATM   25  C   UNL     1      20.531  51.446  48.979  1.00  0.00     0.032 A 
HETATM   26  N   UNL     1      23.016  51.038  49.091  1.00  0.00    -0.277 N 
HETATM   27  H   UNL     1      23.396  51.975  49.017  1.00  0.00     0.189 HD
HETATM   28  N   UNL     1      23.872  50.005  49.197  1.00  0.00    -0.168 NA
ENDBRANCH   1  18
TORSDOF 4
ENDMDL
MODEL 9
REMARK VINA RESULT:      -8.3      1.654      2.482
REMARK  4 active torsions:
REMARK  status: ('A' for Active; 'I' for Inactive)
REMARK    1  A    between atoms: C_9  and  C_10 
REMARK       I    between atoms: C_10  and  N_11 
REMARK    2  A    between atoms: N_11  and  C_12 
REMARK    3  A    between atoms: C_14  and  C_15 
REMARK       I    between atoms: C_15  and  N_16 
REMARK    4  A    between atoms: N_16  and  C_17 
ROOT
HETATM    1  C   UNL     1      26.069  46.845  52.329  1.00  0.00     0.277 C 
HETATM    2  N   UNL     1      26.460  46.932  51.006  1.00  0.00    -0.322 N 
HETATM    3  O   UNL     1      25.376  47.659  52.933  1.00  0.00    -0.266 OA
HETATM    4  H   UNL     1      27.039  46.149  50.711  1.00  0.00     0.169 HD
ENDROOT
BRANCH   2   5
HETATM    5  C   UNL     1      26.162  47.930  50.064  1.00  0.00     0.036 A 
HETATM    6  C   UNL     1      24.867  48.235  49.638  1.00  0.00     0.046 A 
HETATM    7  C   UNL     1      24.654  49.230  48.673  1.00  0.00     0.034 A 
HETATM    8  C   UNL     1      25.739  49.956  48.169  1.00  0.00     0.017 A 
HETATM    9  C   UNL     1      27.032  49.663  48.597  1.00  0.00     0.003 A 
HETATM   10  C   UNL     1      27.242  48.648  49.533  1.00  0.00     0.029 A 
BRANCH   7  11
HETATM   11  C   UNL     1      23.293  49.555  48.164  1.00  0.00     0.252 C 
HETATM   12  N   UNL     1      22.235  49.008  48.866  1.00  0.00    -0.352 N 
HETATM   13  H   UNL     1      22.423  48.365  49.625  1.00  0.00     0.163 HD
HETATM   14  O   UNL     1      23.168  50.236  47.152  1.00  0.00    -0.268 OA
BRANCH  12  15
HETATM   15  C   UNL     1      20.871  49.202  48.482  1.00  0.00     0.084 A 
HETATM   16  C   UNL     1      20.050  48.044  47.982  1.00  0.00     0.027 A 
HETATM   17  C   UNL     1      19.761  48.642  49.327  1.00  0.00     0.027 A 
ENDBRANCH  12  15
ENDBRANCH   7  11
ENDBRANCH   2   5
BRANCH   1  18
HETATM   18  C   UNL     1      26.590  45.624  52.972  1.00  0.00     0.157 A 
HETATM   19  C   UNL     1      26.895  44.378  52.352  1.00  0.00     0.029 A 
HETATM   20  C   UNL     1      26.822  43.847  51.048  1.00  0.00     0.023 A 
HETATM   21  C   UNL     1      27.361  43.567  53.379  1.00  0.00     0.063 A 
HETATM   22  C   UNL     1      27.211  42.516  50.820  1.00  0.00    -0.061 A 
HETATM   23  C   UNL     1      27.132  41.926  49.441  1.00  0.00     0.048 C 
HETATM   24  C   UNL     1      27.688  41.738  51.882  1.00  0.00     0.009 A 
HETATM   25  C   UNL     1      27.773  42.246  53.184  1.00  0.00     0.032 A 
HETATM   26  N   UNL     1      27.307  44.342  54.504  1.00  0.00    -0.277 N 
HETATM   27  H   UNL     1      27.576  44.075  55.444  1.00  0.00     0.189 HD
HETATM   28  N   UNL     1      26.830  45.584  54.304  1.00  0.00    -0.168 NA
ENDBRANCH   1  18
TORSDOF 4
ENDMDL
MODEL 10
REMARK VINA RESULT:      -8.3      5.238      6.193
REMARK  4 active torsions:
REMARK  status: ('A' for Active; 'I' for Inactive)
REMARK    1  A    between atoms: C_9  and  C_10 
REMARK       I    between atoms: C_10  and  N_11 
REMARK    2  A    between atoms: N_11  and  C_12 
REMARK    3  A    between atoms: C_14  and  C_15 
REMARK       I    between atoms: C_15  and  N_16 
REMARK    4  A    between atoms: N_16  and  C_17 
ROOT
HETATM    1  C   UNL     1      28.226  43.808  52.849  1.00  0.00     0.277 C 
HETATM    2  N   UNL     1      26.931  43.393  52.593  1.00  0.00    -0.322 N 
HETATM    3  O   UNL     1      29.226  43.491  52.213  1.00  0.00    -0.266 OA
HETATM    4  H   UNL     1      26.255  43.773  53.251  1.00  0.00     0.169 HD
ENDROOT
BRANCH   2   5
HETATM    5  C   UNL     1      26.465  42.547  51.574  1.00  0.00     0.036 A 
HETATM    6  C   UNL     1      25.429  42.882  50.699  1.00  0.00     0.046 A 
HETATM    7  C   UNL     1      25.002  41.969  49.723  1.00  0.00     0.034 A 
HETATM    8  C   UNL     1      25.649  40.735  49.593  1.00  0.00     0.017 A 
HETATM    9  C   UNL     1      26.689  40.399  50.456  1.00  0.00     0.003 A 
HETATM   10  C   UNL     1      27.088  41.298  51.448  1.00  0.00     0.029 A 
BRANCH   7  11
HETATM   11  C   UNL     1      23.875  42.273  48.800  1.00  0.00     0.252 C 
HETATM   12  N   UNL     1      24.225  42.709  47.535  1.00  0.00    -0.352 N 
HETATM   13  H   UNL     1      25.201  42.874  47.320  1.00  0.00     0.163 HD
HETATM   14  O   UNL     1      22.718  42.171  49.195  1.00  0.00    -0.268 OA
BRANCH  12  15
HETATM   15  C   UNL     1      23.257  43.070  46.547  1.00  0.00     0.084 A 
HETATM   16  C   UNL     1      23.579  42.942  45.083  1.00  0.00     0.027 A 
HETATM   17  C   UNL     1      22.591  42.008  45.717  1.00  0.00     0.027 A 
ENDBRANCH  12  15
ENDBRANCH   7  11
ENDBRANCH   2   5
BRANCH   1  18
HETATM   18  C   UNL     1      28.287  44.709  54.015  1.00  0.00     0.157 A 
HETATM   19  C   UNL     1      29.201  44.656  55.108  1.00  0.00     0.029 A 
HETATM   20  C   UNL     1      30.272  43.828  55.497  1.00  0.00     0.023 A 
HETATM   21  C   UNL     1      28.848  45.723  55.926  1.00  0.00     0.063 A 
HETATM   22  C   UNL     1      30.950  44.092  56.700  1.00  0.00    -0.061 A 
HETATM   23  C   UNL     1      32.088  43.216  57.139  1.00  0.00     0.048 C 
HETATM   24  C   UNL     1      30.571  45.186  57.487  1.00  0.00     0.009 A 
HETATM   25  C   UNL     1      29.512  46.025  57.118  1.00  0.00     0.032 A 
HETATM   26  N   UNL     1      27.789  46.322  55.302  1.00  0.00    -0.277 N 
HETATM   27  H   UNL     1      27.277  47.139  55.616  1.00  0.00     0.189 HD
HETATM   28  N   UNL     1      27.408  45.729  54.156  1.00  0.00    -0.168 NA
ENDBRANCH   1  18
TORSDOF 4
ENDMDL
