REMARK  2 active torsions:
REMARK  status: ('A' for Active; 'I' for Inactive)
REMARK    1  A    between atoms: C_8  and  S_9 
REMARK    2  A    between atoms: S_9  and  C_10 
ROOT
HETATM    1  C   UNL     1       4.927   3.065   5.923  1.00  0.00     0.002 A 
HETATM    2  C   UNL     1       4.915   2.281   4.769  1.00  0.00     0.034 A 
HETATM    3  C   UNL     1       4.484   2.795   3.553  1.00  0.00     0.087 A 
HETATM    4  C   UNL     1       4.051   4.147   3.489  1.00  0.00     0.087 A 
HETATM    5  N   UNL     1       3.623   4.695   2.334  1.00  0.00    -0.232 NA
HETATM    6  C   UNL     1       3.658   3.904   1.243  1.00  0.00     0.164 A 
HETATM    7 CL   UNL     1       3.095   4.661  -0.190  1.00  0.00    -0.059 Cl
HETATM    8  C   UNL     1       4.076   2.587   1.304  1.00  0.00     0.165 A 
HETATM    9  N   UNL     1       4.477   2.003   2.461  1.00  0.00    -0.234 NA
HETATM   10  C   UNL     1       4.066   4.915   4.646  1.00  0.00     0.034 A 
HETATM   11  C   UNL     1       4.500   4.385   5.862  1.00  0.00     0.002 A 
ENDROOT
BRANCH   8  12
HETATM   12  S   UNL     1       4.123   1.484  -0.103  1.00  0.00     0.076 S 
HETATM   13  O   UNL     1       5.069   0.363   0.215  1.00  0.00    -0.251 OA
BRANCH  12  14
HETATM   14  C   UNL     1       2.426   0.782  -0.004  1.00  0.00     0.089 C 
HETATM   15  C   UNL     1       2.101   0.092   1.326  1.00  0.00     0.045 C 
HETATM   16  C   UNL     1       2.840  -1.223   1.528  1.00  0.00     0.233 C 
HETATM   17  N   UNL     1       2.587  -2.117   0.358  1.00  0.00    -0.075 N 
HETATM   18  H   UNL     1       1.606  -2.427   0.355  1.00  0.00     0.277 HD
HETATM   19  H   UNL     1       3.147  -2.972   0.491  1.00  0.00     0.277 HD
HETATM   20  C   UNL     1       2.948  -1.533  -0.966  1.00  0.00     0.233 C 
HETATM   21  C   UNL     1       2.224  -0.205  -1.166  1.00  0.00     0.045 C 
ENDBRANCH  12  14
ENDBRANCH   8  12
TORSDOF 2
