REMARK  6 active torsions:
REMARK  status: ('A' for Active; 'I' for Inactive)
REMARK    1  A    between atoms: C_4  and  C_5 
REMARK    2  A    between atoms: C_5  and  N_6 
REMARK    3  A    between atoms: C_8  and  C_9 
REMARK       I    between atoms: C_9  and  N_10 
REMARK    4  A    between atoms: N_13  and  C_15 
REMARK    5  A    between atoms: C_29  and  S_30 
REMARK    6  A    between atoms: S_30  and  C_31 
ROOT
HETATM    1  N   UNL     1       4.314  -2.660  -2.640  1.00  0.00    -0.053 N 
HETATM    2  H   UNL     1       3.615  -3.114  -3.243  1.00  0.00     0.281 HD
HETATM    3  C   UNL     1       3.585  -1.423  -2.050  1.00  0.00     0.281 C 
HETATM    4  C   UNL     1       4.074  -1.430  -0.606  1.00  0.00     0.060 C 
HETATM    5  C   UNL     1       4.019  -2.904  -0.218  1.00  0.00     0.083 C 
HETATM    6  C   UNL     1       4.565  -3.613  -1.461  1.00  0.00     0.252 C 
ENDROOT
BRANCH   3   7
HETATM    7  C   UNL     1       3.670  -0.063  -2.774  1.00  0.00     0.251 C 
HETATM    8  N   UNL     1       3.053   1.052  -2.209  1.00  0.00    -0.347 N 
HETATM    9  C   UNL     1       3.265   2.365  -2.829  1.00  0.00     0.153 C 
HETATM   10  C   UNL     1       1.923   1.045  -1.277  1.00  0.00     0.153 C 
HETATM   11  C   UNL     1       3.536   3.442  -1.766  1.00  0.00     0.255 C 
HETATM   12  N   UNL     1       2.453   3.480  -0.671  1.00  0.00    -0.063 N 
HETATM   13  H   UNL     1       1.603   3.863  -1.105  1.00  0.00     0.280 HD
HETATM   14  C   UNL     1       2.115   2.074  -0.148  1.00  0.00     0.255 C 
HETATM   15  O   UNL     1       4.263   0.042  -3.846  1.00  0.00    -0.271 OA
BRANCH  12  16
HETATM   16  C   UNL     1       2.864   4.421   0.494  1.00  0.00     0.196 C 
HETATM   17  C   UNL     1       3.226   5.847  -0.001  1.00  0.00     0.017 C 
HETATM   18  C   UNL     1       1.988   6.568  -0.566  1.00  0.00     0.011 C 
HETATM   19  C   UNL     1       3.764   6.655   1.199  1.00  0.00     0.011 C 
HETATM   20  C   UNL     1       0.901   6.678   0.515  1.00  0.00    -0.013 C 
HETATM   21  C   UNL     1       0.510   5.269   0.992  1.00  0.00     0.011 C 
HETATM   22  C   UNL     1       1.454   7.478   1.708  1.00  0.00     0.009 C 
HETATM   23  C   UNL     1       1.742   4.541   1.562  1.00  0.00     0.017 C 
HETATM   24  C   UNL     1       2.289   5.359   2.751  1.00  0.00     0.011 C 
HETATM   25  C   UNL     1       2.688   6.769   2.290  1.00  0.00    -0.013 C 
ENDBRANCH  12  16
ENDBRANCH   3   7
BRANCH   1  26
HETATM   26  C   UNL     1       5.515  -2.510  -3.567  1.00  0.00     0.274 C 
BRANCH  26  27
HETATM   27  C   UNL     1       6.832  -2.079  -2.965  1.00  0.00    -0.033 A 
HETATM   28  C   UNL     1       7.773  -3.047  -2.564  1.00  0.00     0.009 A 
HETATM   29  C   UNL     1       9.007  -2.676  -2.028  1.00  0.00     0.001 A 
HETATM   30  C   UNL     1       9.333  -1.330  -1.901  1.00  0.00     0.000 A 
HETATM   31  C   UNL     1       8.429  -0.358  -2.319  1.00  0.00     0.001 A 
HETATM   32  C   UNL     1       7.189  -0.729  -2.849  1.00  0.00     0.009 A 
ENDBRANCH  26  27
ENDBRANCH   1  26
BRANCH   5  33
HETATM   33  S   UNL     1       2.286  -3.387   0.146  1.00  0.00    -0.084 SA
BRANCH  33  34
HETATM   34  C   UNL     1       2.526  -5.106   0.543  1.00  0.00     0.188 A 
HETATM   35  N   UNL     1       3.758  -5.502   0.903  1.00  0.00    -0.235 NA
HETATM   36  C   UNL     1       3.891  -6.811   1.200  1.00  0.00     0.121 A 
HETATM   37  C   UNL     1       2.864  -7.720   1.099  1.00  0.00     0.038 A 
HETATM   38  C   UNL     1       1.661  -7.211   0.672  1.00  0.00     0.121 A 
HETATM   39  N   UNL     1       1.469  -5.909   0.379  1.00  0.00    -0.235 NA
ENDBRANCH  33  34
ENDBRANCH   5  33
TORSDOF 6
