REMARK  9 active torsions:
REMARK  status: ('A' for Active; 'I' for Inactive)
REMARK    1  A    between atoms: C_4  and  C_5 
REMARK    2  A    between atoms: C_16  and  C_17 
REMARK    3  A    between atoms: C_20  and  C_21 
REMARK    4  A    between atoms: C_21  and  N_22 
REMARK    5  A    between atoms: N_22  and  C_23 
REMARK    6  A    between atoms: C_23  and  N_24 
REMARK    7  A    between atoms: N_24  and  C_25 
REMARK    8  A    between atoms: C_27  and  C_28 
REMARK    9  A    between atoms: C_28  and  O_29 
ROOT
HETATM    1  C   UNL     1       2.779  -2.404   0.913  1.00  0.00     0.067 C 
HETATM    2  C   UNL     1       2.605  -3.588  -0.054  1.00  0.00     0.001 C 
HETATM    3  C   UNL     1       1.141  -3.740  -0.513  1.00  0.00     0.040 C 
HETATM    4  C   UNL     1       0.199  -4.051   0.662  1.00  0.00     0.206 C 
HETATM    5  N   UNL     1       1.004  -3.836   1.941  1.00  0.00    -0.065 N 
HETATM    6  H   UNL     1       0.379  -3.920   2.755  1.00  0.00     0.280 HD
HETATM    7  C   UNL     1       1.661  -2.455   1.981  1.00  0.00     0.246 C 
HETATM    8  C   UNL     1       2.926  -4.868   0.764  1.00  0.00     0.033 C 
HETATM    9  C   UNL     1       2.074  -4.916   2.043  1.00  0.00     0.236 C 
ENDROOT
BRANCH   4  10
HETATM   10  C   UNL     1      -1.110  -3.229   0.638  1.00  0.00     0.155 C 
BRANCH  10  11
HETATM   11  N   UNL     1      -1.863  -3.426  -0.600  1.00  0.00    -0.365 N 
HETATM   12  H   UNL     1      -2.170  -4.372  -0.806  1.00  0.00     0.161 HD
BRANCH  11  13
HETATM   13  C   UNL     1      -2.623  -2.488  -1.244  1.00  0.00     0.172 C 
HETATM   14  S   UNL     1      -2.974  -0.966  -0.655  1.00  0.00    -0.041 SA
BRANCH  13  15
HETATM   15  N   UNL     1      -3.156  -2.842  -2.451  1.00  0.00    -0.333 N 
HETATM   16  H   UNL     1      -3.875  -2.193  -2.765  1.00  0.00     0.168 HD
BRANCH  15  17
HETATM   17  C   UNL     1      -2.796  -3.836  -3.388  1.00  0.00     0.035 A 
HETATM   18  C   UNL     1      -1.611  -4.569  -3.332  1.00  0.00     0.047 A 
HETATM   19  C   UNL     1      -1.304  -5.533  -4.306  1.00  0.00     0.041 A 
HETATM   20  C   UNL     1      -2.185  -5.743  -5.370  1.00  0.00     0.018 A 
HETATM   21  C   UNL     1      -3.356  -4.990  -5.454  1.00  0.00     0.003 A 
HETATM   22  C   UNL     1      -3.657  -4.042  -4.471  1.00  0.00     0.029 A 
BRANCH  19  23
HETATM   23  C   UNL     1      -0.036  -6.294  -4.144  1.00  0.00     0.293 C 
HETATM   24  O   UNL     1       0.660  -6.214  -3.140  1.00  0.00    -0.259 OA
BRANCH  23  25
HETATM   25  O   UNL     1       0.217  -7.051  -5.235  1.00  0.00    -0.323 OA
HETATM   26  C   UNL     1       1.427  -7.808  -5.162  1.00  0.00     0.213 C 
ENDBRANCH  23  25
ENDBRANCH  19  23
ENDBRANCH  15  17
ENDBRANCH  13  15
ENDBRANCH  11  13
ENDBRANCH  10  11
ENDBRANCH   4  10
BRANCH   1  27
HETATM   27  C   UNL     1       2.993  -1.002   0.413  1.00  0.00     0.038 C 
HETATM   28  N   UNL     1       2.624  -0.370  -0.752  1.00  0.00    -0.277 N 
HETATM   29  C   UNL     1       2.053  -0.877  -1.977  1.00  0.00     0.179 C 
HETATM   30  N   UNL     1       2.815   0.960  -0.710  1.00  0.00    -0.172 NA
HETATM   31  C   UNL     1       3.480   1.200   0.423  1.00  0.00     0.089 C 
HETATM   32  C   UNL     1       3.635  -0.007   1.140  1.00  0.00     0.061 C 
BRANCH  31  33
HETATM   33  C   UNL     1       3.882   2.544   0.835  1.00  0.00    -0.005 A 
HETATM   34  C   UNL     1       4.947   2.730   1.729  1.00  0.00     0.026 A 
HETATM   35  C   UNL     1       5.282   4.008   2.206  1.00  0.00    -0.025 A 
HETATM   36  C   UNL     1       4.540   5.128   1.769  1.00  0.00    -0.026 A 
HETATM   37  C   UNL     1       6.333   4.195   3.119  1.00  0.00     0.012 A 
HETATM   38  C   UNL     1       3.498   4.942   0.848  1.00  0.00     0.013 A 
HETATM   39  C   UNL     1       4.858   6.400   2.267  1.00  0.00     0.012 A 
HETATM   40  C   UNL     1       3.174   3.664   0.385  1.00  0.00     0.014 A 
HETATM   41  C   UNL     1       5.898   6.567   3.184  1.00  0.00     0.001 A 
HETATM   42  C   UNL     1       6.637   5.467   3.606  1.00  0.00     0.001 A 
ENDBRANCH  31  33
ENDBRANCH   1  27
TORSDOF 9
