REMARK  3 active torsions:
REMARK  status: ('A' for Active; 'I' for Inactive)
REMARK    1  A    between atoms: C_4  and  N_5 
REMARK       I    between atoms: N_5  and  C_6 
REMARK    2  A    between atoms: C_6  and  C_7 
REMARK    3  A    between atoms: C_7  and  C_8 
ROOT
HETATM    1  C   UNL     1       1.267  -1.993  -0.036  1.00  0.00     0.286 C 
HETATM    2  N   UNL     1       0.878  -0.803  -0.912  1.00  0.00    -0.056 N 
HETATM    3  H   UNL     1       1.306   0.039  -0.472  1.00  0.00     0.278 HD
HETATM    4  H   UNL     1       1.304  -0.887  -1.843  1.00  0.00     0.278 HD
HETATM    5  C   UNL     1      -0.612  -0.674  -0.992  1.00  0.00     0.209 C 
HETATM    6  C   UNL     1      -1.171  -1.959  -1.646  1.00  0.00     0.115 C 
HETATM    7  N   UNL     1      -0.704  -3.173  -0.980  1.00  0.00    -0.353 N 
HETATM    8  C   UNL     1       0.588  -3.297  -0.506  1.00  0.00     0.249 C 
HETATM    9  O   UNL     1       1.107  -4.401  -0.402  1.00  0.00    -0.271 OA
HETATM   10  C   UNL     1      -1.002   0.561  -1.791  1.00  0.00     0.035 C 
HETATM   11  C   UNL     1      -2.527   0.654  -1.889  1.00  0.00     0.002 C 
HETATM   12  C   UNL     1      -3.154  -0.626  -2.448  1.00  0.00     0.002 C 
HETATM   13  C   UNL     1      -2.697  -1.884  -1.704  1.00  0.00     0.027 C 
HETATM   14  H   UNL     1      -1.087  -4.063  -1.296  1.00  0.00     0.163 HD
ENDROOT
BRANCH   1  15
HETATM   15  C   UNL     1       2.789  -2.141   0.060  1.00  0.00     0.146 C 
BRANCH  15  16
HETATM   16  C   UNL     1       3.382  -0.900   0.678  1.00  0.00     0.224 C 
HETATM   17  N   UNL     1       4.561  -0.910   1.350  1.00  0.00    -0.327 N 
HETATM   18  H   UNL     1       4.738  -0.026   1.820  1.00  0.00     0.169 HD
HETATM   19  O   UNL     1       2.758   0.166   0.575  1.00  0.00    -0.273 OA
BRANCH  17  20
HETATM   20  C   UNL     1       5.545  -1.895   1.556  1.00  0.00     0.034 A 
HETATM   21  C   UNL     1       5.693  -3.057   0.798  1.00  0.00     0.029 A 
HETATM   22  C   UNL     1       6.709  -3.973   1.095  1.00  0.00     0.002 A 
HETATM   23  C   UNL     1       7.593  -3.731   2.143  1.00  0.00     0.000 A 
HETATM   24  C   UNL     1       7.474  -2.563   2.887  1.00  0.00     0.002 A 
HETATM   25  C   UNL     1       6.462  -1.647   2.588  1.00  0.00     0.029 A 
ENDBRANCH  17  20
ENDBRANCH  15  16
ENDBRANCH   1  15
TORSDOF 3
