REMARK  6 active torsions:
REMARK  status: ('A' for Active; 'I' for Inactive)
REMARK    1  A    between atoms: N_4  and  C_5 
REMARK    2  A    between atoms: C_5  and  C_6 
REMARK    3  A    between atoms: C_6  and  C_7 
REMARK    4  A    between atoms: C_7  and  N_8 
REMARK       I    between atoms: N_8  and  C_9 
REMARK       I    between atoms: C_9  and  N_10 
REMARK    5  A    between atoms: N_10  and  C_11 
REMARK    6  A    between atoms: C_12  and  O_13 
ROOT
HETATM    1  N   UNL     1       9.706  -0.634   0.711  1.00  0.00    -0.343 N 
HETATM    2  C   UNL     1       9.842  -0.823  -0.647  1.00  0.00     0.320 C 
HETATM    3  N   UNL     1      10.942  -1.613  -0.919  1.00  0.00    -0.306 N 
HETATM    4  O   UNL     1       9.113  -0.290  -1.474  1.00  0.00    -0.247 OA
HETATM    5  H   UNL     1       9.990  -1.418   1.289  1.00  0.00     0.164 HD
HETATM    6  H   UNL     1      11.733  -1.367  -0.342  1.00  0.00     0.171 HD
ENDROOT
BRANCH   1   7
HETATM    7  C   UNL     1       8.661   0.209   1.252  1.00  0.00     0.126 C 
BRANCH   7   8
HETATM    8  C   UNL     1       7.241  -0.306   1.008  1.00  0.00     0.041 C 
BRANCH   8   9
HETATM    9  C   UNL     1       7.009  -1.753   1.431  1.00  0.00     0.152 C 
BRANCH   9  10
HETATM   10  N   UNL     1       7.211  -1.975   2.852  1.00  0.00    -0.272 N 
HETATM   11  N   UNL     1       8.433  -2.357   3.281  1.00  0.00    -0.176 NA
HETATM   12  C   UNL     1       8.277  -2.518   4.602  1.00  0.00     0.074 A 
HETATM   13  C   UNL     1       9.411  -2.972   5.443  1.00  0.00     0.074 C 
HETATM   14  C   UNL     1       6.959  -2.210   5.009  1.00  0.00     0.083 A 
HETATM   15  C   UNL     1       6.287  -1.853   3.860  1.00  0.00     0.050 A 
HETATM   16 CL   UNL     1       6.356  -2.284   6.593  1.00  0.00    -0.080 Cl
HETATM   17  C   UNL     1       4.880  -1.437   3.643  1.00  0.00     0.072 C 
ENDBRANCH   9  10
ENDBRANCH   8   9
ENDBRANCH   7   8
ENDBRANCH   1   7
BRANCH   3  18
HETATM   18  C   UNL     1      11.215  -2.105  -2.217  1.00  0.00     0.071 A 
HETATM   19  C   UNL     1      10.231  -2.738  -3.008  1.00  0.00     0.095 A 
HETATM   20  C   UNL     1      10.564  -3.163  -4.300  1.00  0.00     0.041 A 
HETATM   21  C   UNL     1      11.861  -2.986  -4.790  1.00  0.00     0.026 A 
HETATM   22  C   UNL     1      12.835  -2.406  -3.983  1.00  0.00     0.036 A 
HETATM   23 CL   UNL     1      14.435  -2.209  -4.587  1.00  0.00    -0.084 Cl
HETATM   24  C   UNL     1      12.524  -1.978  -2.695  1.00  0.00     0.056 A 
BRANCH  19  25
HETATM   25  O   UNL     1       9.021  -2.983  -2.409  1.00  0.00    -0.354 OA
HETATM   26  C   UNL     1       7.965  -3.460  -3.230  1.00  0.00     0.210 C 
ENDBRANCH  19  25
ENDBRANCH   3  18
TORSDOF 6
