REMARK  8 active torsions:
REMARK  status: ('A' for Active; 'I' for Inactive)
REMARK       I    between atoms: C_2  and  N_3 
REMARK    1  A    between atoms: N_3  and  C_4 
REMARK    2  A    between atoms: C_6  and  C_7 
REMARK    3  A    between atoms: C_7  and  N_8 
REMARK    4  A    between atoms: C_11  and  C_12 
REMARK    5  A    between atoms: C_14  and  S_15 
REMARK    6  A    between atoms: S_15  and  C_16 
REMARK    7  A    between atoms: C_16  and  C_17 
REMARK    8  A    between atoms: C_17  and  N_18 
ROOT
HETATM    1  N   UNL     1      -0.319  -1.957  -5.738  1.00  0.00    -0.066 N 
HETATM    2  H   UNL     1       0.335  -2.241  -6.480  1.00  0.00     0.280 HD
HETATM    3  C   UNL     1      -1.708  -2.235  -6.275  1.00  0.00     0.246 C 
HETATM    4  C   UNL     1      -2.002  -1.448  -7.556  1.00  0.00     0.064 C 
HETATM    5  C   UNL     1      -1.653   0.039  -7.412  1.00  0.00     0.014 C 
HETATM    6  C   UNL     1      -0.280   0.284  -6.797  1.00  0.00     0.028 C 
HETATM    7  C   UNL     1      -0.096  -0.482  -5.496  1.00  0.00     0.235 C 
ENDROOT
BRANCH   4   8
HETATM    8  C   UNL     1      -1.365  -2.081  -8.788  1.00  0.00     0.044 A 
HETATM    9  N   UNL     1      -0.012  -2.224  -8.836  1.00  0.00    -0.227 NA
HETATM   10  C   UNL     1       0.485  -2.662 -10.019  1.00  0.00     0.188 A 
HETATM   11  N   UNL     1      -0.245  -3.082 -11.058  1.00  0.00    -0.235 NA
HETATM   12  C   UNL     1      -1.575  -2.951 -10.959  1.00  0.00     0.121 A 
HETATM   13  C   UNL     1      -2.190  -2.438  -9.845  1.00  0.00     0.047 A 
BRANCH  10  14
HETATM   14  S   UNL     1       2.233  -2.607 -10.336  1.00  0.00    -0.088 SA
BRANCH  14  15
HETATM   15  C   UNL     1       2.927  -3.008  -8.715  1.00  0.00     0.110 C 
BRANCH  15  16
HETATM   16  C   UNL     1       2.791  -4.491  -8.367  1.00  0.00     0.245 C 
BRANCH  16  17
HETATM   17  N   UNL     1       3.393  -5.411  -9.401  1.00  0.00    -0.070 N 
HETATM   18  H   UNL     1       2.986  -5.170 -10.319  1.00  0.00     0.279 HD
HETATM   19  C   UNL     1       3.065  -6.875  -9.123  1.00  0.00     0.235 C 
HETATM   20  C   UNL     1       4.333  -7.410  -8.497  1.00  0.00     0.029 C 
HETATM   21  C   UNL     1       5.406  -6.754  -9.340  1.00  0.00     0.029 C 
HETATM   22  C   UNL     1       4.912  -5.329  -9.519  1.00  0.00     0.235 C 
ENDBRANCH  16  17
ENDBRANCH  15  16
ENDBRANCH  14  15
ENDBRANCH  10  14
ENDBRANCH   4   8
BRANCH   1  23
HETATM   23  C   UNL     1      -0.011  -2.772  -4.489  1.00  0.00     0.280 C 
BRANCH  23  24
HETATM   24  C   UNL     1       0.420  -4.173  -4.796  1.00  0.00     0.010 A 
HETATM   25  S   UNL     1      -0.729  -5.448  -4.880  1.00  0.00    -0.075 SA
HETATM   26  C   UNL     1       0.461  -6.578  -5.307  1.00  0.00     0.076 A 
HETATM   27  C   UNL     1       1.725  -6.044  -5.284  1.00  0.00     0.038 A 
HETATM   28  C   UNL     1       1.704  -4.650  -4.973  1.00  0.00     0.019 A 
BRANCH  26  29
HETATM   29  N   UNL     1      -0.012  -7.837  -5.584  1.00  0.00    -0.322 N 
HETATM   30  C   UNL     1       0.761  -8.802  -6.203  1.00  0.00     0.218 C 
HETATM   31  C   UNL     1       0.061 -10.131  -6.313  1.00  0.00     0.117 C 
HETATM   32  O   UNL     1       1.870  -8.608  -6.697  1.00  0.00    -0.274 OA
HETATM   33  H   UNL     1      -0.988  -8.031  -5.388  1.00  0.00     0.169 HD
ENDBRANCH  26  29
ENDBRANCH  23  24
ENDBRANCH   1  23
TORSDOF 8
