REMARK  6 active torsions:
REMARK  status: ('A' for Active; 'I' for Inactive)
REMARK    1  A    between atoms: C_2  and  C_3 
REMARK    2  A    between atoms: C_4  and  N_5 
REMARK       I    between atoms: N_5  and  C_6 
REMARK    3  A    between atoms: C_6  and  C_7 
REMARK    4  A    between atoms: C_7  and  N_8 
REMARK       I    between atoms: N_8  and  C_9 
REMARK    5  A    between atoms: C_9  and  C_10 
REMARK    6  A    between atoms: C_11  and  C_12 
ROOT
HETATM    1  N   UNL     1       2.151   5.177  -0.832  1.00  0.00    -0.348 N 
HETATM    2  C   UNL     1       3.187   5.230   0.083  1.00  0.00     0.255 C 
HETATM    3  O   UNL     1       3.042   4.870   1.245  1.00  0.00    -0.268 OA
HETATM    4  H   UNL     1       2.302   5.603  -1.735  1.00  0.00     0.163 HD
ENDROOT
BRANCH   1   5
HETATM    5  C   UNL     1       0.778   5.093  -0.352  1.00  0.00     0.226 C 
BRANCH   5   6
HETATM    6  C   UNL     1       0.293   3.717   0.134  1.00  0.00     0.239 C 
HETATM    7  N   UNL     1       1.127   2.674  -0.227  1.00  0.00    -0.325 N 
HETATM    8  H   UNL     1       1.944   2.953  -0.751  1.00  0.00     0.169 HD
HETATM    9  O   UNL     1      -0.803   3.621   0.683  1.00  0.00    -0.271 OA
BRANCH   7  10
HETATM   10  C   UNL     1       0.989   1.301   0.078  1.00  0.00     0.041 A 
HETATM   11  C   UNL     1       1.881   0.370  -0.501  1.00  0.00    -0.032 A 
HETATM   12  C   UNL     1       1.753  -0.997  -0.176  1.00  0.00     0.009 A 
HETATM   13  C   UNL     1       0.770  -1.439   0.706  1.00  0.00     0.001 A 
HETATM   14  C   UNL     1      -0.104  -0.522   1.273  1.00  0.00     0.002 A 
HETATM   15  C   UNL     1       0.005   0.835   0.960  1.00  0.00     0.030 A 
BRANCH  11  16
HETATM   16  C   UNL     1       2.961   0.751  -1.490  1.00  0.00     0.036 C 
HETATM   17  C   UNL     1       2.405   1.062  -2.872  1.00  0.00     0.010 C 
ENDBRANCH  11  16
ENDBRANCH   7  10
ENDBRANCH   5   6
ENDBRANCH   1   5
BRANCH   2  18
HETATM   18  C   UNL     1       4.445   5.725  -0.446  1.00  0.00     0.080 A 
HETATM   19  C   UNL     1       5.784   5.388  -0.055  1.00  0.00     0.104 A 
HETATM   20  N   UNL     1       6.676   6.131  -0.736  1.00  0.00    -0.174 NA
HETATM   21  N   UNL     1       5.942   6.913  -1.529  1.00  0.00    -0.288 N 
HETATM   22  H   UNL     1       6.426   7.581  -2.122  1.00  0.00     0.188 HD
HETATM   23  C   UNL     1       4.603   6.701  -1.416  1.00  0.00     0.128 A 
BRANCH  19  24
HETATM   24  C   UNL     1       6.253   4.381   0.903  1.00  0.00    -0.005 A 
HETATM   25  C   UNL     1       5.629   3.132   1.011  1.00  0.00     0.014 A 
HETATM   26  C   UNL     1       6.105   2.170   1.906  1.00  0.00     0.001 A 
HETATM   27  C   UNL     1       7.216   2.445   2.700  1.00  0.00     0.000 A 
HETATM   28  C   UNL     1       7.852   3.681   2.599  1.00  0.00     0.001 A 
HETATM   29  C   UNL     1       7.376   4.641   1.703  1.00  0.00     0.014 A 
ENDBRANCH  19  24
ENDBRANCH   2  18
TORSDOF 6
