REMARK  10 active torsions:
REMARK  status: ('A' for Active; 'I' for Inactive)
REMARK    1  A    between atoms: C_2  and  C_3 
REMARK    2  A    between atoms: C_3  and  C_4 
REMARK       I    between atoms: C_4  and  N_5 
REMARK    3  A    between atoms: N_5  and  C_6 
REMARK    4  A    between atoms: C_6  and  N_7 
REMARK    5  A    between atoms: C_6  and  C_21 
REMARK    6  A    between atoms: N_7  and  C_8 
REMARK    7  A    between atoms: C_8  and  N_9 
REMARK    8  A    between atoms: N_9  and  N_10 
REMARK       I    between atoms: N_10  and  C_11 
REMARK    9  A    between atoms: C_11  and  C_12 
REMARK   10  A    between atoms: C_13  and  O_14 
ROOT
HETATM    1  C   UNL     1       2.403  -0.896   1.012  1.00  0.00     0.188 C 
HETATM    2  S   UNL     1       2.867  -2.133  -0.003  1.00  0.00    -0.039 SA
ENDROOT
BRANCH   1   3
HETATM    3  N   UNL     1       2.906   0.372   1.023  1.00  0.00    -0.341 N 
HETATM    4  H   UNL     1       2.485   1.010   1.688  1.00  0.00     0.164 HD
BRANCH   3   5
HETATM    5  C   UNL     1       4.083   0.894   0.338  1.00  0.00     0.241 C 
BRANCH   5   6
HETATM    6  N   UNL     1       3.663   1.956  -0.571  1.00  0.00    -0.336 N 
HETATM    7  C   UNL     1       3.085   3.136  -0.174  1.00  0.00     0.219 C 
HETATM    8  O   UNL     1       2.745   3.354   0.981  1.00  0.00    -0.274 OA
HETATM    9  H   UNL     1       3.898   1.838  -1.548  1.00  0.00     0.164 HD
BRANCH   7  10
HETATM   10  C   UNL     1       2.893   4.107  -1.328  1.00  0.00     0.102 C 
BRANCH  10  11
HETATM   11  C   UNL     1       2.472   5.510  -0.899  1.00  0.00     0.005 C 
HETATM   12  C   UNL     1       0.997   5.601  -0.538  1.00  0.00     0.005 C 
ENDBRANCH  10  11
ENDBRANCH   7  10
ENDBRANCH   5   6
BRANCH   5  13
HETATM   13  C   UNL     1       5.302   1.216   1.310  1.00  0.00     0.226 C 
HETATM   14 CL   UNL     1       6.549   2.211   0.470  1.00  0.00    -0.080 Cl
HETATM   15 CL   UNL     1       4.810   2.063   2.818  1.00  0.00    -0.080 Cl
HETATM   16 CL   UNL     1       6.103  -0.322   1.818  1.00  0.00    -0.080 Cl
ENDBRANCH   5  13
ENDBRANCH   3   5
ENDBRANCH   1   3
BRANCH   1  17
HETATM   17  N   UNL     1       1.404  -1.123   1.929  1.00  0.00    -0.274 N 
HETATM   18  H   UNL     1       1.172  -2.106   2.085  1.00  0.00     0.189 HD
BRANCH  17  19
HETATM   19  N   UNL     1       1.274  -0.290   3.060  1.00  0.00    -0.264 N 
HETATM   20  C   UNL     1       1.446  -0.898   4.295  1.00  0.00     0.272 C 
HETATM   21  O   UNL     1       1.810  -2.067   4.418  1.00  0.00    -0.266 OA
HETATM   22  H   UNL     1       0.640   0.499   2.960  1.00  0.00     0.190 HD
BRANCH  20  23
HETATM   23  C   UNL     1       1.095  -0.107   5.505  1.00  0.00     0.066 A 
HETATM   24  C   UNL     1       0.839  -0.775   6.714  1.00  0.00     0.081 A 
HETATM   25  C   UNL     1       0.478  -0.065   7.857  1.00  0.00     0.037 A 
HETATM   26  C   UNL     1       0.387   1.325   7.812  1.00  0.00     0.003 A 
HETATM   27  C   UNL     1       0.667   2.003   6.626  1.00  0.00     0.001 A 
HETATM   28  C   UNL     1       1.024   1.294   5.475  1.00  0.00     0.020 A 
BRANCH  24  29
HETATM   29  O   UNL     1       0.919  -2.136   6.854  1.00  0.00    -0.360 OA
HETATM   30  H   UNL     1       1.320  -2.504   6.035  1.00  0.00     0.217 HD
ENDBRANCH  24  29
ENDBRANCH  20  23
ENDBRANCH  17  19
ENDBRANCH   1  17
TORSDOF 10
