REMARK  8 active torsions:
REMARK  status: ('A' for Active; 'I' for Inactive)
REMARK    1  A    between atoms: O_2  and  C_3 
REMARK    2  A    between atoms: C_5  and  C_6 
REMARK    3  A    between atoms: N_7  and  N_8 
REMARK    4  A    between atoms: C_19  and  C_20 
REMARK       I    between atoms: C_20  and  N_21 
REMARK    5  A    between atoms: N_21  and  C_22 
REMARK    6  A    between atoms: C_22  and  C_23 
REMARK    7  A    between atoms: C_23  and  C_24 
REMARK    8  A    between atoms: C_31  and  N_32 
ROOT
HETATM    1  N   UNL     1       4.719  -0.147  -5.666  1.00  0.00    -0.197 N 
HETATM    2  C   UNL     1       5.163   1.155  -5.848  1.00  0.00     0.183 A 
HETATM    3  C   UNL     1       6.552   1.108  -5.892  1.00  0.00     0.125 A 
HETATM    4  N   UNL     1       7.302   2.240  -5.953  1.00  0.00    -0.242 NA
HETATM    5  C   UNL     1       6.594   3.377  -6.024  1.00  0.00     0.086 A 
HETATM    6  C   UNL     1       5.174   3.402  -6.000  1.00  0.00     0.088 A 
HETATM    7  N   UNL     1       4.425   2.291  -5.897  1.00  0.00    -0.225 NA
HETATM    8  C   UNL     1       7.289   4.576  -6.111  1.00  0.00     0.034 A 
HETATM    9  C   UNL     1       6.625   5.801  -6.177  1.00  0.00     0.002 A 
HETATM   10  C   UNL     1       5.238   5.828  -6.157  1.00  0.00     0.002 A 
HETATM   11  C   UNL     1       4.527   4.630  -6.069  1.00  0.00     0.034 A 
HETATM   12  C   UNL     1       6.966  -0.242  -5.786  1.00  0.00     0.110 C 
HETATM   13  C   UNL     1       5.808  -1.000  -5.822  1.00  0.00     0.143 C 
ENDROOT
BRANCH  12  14
HETATM   14  C   UNL     1       8.292  -0.778  -5.536  1.00  0.00     0.257 C 
HETATM   15  N   UNL     1       9.142   0.123  -4.925  1.00  0.00    -0.356 N 
HETATM   16  H   UNL     1       8.815   1.086  -4.895  1.00  0.00     0.162 HD
HETATM   17  O   UNL     1       8.578  -1.962  -5.690  1.00  0.00    -0.267 OA
BRANCH  15  18
HETATM   18  C   UNL     1       9.908  -0.325  -3.778  1.00  0.00     0.127 C 
BRANCH  18  19
HETATM   19  C   UNL     1       9.802   0.654  -2.594  1.00  0.00     0.053 C 
BRANCH  19  20
HETATM   20  C   UNL     1       8.389   1.086  -2.236  1.00  0.00    -0.082 C 
HETATM   21  C   UNL     1       7.470   0.042  -1.640  1.00  0.00     0.034 C 
HETATM   22  C   UNL     1       5.998   0.471  -1.587  1.00  0.00     0.005 C 
HETATM   23  C   UNL     1       5.853   1.917  -1.126  1.00  0.00     0.004 C 
HETATM   24  C   UNL     1       6.616   2.864  -2.049  1.00  0.00     0.027 C 
HETATM   25  C   UNL     1       7.978   2.355  -2.423  1.00  0.00    -0.024 C 
ENDBRANCH  19  20
ENDBRANCH  18  19
ENDBRANCH  15  18
ENDBRANCH  12  14
BRANCH  13  26
HETATM   26  N   UNL     1       5.644  -2.346  -5.807  1.00  0.00    -0.383 N 
HETATM   27  H   UNL     1       6.433  -2.968  -5.987  1.00  0.00     0.157 HD
HETATM   28  H   UNL     1       4.718  -2.755  -5.908  1.00  0.00     0.157 HD
ENDBRANCH  13  26
BRANCH   1  29
HETATM   29  N   UNL     1       3.514  -0.647  -5.236  1.00  0.00    -0.176 NA
HETATM   30  C   UNL     1       2.814   0.127  -4.473  1.00  0.00     0.150 C 
BRANCH  30  31
HETATM   31  C   UNL     1       1.655  -0.410  -3.727  1.00  0.00    -0.014 A 
HETATM   32  C   UNL     1       1.395  -1.787  -3.733  1.00  0.00     0.049 A 
HETATM   33  C   UNL     1       0.404  -2.309  -2.904  1.00  0.00     0.069 A 
HETATM   34  C   UNL     1      -0.339  -1.443  -2.097  1.00  0.00     0.037 A 
HETATM   35  C   UNL     1      -0.086  -0.069  -2.099  1.00  0.00     0.004 A 
HETATM   36  C   UNL     1       0.920   0.452  -2.912  1.00  0.00     0.013 A 
BRANCH  33  37
HETATM   37  O   UNL     1       0.081  -3.633  -2.781  1.00  0.00    -0.356 OA
HETATM   38  C   UNL     1       0.967  -4.564  -3.394  1.00  0.00     0.210 C 
ENDBRANCH  33  37
ENDBRANCH  30  31
ENDBRANCH   1  29
TORSDOF 8
