REMARK  8 active torsions:
REMARK  status: ('A' for Active; 'I' for Inactive)
REMARK    1  A    between atoms: N_9  and  N_10 
REMARK    2  A    between atoms: C_11  and  C_12 
REMARK    3  A    between atoms: C_14  and  O_15 
REMARK    4  A    between atoms: C_19  and  N_20 
REMARK    5  A    between atoms: C_21  and  C_22 
REMARK       I    between atoms: C_22  and  N_23 
REMARK    6  A    between atoms: N_23  and  C_24 
REMARK    7  A    between atoms: C_24  and  C_25 
REMARK    8  A    between atoms: C_25  and  C_26 
ROOT
HETATM    1  C   UNL     1      -1.865   1.207   1.249  1.00  0.00     0.002 A 
HETATM    2  C   UNL     1      -0.480   1.205   1.426  1.00  0.00     0.034 A 
HETATM    3  C   UNL     1       0.353   0.410   0.648  1.00  0.00     0.086 A 
HETATM    4  C   UNL     1      -0.232  -0.418  -0.347  1.00  0.00     0.088 A 
HETATM    5  N   UNL     1       0.490  -1.211  -1.149  1.00  0.00    -0.225 NA
HETATM    6  C   UNL     1       1.822  -1.123  -0.924  1.00  0.00     0.183 A 
HETATM    7  C   UNL     1       2.421  -0.318   0.033  1.00  0.00     0.125 A 
HETATM    8  N   UNL     1       1.681   0.464   0.867  1.00  0.00    -0.242 NA
HETATM    9  N   UNL     1       2.820  -1.809  -1.587  1.00  0.00    -0.197 N 
HETATM   10  C   UNL     1       4.051  -1.410  -1.067  1.00  0.00     0.143 A 
HETATM   11  C   UNL     1       3.825  -0.517  -0.025  1.00  0.00     0.110 A 
HETATM   12  C   UNL     1      -1.611  -0.410  -0.510  1.00  0.00     0.034 A 
HETATM   13  C   UNL     1      -2.433   0.395   0.278  1.00  0.00     0.002 A 
ENDROOT
BRANCH  11  14
HETATM   14  C   UNL     1       4.855  -0.006   0.868  1.00  0.00     0.257 C 
HETATM   15  N   UNL     1       4.381   0.564   2.030  1.00  0.00    -0.356 N 
HETATM   16  H   UNL     1       3.372   0.619   2.157  1.00  0.00     0.162 HD
HETATM   17  O   UNL     1       6.055  -0.170   0.657  1.00  0.00    -0.267 OA
BRANCH  15  18
HETATM   18  C   UNL     1       5.239   0.688   3.190  1.00  0.00     0.127 C 
BRANCH  18  19
HETATM   19  C   UNL     1       4.467   0.839   4.508  1.00  0.00     0.053 C 
BRANCH  19  20
HETATM   20  C   UNL     1       3.584  -0.312   4.975  1.00  0.00    -0.082 C 
HETATM   21  C   UNL     1       2.958  -0.093   6.340  1.00  0.00     0.034 C 
HETATM   22  C   UNL     1       2.342  -1.355   6.951  1.00  0.00     0.005 C 
HETATM   23  C   UNL     1       1.529  -2.120   5.916  1.00  0.00     0.004 C 
HETATM   24  C   UNL     1       2.408  -2.529   4.736  1.00  0.00     0.027 C 
HETATM   25  C   UNL     1       3.344  -1.444   4.285  1.00  0.00    -0.024 C 
ENDBRANCH  19  20
ENDBRANCH  18  19
ENDBRANCH  15  18
ENDBRANCH  11  14
BRANCH  10  26
HETATM   26  N   UNL     1       5.229  -1.936  -1.508  1.00  0.00    -0.383 N 
HETATM   27  H   UNL     1       5.241  -2.886  -1.876  1.00  0.00     0.157 HD
HETATM   28  H   UNL     1       6.069  -1.722  -0.959  1.00  0.00     0.157 HD
ENDBRANCH  10  26
BRANCH   9  29
HETATM   29  N   UNL     1       2.588  -2.834  -2.465  1.00  0.00    -0.176 NA
HETATM   30  C   UNL     1       3.203  -2.733  -3.597  1.00  0.00     0.150 C 
BRANCH  30  31
HETATM   31  C   UNL     1       3.088  -3.807  -4.605  1.00  0.00    -0.014 A 
HETATM   32  C   UNL     1       2.447  -5.009  -4.280  1.00  0.00     0.049 A 
HETATM   33  C   UNL     1       2.363  -6.013  -5.237  1.00  0.00     0.066 A 
HETATM   34  C   UNL     1       2.899  -5.833  -6.507  1.00  0.00     0.036 A 
HETATM   35  C   UNL     1       3.535  -4.631  -6.829  1.00  0.00     0.004 A 
HETATM   36  C   UNL     1       3.635  -3.615  -5.876  1.00  0.00     0.013 A 
BRANCH  33  37
HETATM   37  O   UNL     1       1.757  -7.203  -4.964  1.00  0.00    -0.361 OA
HETATM   38  H   UNL     1       1.422  -7.178  -4.051  1.00  0.00     0.217 HD
ENDBRANCH  33  37
ENDBRANCH  30  31
ENDBRANCH   9  29
TORSDOF 8
