REMARK  7 active torsions:
REMARK  status: ('A' for Active; 'I' for Inactive)
REMARK    1  A    between atoms: C_2  and  C_3 
REMARK    2  A    between atoms: C_6  and  C_7 
REMARK    3  A    between atoms: C_10  and  C_11 
REMARK       I    between atoms: C_11  and  N_12 
REMARK    4  A    between atoms: N_12  and  C_13 
REMARK    5  A    between atoms: C_25  and  C_26 
REMARK       I    between atoms: C_26  and  N_27 
REMARK    6  A    between atoms: N_27  and  C_28 
REMARK    7  A    between atoms: C_31  and  O_32 
ROOT
HETATM    1  C   UNL     1       5.003  -0.236   4.851  1.00  0.00     0.185 C 
HETATM    2  N   UNL     1       5.716  -1.431   5.324  1.00  0.00    -0.239 N 
HETATM    3  C   UNL     1       7.000  -1.418   5.814  1.00  0.00     0.142 A 
HETATM    4  C   UNL     1       7.323  -2.742   6.048  1.00  0.00     0.097 A 
HETATM    5  C   UNL     1       6.113  -3.438   5.782  1.00  0.00     0.160 A 
HETATM    6  N   UNL     1       5.126  -2.644   5.361  1.00  0.00    -0.181 NA
HETATM    7  N   UNL     1       7.616  -0.217   5.991  1.00  0.00    -0.343 N 
HETATM    8  C   UNL     1       6.918   0.997   5.881  1.00  0.00     0.021 C 
HETATM    9  C   UNL     1       7.659   2.213   6.387  1.00  0.00     0.069 C 
HETATM   10  C   UNL     1       5.661   1.035   5.366  1.00  0.00     0.061 C 
HETATM   11  H   UNL     1       8.415  -0.153   6.624  1.00  0.00     0.167 HD
ENDROOT
BRANCH  10  12
HETATM   12  C   UNL     1       4.799   2.256   5.507  1.00  0.00     0.256 C 
HETATM   13  N   UNL     1       3.877   2.439   4.497  1.00  0.00    -0.323 N 
HETATM   14  H   UNL     1       3.921   1.834   3.688  1.00  0.00     0.169 HD
HETATM   15  O   UNL     1       4.917   2.961   6.504  1.00  0.00    -0.267 OA
BRANCH  13  16
HETATM   16  C   UNL     1       2.822   3.379   4.461  1.00  0.00     0.035 A 
HETATM   17  C   UNL     1       2.599   4.351   5.434  1.00  0.00     0.032 A 
HETATM   18  C   UNL     1       1.500   5.214   5.333  1.00  0.00     0.039 A 
HETATM   19  C   UNL     1       0.603   5.113   4.270  1.00  0.00     0.068 A 
HETATM   20  C   UNL     1       0.827   4.152   3.287  1.00  0.00     0.039 A 
HETATM   21  C   UNL     1       1.933   3.295   3.381  1.00  0.00     0.032 A 
BRANCH  19  22
HETATM   22  O   UNL     1      -0.433   6.004   4.306  1.00  0.00    -0.356 OA
HETATM   23  C   UNL     1      -1.463   5.830   3.341  1.00  0.00     0.210 C 
ENDBRANCH  19  22
ENDBRANCH  13  16
ENDBRANCH  10  12
BRANCH   1  24
HETATM   24  C   UNL     1       4.885  -0.314   3.325  1.00  0.00    -0.029 A 
HETATM   25  C   UNL     1       3.798  -0.997   2.755  1.00  0.00     0.010 A 
HETATM   26  C   UNL     1       3.674  -1.119   1.370  1.00  0.00     0.007 A 
HETATM   27  C   UNL     1       4.631  -0.558   0.517  1.00  0.00    -0.059 A 
HETATM   28  C   UNL     1       5.716   0.124   1.076  1.00  0.00     0.007 A 
HETATM   29  C   UNL     1       5.851   0.235   2.464  1.00  0.00     0.010 A 
BRANCH  27  30
HETATM   30  C   UNL     1       4.509  -0.714  -0.978  1.00  0.00     0.034 C 
HETATM   31  C   UNL     1       3.374   0.116  -1.558  1.00  0.00     0.010 C 
ENDBRANCH  27  30
ENDBRANCH   1  24
BRANCH   4  32
HETATM   32  C   UNL     1       8.555  -3.366   6.501  1.00  0.00     0.261 C 
HETATM   33  N   UNL     1       9.688  -2.597   6.308  1.00  0.00    -0.323 N 
HETATM   34  H   UNL     1       9.550  -1.714   5.836  1.00  0.00     0.169 HD
HETATM   35  O   UNL     1       8.528  -4.497   6.975  1.00  0.00    -0.267 OA
BRANCH  33  36
HETATM   36  C   UNL     1      11.022  -2.944   6.613  1.00  0.00     0.035 A 
HETATM   37  C   UNL     1      11.410  -4.188   7.116  1.00  0.00     0.029 A 
HETATM   38  C   UNL     1      12.756  -4.462   7.380  1.00  0.00     0.002 A 
HETATM   39  C   UNL     1      13.726  -3.490   7.153  1.00  0.00     0.000 A 
HETATM   40  C   UNL     1      13.351  -2.245   6.657  1.00  0.00     0.002 A 
HETATM   41  C   UNL     1      12.006  -1.975   6.382  1.00  0.00     0.029 A 
ENDBRANCH  33  36
ENDBRANCH   4  32
TORSDOF 7
