REMARK  4 active torsions:
REMARK  status: ('A' for Active; 'I' for Inactive)
REMARK    1  A    between atoms: C_6  and  C_7 
REMARK    2  A    between atoms: C_7  and  C_8 
REMARK       I    between atoms: C_8  and  N_9 
REMARK    3  A    between atoms: N_9  and  C_10 
REMARK    4  A    between atoms: C_17  and  C_18 
REMARK       I    between atoms: C_18  and  N_19 
ROOT
HETATM    1  C   UNL     1       0.278  -0.474  -0.648  1.00  0.00     0.035 A 
HETATM    2  C   UNL     1       0.871  -1.594  -1.227  1.00  0.00     0.046 A 
HETATM    3  C   UNL     1       1.885  -1.435  -2.197  1.00  0.00     0.030 A 
HETATM    4  C   UNL     1       2.303  -0.154  -2.528  1.00  0.00     0.063 A 
HETATM    5  N   UNL     1       3.277  -0.322  -3.473  1.00  0.00    -0.277 N 
HETATM    6  H   UNL     1       3.808   0.402  -3.944  1.00  0.00     0.189 HD
HETATM    7  N   UNL     1       3.528  -1.605  -3.788  1.00  0.00    -0.168 NA
HETATM    8  C   UNL     1       2.672  -2.303  -3.010  1.00  0.00     0.156 A 
HETATM    9  C   UNL     1       1.766   0.992  -1.943  1.00  0.00     0.034 A 
HETATM   10  C   UNL     1       0.749   0.801  -0.997  1.00  0.00     0.032 A 
ENDROOT
BRANCH   1  11
HETATM   11  N   UNL     1      -0.762  -0.514   0.293  1.00  0.00    -0.326 N 
HETATM   12  C   UNL     1      -1.632  -1.475   0.747  1.00  0.00     0.235 C 
HETATM   13  O   UNL     1      -2.400  -1.155   1.658  1.00  0.00    -0.272 OA
HETATM   14  H   UNL     1      -0.973   0.364   0.753  1.00  0.00     0.169 HD
BRANCH  12  15
HETATM   15  C   UNL     1      -1.765  -2.857   0.147  1.00  0.00     0.068 A 
HETATM   16  C   UNL     1      -1.946  -3.044  -1.359  1.00  0.00     0.026 A 
HETATM   17  C   UNL     1      -3.149  -3.127  -0.490  1.00  0.00     0.026 A 
BRANCH  15  18
HETATM   18  C   UNL     1      -1.268  -4.021   1.027  1.00  0.00    -0.039 A 
HETATM   19  C   UNL     1      -0.188  -4.848   0.671  1.00  0.00     0.032 A 
HETATM   20  C   UNL     1       0.222  -5.900   1.497  1.00  0.00     0.034 A 
HETATM   21  C   UNL     1      -0.437  -6.164   2.693  1.00  0.00     0.024 A 
HETATM   22 CL   UNL     1       1.556  -6.883   1.029  1.00  0.00    -0.084 Cl
HETATM   23  C   UNL     1      -1.514  -5.368   3.068  1.00  0.00     0.002 A 
HETATM   24  C   UNL     1      -1.917  -4.314   2.245  1.00  0.00     0.008 A 
ENDBRANCH  15  18
ENDBRANCH  12  15
ENDBRANCH   1  11
BRANCH   8  25
HETATM   25  C   UNL     1       2.607  -3.770  -3.062  1.00  0.00     0.270 C 
HETATM   26  N   UNL     1       3.503  -4.341  -3.922  1.00  0.00    -0.365 N 
HETATM   27  H   UNL     1       4.125  -3.739  -4.449  1.00  0.00     0.159 HD
HETATM   28  H   UNL     1       3.530  -5.344  -4.025  1.00  0.00     0.159 HD
HETATM   29  O   UNL     1       1.821  -4.449  -2.410  1.00  0.00    -0.266 OA
ENDBRANCH   8  25
TORSDOF 4
