REMARK  7 active torsions:
REMARK  status: ('A' for Active; 'I' for Inactive)
REMARK    1  A    between atoms: C_2  and  O_3 
REMARK    2  A    between atoms: O_3  and  C_4 
REMARK    3  A    between atoms: C_9  and  C_10 
REMARK       I    between atoms: C_10  and  N_11 
REMARK    4  A    between atoms: N_11  and  C_12 
REMARK    5  A    between atoms: C_12  and  C_13 
REMARK    6  A    between atoms: C_14  and  C_15 
REMARK    7  A    between atoms: C_15  and  N_16 
ROOT
HETATM    1  C   UNL     1       9.241  -4.117  -1.921  1.00  0.00     0.276 C 
HETATM    2  N   UNL     1       9.594  -5.345  -1.382  1.00  0.00    -0.351 N 
HETATM    3  O   UNL     1       8.057  -3.821  -2.082  1.00  0.00    -0.265 OA
HETATM    4  H   UNL     1      10.573  -5.471  -1.151  1.00  0.00     0.163 HD
ENDROOT
BRANCH   2   5
HETATM    5  C   UNL     1       8.644  -6.054  -0.561  1.00  0.00     0.162 C 
BRANCH   5   6
HETATM    6  C   UNL     1       8.650  -7.534  -0.848  1.00  0.00    -0.033 A 
HETATM    7  C   UNL     1       8.006  -8.104  -1.971  1.00  0.00    -0.025 A 
HETATM    8  C   UNL     1       8.072  -9.501  -2.155  1.00  0.00     0.009 A 
HETATM    9  C   UNL     1       8.750 -10.316  -1.251  1.00  0.00     0.001 A 
HETATM   10  C   UNL     1       9.384  -9.753  -0.151  1.00  0.00     0.001 A 
HETATM   11  C   UNL     1       9.340  -8.375   0.045  1.00  0.00     0.009 A 
BRANCH   7  12
HETATM   12  C   UNL     1       7.245  -7.286  -2.991  1.00  0.00     0.274 C 
BRANCH  12  13
HETATM   13  N   UNL     1       5.750  -7.521  -2.942  1.00  0.00    -0.067 N 
HETATM   14  H   UNL     1       5.608  -8.535  -2.866  1.00  0.00     0.280 HD
HETATM   15  C   UNL     1       5.024  -7.008  -4.157  1.00  0.00     0.235 C 
HETATM   16  C   UNL     1       4.747  -5.554  -3.836  1.00  0.00     0.029 C 
HETATM   17  C   UNL     1       4.666  -5.473  -2.317  1.00  0.00     0.029 C 
HETATM   18  C   UNL     1       5.045  -6.848  -1.793  1.00  0.00     0.235 C 
ENDBRANCH  12  13
ENDBRANCH   7  12
ENDBRANCH   5   6
ENDBRANCH   2   5
BRANCH   1  19
HETATM   19  C   UNL     1      10.351  -3.236  -2.210  1.00  0.00     0.150 A 
HETATM   20  O   UNL     1      10.219  -1.940  -1.795  1.00  0.00    -0.304 OA
HETATM   21  C   UNL     1      11.380  -1.297  -2.074  1.00  0.00     0.087 A 
HETATM   22  C   UNL     1      12.265  -2.157  -2.707  1.00  0.00     0.009 A 
HETATM   23  C   UNL     1      11.660   0.031  -1.767  1.00  0.00     0.041 A 
HETATM   24  C   UNL     1      13.522  -1.647  -3.087  1.00  0.00     0.051 A 
HETATM   25  C   UNL     1      11.596  -3.420  -2.801  1.00  0.00    -0.009 A 
HETATM   26  C   UNL     1      13.836  -0.304  -2.815  1.00  0.00     0.069 A 
HETATM   27  C   UNL     1      12.919   0.514  -2.148  1.00  0.00     0.039 A 
HETATM   28  C   UNL     1      12.145  -4.649  -3.428  1.00  0.00     0.052 C 
BRANCH  26  29
HETATM   29  O   UNL     1      15.078   0.082  -3.246  1.00  0.00    -0.351 OA
BRANCH  29  30
HETATM   30  C   UNL     1      15.371   1.479  -3.207  1.00  0.00     0.171 C 
HETATM   31  C   UNL     1      16.687   1.705  -3.930  1.00  0.00     0.034 C 
ENDBRANCH  29  30
ENDBRANCH  26  29
ENDBRANCH   1  19
TORSDOF 7
