REMARK  3 active torsions:
REMARK  status: ('A' for Active; 'I' for Inactive)
REMARK    1  A    between atoms: C_7  and  C_8 
REMARK       I    between atoms: C_8  and  N_9 
REMARK    2  A    between atoms: N_9  and  C_10 
REMARK    3  A    between atoms: C_18  and  N_19 
ROOT
HETATM    1  C   UNL     1      -3.763  -1.556  -0.014  1.00  0.00     0.262 C 
HETATM    2  N   UNL     1      -3.601  -2.864   0.383  1.00  0.00    -0.305 N 
HETATM    3  O   UNL     1      -4.809  -1.013  -0.357  1.00  0.00    -0.267 OA
HETATM    4  H   UNL     1      -2.660  -3.187   0.594  1.00  0.00     0.170 HD
ENDROOT
BRANCH   2   5
HETATM    5  C   UNL     1      -4.613  -3.785   0.557  1.00  0.00     0.163 A 
HETATM    6  N   UNL     1      -5.916  -3.522   0.452  1.00  0.00    -0.155 NA
HETATM    7  N   UNL     1      -6.521  -4.682   0.725  1.00  0.00    -0.275 N 
HETATM    8  H   UNL     1      -7.535  -4.705   0.707  1.00  0.00     0.189 HD
HETATM    9  C   UNL     1      -5.663  -5.713   0.997  1.00  0.00     0.064 A 
HETATM   10  C   UNL     1      -4.392  -5.157   0.893  1.00  0.00     0.042 A 
HETATM   11  C   UNL     1      -5.898  -7.054   1.315  1.00  0.00     0.034 A 
HETATM   12  C   UNL     1      -3.267  -5.979   1.109  1.00  0.00     0.053 A 
HETATM   13  C   UNL     1      -3.483  -7.335   1.418  1.00  0.00     0.103 A 
HETATM   14  C   UNL     1      -4.778  -7.865   1.524  1.00  0.00     0.038 A 
BRANCH  13  15
HETATM   15  N   UNL     1      -2.326  -8.216   1.625  1.00  0.00    -0.116 N 
HETATM   16  O   UNL     1      -2.547  -9.389   1.959  1.00  0.00    -0.532 OA
HETATM   17  O   UNL     1      -1.197  -7.737   1.451  1.00  0.00    -0.532 OA
ENDBRANCH  13  15
ENDBRANCH   2   5
BRANCH   1  18
HETATM   18  C   UNL     1      -2.487  -0.772  -0.019  1.00  0.00     0.098 C 
HETATM   19  C   UNL     1      -2.502   0.486  -0.491  1.00  0.00     0.109 C 
HETATM   20  N   UNL     1      -1.420   1.328  -0.545  1.00  0.00    -0.364 N 
HETATM   21  C   UNL     1      -0.203   0.960   0.042  1.00  0.00     0.046 A 
HETATM   22  H   UNL     1      -1.587   2.307  -0.752  1.00  0.00     0.165 HD
HETATM   23  C   UNL     1      -0.035  -0.339   0.551  1.00  0.00     0.042 A 
HETATM   24  C   UNL     1       0.879   1.843   0.072  1.00  0.00     0.030 A 
HETATM   25  C   UNL     1       1.182  -0.738   1.113  1.00  0.00     0.018 A 
HETATM   26  C   UNL     1      -1.182  -1.283   0.491  1.00  0.00     0.201 C 
HETATM   27  C   UNL     1       2.246   0.162   1.158  1.00  0.00     0.001 A 
HETATM   28  C   UNL     1       2.096   1.448   0.636  1.00  0.00     0.002 A 
HETATM   29  O   UNL     1      -1.059  -2.450   0.860  1.00  0.00    -0.286 OA
ENDBRANCH   1  18
TORSDOF 3
