REMARK  3 active torsions:
REMARK  status: ('A' for Active; 'I' for Inactive)
REMARK    1  A    between atoms: C_4  and  N_5 
REMARK    2  A    between atoms: N_5  and  C_6 
REMARK    3  A    between atoms: C_13  and  C_14 
ROOT
HETATM    1  C   UNL     1       4.415  -3.855  -0.350  1.00  0.00     0.741 A 
HETATM    2  N   UNL     1       4.998  -5.061  -0.246  1.00  0.00    -0.066 NA
HETATM    3  C   UNL     1       4.230  -6.165  -0.374  1.00  0.00     0.069 A 
HETATM    4  C   UNL     1       2.881  -6.091  -0.625  1.00  0.00     0.053 A 
HETATM    5  C   UNL     1       2.057  -7.296  -0.779  1.00  0.00     0.163 C 
HETATM    6  O   UNL     1       0.870  -7.191  -1.074  1.00  0.00    -0.292 OA
HETATM    7  C   UNL     1       2.746  -8.639  -0.665  1.00  0.00     0.093 C 
HETATM    8  C   UNL     1       3.969  -8.597   0.270  1.00  0.00     0.031 C 
HETATM    9  C   UNL     1       4.924  -7.492  -0.222  1.00  0.00     0.070 C 
HETATM   10  C   UNL     1       2.355  -4.826  -0.716  1.00  0.00     0.153 A 
HETATM   11  N   UNL     1       3.097  -3.703  -0.577  1.00  0.00    -0.073 NA
ENDROOT
BRANCH   1  12
HETATM   12  N   UNL     1       5.132  -2.688  -0.212  1.00  0.00    -0.015 N 
HETATM   13  H   UNL     1       4.577  -1.855  -0.271  1.00  0.00     0.203 HD
BRANCH  12  14
HETATM   14  C   UNL     1       6.481  -2.449  -0.058  1.00  0.00     0.742 A 
HETATM   15  N   UNL     1       6.824  -1.156   0.058  1.00  0.00    -0.066 NA
HETATM   16  C   UNL     1       8.135  -0.856   0.195  1.00  0.00     0.062 A 
HETATM   17  C   UNL     1       8.453   0.605   0.329  1.00  0.00     0.072 C 
HETATM   18  C   UNL     1       9.136  -1.833   0.211  1.00  0.00     0.018 A 
HETATM   19  C   UNL     1       8.671  -3.144   0.082  1.00  0.00     0.088 A 
HETATM   20  C   UNL     1      10.527  -1.591   0.339  1.00  0.00     0.016 A 
HETATM   21  N   UNL     1       7.376  -3.443  -0.045  1.00  0.00    -0.062 NA
HETATM   22  C   UNL     1       9.595  -4.181   0.085  1.00  0.00     0.033 A 
HETATM   23  C   UNL     1      10.967  -3.948   0.209  1.00  0.00     0.002 A 
HETATM   24  C   UNL     1      11.435  -2.647   0.337  1.00  0.00     0.001 A 
ENDBRANCH  12  14
ENDBRANCH   1  12
BRANCH   8  25
HETATM   25  C   UNL     1       3.568  -8.551   1.745  1.00  0.00    -0.053 A 
HETATM   26  C   UNL     1       2.838  -9.629   2.280  1.00  0.00     0.007 A 
HETATM   27  C   UNL     1       2.434  -9.640   3.617  1.00  0.00     0.001 A 
HETATM   28  C   UNL     1       2.761  -8.578   4.451  1.00  0.00     0.000 A 
HETATM   29  C   UNL     1       3.501  -7.512   3.950  1.00  0.00     0.001 A 
HETATM   30  C   UNL     1       3.906  -7.500   2.611  1.00  0.00     0.007 A 
ENDBRANCH   8  25
TORSDOF 3
