REMARK  5 active torsions:
REMARK  status: ('A' for Active; 'I' for Inactive)
REMARK    1  A    between atoms: C_2  and  C_3 
REMARK    2  A    between atoms: C_2  and  C_21 
REMARK       I    between atoms: C_3  and  N_4 
REMARK    3  A    between atoms: N_4  and  C_5 
REMARK    4  A    between atoms: C_8  and  O_9 
REMARK    5  A    between atoms: O_9  and  C_10 
ROOT
HETATM    1  C   UNL     1       3.994   2.306  -0.915  1.00  0.00     0.052 A 
HETATM    2  C   UNL     1       3.500   3.609  -0.896  1.00  0.00     0.149 A 
HETATM    3  N   UNL     1       3.808   4.527   0.056  1.00  0.00    -0.235 NA
HETATM    4  C   UNL     1       4.650   4.133   1.034  1.00  0.00     0.169 A 
HETATM    5  C   UNL     1       5.231   2.877   1.083  1.00  0.00     0.060 A 
HETATM    6  C   UNL     1       4.887   1.950   0.099  1.00  0.00     0.035 A 
ENDROOT
BRANCH   1   7
HETATM    7  N   UNL     1       3.643   1.311  -1.853  1.00  0.00    -0.325 N 
HETATM    8  C   UNL     1       2.797   1.455  -2.939  1.00  0.00     0.231 C 
HETATM    9  O   UNL     1       2.296   2.520  -3.287  1.00  0.00    -0.272 OA
HETATM   10  H   UNL     1       4.048   0.398  -1.691  1.00  0.00     0.169 HD
BRANCH   8  11
HETATM   11  C   UNL     1       2.491   0.142  -3.697  1.00  0.00     0.046 C 
HETATM   12  C   UNL     1       3.801  -0.481  -4.213  1.00  0.00     0.026 C 
HETATM   13  C   UNL     1       1.782  -0.830  -2.736  1.00  0.00     0.026 C 
BRANCH  11  14
HETATM   14  C   UNL     1       1.562   0.509  -4.881  1.00  0.00     0.133 C 
HETATM   15 CL   UNL     1       1.067  -0.887  -5.881  1.00  0.00    -0.129 Cl
ENDBRANCH  11  14
ENDBRANCH   8  11
ENDBRANCH   1   7
BRANCH   4  16
HETATM   16  O   UNL     1       4.996   5.017   2.044  1.00  0.00    -0.289 OA
BRANCH  16  17
HETATM   17  C   UNL     1       4.047   5.931   2.440  1.00  0.00     0.116 A 
HETATM   18  C   UNL     1       4.482   7.228   2.718  1.00  0.00     0.153 A 
HETATM   19  F   UNL     1       5.772   7.557   2.548  1.00  0.00    -0.203 F 
HETATM   20  C   UNL     1       3.599   8.196   3.183  1.00  0.00     0.087 A 
HETATM   21  C   UNL     1       2.270   7.851   3.383  1.00  0.00     0.119 A 
HETATM   22  F   UNL     1       1.410   8.773   3.835  1.00  0.00    -0.206 F 
HETATM   23  C   UNL     1       1.816   6.559   3.133  1.00  0.00     0.045 A 
HETATM   24  C   UNL     1       2.708   5.590   2.670  1.00  0.00     0.043 A 
ENDBRANCH  16  17
ENDBRANCH   4  16
TORSDOF 5
