REMARK  6 active torsions:
REMARK  status: ('A' for Active; 'I' for Inactive)
REMARK    1  A    between atoms: O_2  and  C_3 
REMARK    2  A    between atoms: C_6  and  C_7 
REMARK    3  A    between atoms: C_13  and  C_14 
REMARK       I    between atoms: C_14  and  N_15 
REMARK    4  A    between atoms: N_15  and  C_16 
REMARK    5  A    between atoms: C_16  and  C_17 
REMARK    6  A    between atoms: C_24  and  C_25 
ROOT
HETATM    1  C   UNL     1       4.461   3.298  -4.447  1.00  0.00     0.118 C 
HETATM    2  N   UNL     1       3.586   2.962  -5.577  1.00  0.00    -0.365 N 
HETATM    3  C   UNL     1       3.105   3.934  -6.400  1.00  0.00     0.138 A 
HETATM    4  N   UNL     1       3.185   5.260  -6.045  1.00  0.00    -0.240 N 
HETATM    5  N   UNL     1       2.626   6.099  -6.929  1.00  0.00    -0.181 NA
HETATM    6  C   UNL     1       2.278   5.290  -7.933  1.00  0.00     0.160 A 
HETATM    7  C   UNL     1       2.529   3.922  -7.658  1.00  0.00     0.096 A 
HETATM    8  C   UNL     1       3.815   5.764  -4.840  1.00  0.00     0.221 C 
HETATM    9  C   UNL     1       4.004   4.628  -3.821  1.00  0.00     0.066 C 
HETATM   10  H   UNL     1       3.776   2.033  -5.951  1.00  0.00     0.161 HD
ENDROOT
BRANCH   7  11
HETATM   11  C   UNL     1       2.258   2.823  -8.559  1.00  0.00     0.257 C 
HETATM   12  N   UNL     1       2.112   1.589  -7.969  1.00  0.00    -0.352 N 
HETATM   13  H   UNL     1       2.089   1.527  -6.960  1.00  0.00     0.163 HD
HETATM   14  O   UNL     1       2.147   2.993  -9.769  1.00  0.00    -0.267 OA
BRANCH  12  15
HETATM   15  C   UNL     1       1.879   0.417  -8.776  1.00  0.00     0.161 C 
BRANCH  15  16
HETATM   16  C   UNL     1       1.385  -0.760  -7.976  1.00  0.00    -0.041 A 
HETATM   17  C   UNL     1       0.281  -0.637  -7.119  1.00  0.00     0.009 A 
HETATM   18  C   UNL     1      -0.214  -1.749  -6.434  1.00  0.00     0.001 A 
HETATM   19  C   UNL     1       0.379  -2.997  -6.609  1.00  0.00     0.000 A 
HETATM   20  C   UNL     1       1.469  -3.136  -7.466  1.00  0.00     0.001 A 
HETATM   21  C   UNL     1       1.969  -2.024  -8.147  1.00  0.00     0.009 A 
ENDBRANCH  15  16
ENDBRANCH  12  15
ENDBRANCH   7  11
BRANCH   1  22
HETATM   22  C   UNL     1       5.939   3.202  -4.795  1.00  0.00    -0.035 A 
HETATM   23  C   UNL     1       6.401   2.861  -6.078  1.00  0.00     0.012 A 
HETATM   24  C   UNL     1       7.768   2.754  -6.359  1.00  0.00     0.037 A 
HETATM   25  C   UNL     1       8.710   2.982  -5.361  1.00  0.00     0.068 A 
HETATM   26  C   UNL     1       8.270   3.309  -4.079  1.00  0.00     0.037 A 
HETATM   27  C   UNL     1       6.903   3.412  -3.795  1.00  0.00     0.012 A 
BRANCH  25  28
HETATM   28  O   UNL     1      10.068   2.912  -5.507  1.00  0.00    -0.356 OA
HETATM   29  C   UNL     1      10.556   2.642  -6.816  1.00  0.00     0.210 C 
ENDBRANCH  25  28
ENDBRANCH   1  22
BRANCH   8  30
HETATM   30  C   UNL     1       5.097   6.496  -5.186  1.00  0.00     0.409 C 
HETATM   31  F   UNL     1       5.926   5.800  -5.986  1.00  0.00    -0.169 F 
HETATM   32  F   UNL     1       4.859   7.686  -5.785  1.00  0.00    -0.169 F 
HETATM   33  F   UNL     1       5.787   6.782  -4.049  1.00  0.00    -0.169 F 
ENDBRANCH   8  30
TORSDOF 6
