REMARK  6 active torsions:
REMARK  status: ('A' for Active; 'I' for Inactive)
REMARK    1  A    between atoms: O_2  and  C_3 
REMARK    2  A    between atoms: C_6  and  C_7 
REMARK    3  A    between atoms: C_11  and  C_12 
REMARK       I    between atoms: C_12  and  N_13 
REMARK    4  A    between atoms: N_13  and  N_14 
REMARK       I    between atoms: N_14  and  C_15 
REMARK    5  A    between atoms: C_15  and  C_16 
REMARK    6  A    between atoms: C_17  and  C_18 
ROOT
HETATM    1  C   UNL     1       5.340  -8.477  -0.467  1.00  0.00     0.288 C 
HETATM    2  N   UNL     1       4.159  -9.082  -0.094  1.00  0.00    -0.262 N 
HETATM    3  O   UNL     1       6.357  -9.126  -0.708  1.00  0.00    -0.264 OA
HETATM    4  H   UNL     1       3.283  -8.585   0.039  1.00  0.00     0.190 HD
ENDROOT
BRANCH   1   5
HETATM    5  C   UNL     1       5.308  -7.043  -0.542  1.00  0.00     0.121 A 
HETATM    6  N   UNL     1       6.409  -6.324  -0.914  1.00  0.00    -0.272 N 
HETATM    7  N   UNL     1       6.234  -4.996  -0.887  1.00  0.00    -0.174 NA
HETATM    8  H   UNL     1       7.316  -6.695  -1.181  1.00  0.00     0.189 HD
HETATM    9  C   UNL     1       4.960  -4.827  -0.497  1.00  0.00     0.089 A 
HETATM   10  C   UNL     1       4.341  -6.092  -0.283  1.00  0.00     0.071 A 
BRANCH   9  11
HETATM   11  C   UNL     1       4.384  -3.491  -0.312  1.00  0.00    -0.005 A 
HETATM   12  C   UNL     1       2.999  -3.294  -0.275  1.00  0.00     0.016 A 
HETATM   13  C   UNL     1       2.470  -2.015  -0.067  1.00  0.00     0.037 A 
HETATM   14  C   UNL     1       3.309  -0.913   0.113  1.00  0.00     0.068 A 
HETATM   15  C   UNL     1       4.689  -1.098   0.062  1.00  0.00     0.037 A 
HETATM   16  C   UNL     1       5.220  -2.377  -0.151  1.00  0.00     0.016 A 
BRANCH  14  17
HETATM   17  O   UNL     1       2.663   0.273   0.321  1.00  0.00    -0.356 OA
HETATM   18  C   UNL     1       3.476   1.398   0.632  1.00  0.00     0.210 C 
ENDBRANCH  14  17
ENDBRANCH   9  11
ENDBRANCH   1   5
BRANCH   2  19
HETATM   19  N   UNL     1       4.113 -10.474  -0.009  1.00  0.00    -0.267 N 
HETATM   20  C   UNL     1       2.894 -11.095   0.117  1.00  0.00     0.240 C 
HETATM   21  O   UNL     1       1.820 -10.506   0.161  1.00  0.00    -0.271 OA
HETATM   22  H   UNL     1       5.001 -10.974   0.015  1.00  0.00     0.190 HD
BRANCH  20  23
HETATM   23  C   UNL     1       2.991 -12.569   0.227  1.00  0.00     0.089 A 
HETATM   24  C   UNL     1       2.976 -13.179   1.622  1.00  0.00     0.036 A 
HETATM   25  C   UNL     1       1.835 -13.426   0.669  1.00  0.00     0.025 A 
BRANCH  24  26
HETATM   26  C   UNL     1       4.008 -14.231   1.945  1.00  0.00    -0.015 A 
HETATM   27  C   UNL     1       5.371 -13.900   2.017  1.00  0.00     0.123 A 
HETATM   28  F   UNL     1       5.752 -12.637   1.765  1.00  0.00    -0.206 F 
HETATM   29  C   UNL     1       6.350 -14.838   2.336  1.00  0.00     0.043 A 
HETATM   30  C   UNL     1       5.981 -16.155   2.592  1.00  0.00     0.003 A 
HETATM   31  C   UNL     1       4.636 -16.518   2.532  1.00  0.00     0.001 A 
HETATM   32  C   UNL     1       3.662 -15.564   2.217  1.00  0.00     0.011 A 
ENDBRANCH  24  26
ENDBRANCH  20  23
ENDBRANCH   2  19
TORSDOF 6
