REMARK  5 active torsions:
REMARK  status: ('A' for Active; 'I' for Inactive)
REMARK    1  A    between atoms: C_4  and  N_5 
REMARK       I    between atoms: N_5  and  C_6 
REMARK       I    between atoms: C_6  and  N_7 
REMARK    2  A    between atoms: N_7  and  C_8 
REMARK    3  A    between atoms: C_17  and  C_18 
REMARK       I    between atoms: C_18  and  N_19 
REMARK    4  A    between atoms: N_19  and  C_20 
REMARK    5  A    between atoms: C_20  and  C_21 
ROOT
HETATM    1  C   UNL     1       1.661   0.144   0.109  1.00  0.00     0.072 C 
HETATM    2  C   UNL     1       3.048  -0.239   0.487  1.00  0.00     0.056 C 
HETATM    3  N   UNL     1       4.075   0.677   0.256  1.00  0.00    -0.228 NA
HETATM    4  C   UNL     1       5.229   0.141   0.574  1.00  0.00     0.175 C 
HETATM    5  S   UNL     1       5.148  -1.383   1.313  1.00  0.00    -0.044 SA
HETATM    6  C   UNL     1       3.463  -1.457   1.004  1.00  0.00     0.100 C 
ENDROOT
BRANCH   4   7
HETATM    7  N   UNL     1       6.418   0.773   0.304  1.00  0.00    -0.287 N 
HETATM    8  C   UNL     1       7.674   0.201   0.387  1.00  0.00     0.326 C 
HETATM    9  N   UNL     1       8.644   1.055  -0.118  1.00  0.00    -0.309 N 
HETATM   10  O   UNL     1       7.913  -0.918   0.822  1.00  0.00    -0.247 OA
HETATM   11  H   UNL     1       8.357   2.002  -0.316  1.00  0.00     0.170 HD
HETATM   12  H   UNL     1       6.294   1.648  -0.177  1.00  0.00     0.172 HD
BRANCH   9  13
HETATM   13  C   UNL     1      10.009   0.759  -0.342  1.00  0.00     0.037 A 
HETATM   14  C   UNL     1      10.586  -0.497  -0.129  1.00  0.00     0.053 A 
HETATM   15  C   UNL     1      11.940  -0.705  -0.400  1.00  0.00     0.036 A 
HETATM   16 CL   UNL     1      12.636  -2.258  -0.134  1.00  0.00    -0.084 Cl
HETATM   17  C   UNL     1      12.734   0.328  -0.888  1.00  0.00     0.024 A 
HETATM   18  C   UNL     1      12.170   1.582  -1.106  1.00  0.00     0.004 A 
HETATM   19  C   UNL     1      10.815   1.795  -0.833  1.00  0.00     0.029 A 
ENDBRANCH   9  13
ENDBRANCH   4   7
BRANCH   6  20
HETATM   20  C   UNL     1       2.706  -2.677   1.226  1.00  0.00     0.260 C 
HETATM   21  N   UNL     1       3.441  -3.721   1.739  1.00  0.00    -0.352 N 
HETATM   22  H   UNL     1       4.401  -3.541   2.009  1.00  0.00     0.163 HD
HETATM   23  O   UNL     1       1.521  -2.804   0.936  1.00  0.00    -0.267 OA
BRANCH  21  24
HETATM   24  C   UNL     1       2.977  -5.086   1.740  1.00  0.00     0.161 C 
BRANCH  24  25
HETATM   25  C   UNL     1       4.139  -6.047   1.840  1.00  0.00    -0.040 A 
HETATM   26  C   UNL     1       4.106  -7.110   2.756  1.00  0.00     0.012 A 
HETATM   27  C   UNL     1       5.183  -7.995   2.852  1.00  0.00     0.043 A 
HETATM   28  C   UNL     1       6.293  -7.821   2.034  1.00  0.00     0.116 A 
HETATM   29  F   UNL     1       7.328  -8.666   2.137  1.00  0.00    -0.206 F 
HETATM   30  C   UNL     1       6.343  -6.787   1.110  1.00  0.00     0.043 A 
HETATM   31  C   UNL     1       5.264  -5.909   1.003  1.00  0.00     0.012 A 
ENDBRANCH  24  25
ENDBRANCH  21  24
ENDBRANCH   6  20
TORSDOF 5
