REMARK  5 active torsions:
REMARK  status: ('A' for Active; 'I' for Inactive)
REMARK    1  A    between atoms: C_3  and  N_4 
REMARK    2  A    between atoms: N_5  and  C_6 
REMARK    3  A    between atoms: C_6  and  C_7 
REMARK    4  A    between atoms: C_7  and  C_8 
REMARK    5  A    between atoms: C_16  and  C_17 
ROOT
HETATM    1  C   UNL     1       0.942  -0.055  -0.161  1.00  0.00     0.175 C 
HETATM    2  N   UNL     1       2.397  -0.101  -0.188  1.00  0.00    -0.186 N 
HETATM    3  C   UNL     1       3.175   0.979  -0.182  1.00  0.00     0.680 A 
HETATM    4  N   UNL     1       4.435   0.606   0.007  1.00  0.00    -0.184 N 
HETATM    5  C   UNL     1       4.471  -0.774   0.097  1.00  0.00     0.140 A 
HETATM    6  C   UNL     1       3.192  -1.261  -0.078  1.00  0.00     0.077 A 
ENDROOT
BRANCH   4   7
HETATM    7  C   UNL     1       5.633   1.470   0.024  1.00  0.00     0.231 C 
BRANCH   7   8
HETATM    8  C   UNL     1       5.520   2.608   1.031  1.00  0.00     0.178 C 
HETATM    9  O   UNL     1       4.538   3.355   1.045  1.00  0.00    -0.290 OA
BRANCH   8  10
HETATM   10  C   UNL     1       6.606   2.803   2.024  1.00  0.00     0.011 A 
HETATM   11  C   UNL     1       7.948   2.553   1.713  1.00  0.00     0.015 A 
HETATM   12  C   UNL     1       8.931   2.738   2.688  1.00  0.00     0.001 A 
HETATM   13  C   UNL     1       8.578   3.175   3.965  1.00  0.00     0.000 A 
HETATM   14  C   UNL     1       7.245   3.441   4.271  1.00  0.00     0.001 A 
HETATM   15  C   UNL     1       6.258   3.262   3.301  1.00  0.00     0.015 A 
ENDBRANCH   8  10
ENDBRANCH   7   8
ENDBRANCH   4   7
BRANCH   3  16
HETATM   16  N   UNL     1       2.746   2.228  -0.327  1.00  0.00    -0.234 N 
HETATM   17  H   UNL     1       1.789   2.457  -0.534  1.00  0.00     0.174 HD
HETATM   18  H   UNL     1       3.351   2.995  -0.027  1.00  0.00     0.174 HD
ENDBRANCH   3  16
BRANCH   6  19
HETATM   19  C   UNL     1       2.820  -2.722  -0.116  1.00  0.00    -0.004 A 
HETATM   20  C   UNL     1       3.713  -3.673   0.405  1.00  0.00     0.053 A 
HETATM   21  C   UNL     1       3.348  -5.003   0.356  1.00  0.00     0.106 A 
HETATM   22  C   UNL     1       2.156  -5.411  -0.187  1.00  0.00     0.105 A 
HETATM   23  O   UNL     1       4.091  -6.043   0.820  1.00  0.00    -0.323 OA
HETATM   24  O   UNL     1       1.995  -6.758  -0.134  1.00  0.00    -0.323 OA
HETATM   25  C   UNL     1       1.264  -4.509  -0.720  1.00  0.00     0.040 A 
HETATM   26  C   UNL     1       3.226  -7.158   0.506  1.00  0.00     0.352 A 
HETATM   27  C   UNL     1       1.606  -3.150  -0.689  1.00  0.00     0.017 A 
ENDBRANCH   6  19
TORSDOF 5
