REMARK  5 active torsions:
REMARK  status: ('A' for Active; 'I' for Inactive)
REMARK    1  A    between atoms: C_3  and  N_4 
REMARK       I    between atoms: N_4  and  C_5 
REMARK    2  A    between atoms: C_5  and  C_6 
REMARK    3  A    between atoms: C_6  and  N_7 
REMARK    4  A    between atoms: C_6  and  C_16 
REMARK       I    between atoms: N_7  and  C_8 
REMARK    5  A    between atoms: C_8  and  C_9 
ROOT
HETATM    1  C   UNL     1       0.287  -1.329  -0.424  1.00  0.00     0.210 C 
ENDROOT
BRANCH   1   2
HETATM    2  C   UNL     1       1.314  -2.491  -0.255  1.00  0.00     0.249 C 
HETATM    3  N   UNL     1       2.015  -2.506   0.940  1.00  0.00    -0.324 N 
HETATM    4  H   UNL     1       1.603  -1.948   1.686  1.00  0.00     0.169 HD
HETATM    5  O   UNL     1       1.484  -3.293  -1.177  1.00  0.00    -0.270 OA
BRANCH   3   6
HETATM    6  C   UNL     1       2.898  -3.537   1.345  1.00  0.00     0.046 A 
HETATM    7  C   UNL     1       3.963  -3.988   0.537  1.00  0.00    -0.035 A 
HETATM    8  C   UNL     1       4.339  -3.365  -0.780  1.00  0.00     0.050 C 
HETATM    9  C   UNL     1       4.771  -5.046   0.992  1.00  0.00     0.009 A 
HETATM   10  C   UNL     1       4.574  -5.611   2.248  1.00  0.00     0.001 A 
HETATM   11  C   UNL     1       3.567  -5.124   3.071  1.00  0.00     0.009 A 
HETATM   12  C   UNL     1       2.721  -4.090   2.636  1.00  0.00    -0.035 A 
HETATM   13  C   UNL     1       1.630  -3.631   3.567  1.00  0.00     0.050 C 
ENDBRANCH   3   6
ENDBRANCH   1   2
BRANCH   1  14
HETATM   14  N   UNL     1      -0.696  -1.221   0.654  1.00  0.00    -0.338 N 
HETATM   15  C   UNL     1      -0.448  -0.786   1.931  1.00  0.00     0.273 C 
HETATM   16  O   UNL     1       0.680  -0.689   2.404  1.00  0.00    -0.266 OA
HETATM   17  H   UNL     1      -1.678  -1.180   0.393  1.00  0.00     0.164 HD
BRANCH  15  18
HETATM   18  C   UNL     1      -1.666  -0.460   2.685  1.00  0.00     0.145 A 
HETATM   19  N   UNL     1      -2.891  -0.542   2.126  1.00  0.00    -0.170 NA
HETATM   20  N   UNL     1      -3.725  -0.168   3.113  1.00  0.00    -0.289 N 
HETATM   21  H   UNL     1      -4.723  -0.155   2.924  1.00  0.00     0.188 HD
HETATM   22  C   UNL     1      -3.088   0.157   4.272  1.00  0.00     0.112 A 
HETATM   23  C   UNL     1      -1.748  -0.021   4.031  1.00  0.00     0.058 A 
ENDBRANCH  15  18
ENDBRANCH   1  14
BRANCH   1  24
HETATM   24  C   UNL     1       0.890   0.003  -0.874  1.00  0.00    -0.026 A 
HETATM   25  C   UNL     1       2.041   0.030  -1.681  1.00  0.00     0.010 A 
HETATM   26  C   UNL     1       2.567   1.235  -2.155  1.00  0.00     0.001 A 
HETATM   27  C   UNL     1       1.939   2.438  -1.851  1.00  0.00     0.000 A 
HETATM   28  C   UNL     1       0.780   2.436  -1.082  1.00  0.00     0.001 A 
HETATM   29  C   UNL     1       0.254   1.230  -0.608  1.00  0.00     0.010 A 
ENDBRANCH   1  24
TORSDOF 5
