REMARK  7 active torsions:
REMARK  status: ('A' for Active; 'I' for Inactive)
REMARK    1  A    between atoms: N_2  and  C_4 
REMARK       I    between atoms: N_7  and  C_8 
REMARK    2  A    between atoms: C_8  and  C_9 
REMARK    3  A    between atoms: N_12  and  C_13 
REMARK    4  A    between atoms: C_20  and  C_21 
REMARK    5  A    between atoms: C_21  and  N_22 
REMARK    6  A    between atoms: N_22  and  C_25 
REMARK    7  A    between atoms: C_25  and  C_26 
ROOT
HETATM    1  C   UNL     1       7.541  -1.732   7.118  1.00  0.00     0.719 A 
HETATM    2  N   UNL     1       8.261  -2.877   7.434  1.00  0.00    -0.154 N 
HETATM    3  C   UNL     1       9.188  -2.480   8.406  1.00  0.00     0.083 A 
HETATM    4  C   UNL     1      10.038  -3.470   8.977  1.00  0.00     0.033 A 
HETATM    5  C   UNL     1       9.966  -4.738   8.531  1.00  0.00     0.004 A 
HETATM    6  C   UNL     1       9.057  -5.114   7.467  1.00  0.00     0.018 A 
HETATM    7  C   UNL     1       8.234  -4.188   6.947  1.00  0.00     0.115 A 
HETATM    8  C   UNL     1       9.051  -1.117   8.537  1.00  0.00     0.107 A 
HETATM    9  N   UNL     1       8.030  -0.659   7.731  1.00  0.00    -0.064 NA
ENDROOT
BRANCH   1  10
HETATM   10  N   UNL     1       6.425  -1.638   6.276  1.00  0.00    -0.147 N 
HETATM   11  C   UNL     1       5.899  -0.450   5.806  1.00  0.00     0.233 A 
HETATM   12  N   UNL     1       4.862  -0.622   5.017  1.00  0.00    -0.236 NA
HETATM   13  C   UNL     1       4.644  -1.982   4.986  1.00  0.00     0.142 A 
HETATM   14  C   UNL     1       5.595  -2.611   5.774  1.00  0.00     0.153 A 
BRANCH  13  15
HETATM   15  C   UNL     1       3.613  -2.690   4.206  1.00  0.00     0.273 C 
HETATM   16  N   UNL     1       2.567  -1.964   3.595  1.00  0.00    -0.347 N 
HETATM   17  C   UNL     1       1.993  -0.760   4.190  1.00  0.00     0.128 C 
HETATM   18  C   UNL     1       1.690  -2.729   2.713  1.00  0.00     0.128 C 
HETATM   19  C   UNL     1       1.352   0.133   3.135  1.00  0.00     0.053 C 
HETATM   20  C   UNL     1       0.332  -0.620   2.269  1.00  0.00     0.190 C 
HETATM   21  C   UNL     1       1.025  -1.847   1.662  1.00  0.00     0.053 C 
HETATM   22  O   UNL     1       3.687  -3.912   4.069  1.00  0.00    -0.266 OA
BRANCH  20  23
HETATM   23  N   UNL     1      -0.933  -1.011   3.056  1.00  0.00    -0.074 N 
HETATM   24  C   UNL     1      -1.991  -1.655   2.180  1.00  0.00     0.269 C 
HETATM   25  H   UNL     1      -0.684  -1.712   3.765  1.00  0.00     0.279 HD
HETATM   26  C   UNL     1      -1.564   0.146   3.804  1.00  0.00     0.269 C 
ENDBRANCH  20  23
ENDBRANCH  13  15
ENDBRANCH   1  10
BRANCH   8  27
HETATM   27  C   UNL     1       9.818  -0.165   9.390  1.00  0.00     0.294 C 
BRANCH  27  28
HETATM   28  N   UNL     1       8.977   1.001   9.750  1.00  0.00    -0.064 N 
HETATM   29  H   UNL     1       8.566   1.380   8.886  1.00  0.00     0.278 HD
HETATM   30  H   UNL     1       8.156   0.687  10.282  1.00  0.00     0.278 HD
BRANCH  28  31
HETATM   31  C   UNL     1       9.655   2.083  10.503  1.00  0.00     0.297 C 
BRANCH  31  32
HETATM   32  C   UNL     1       8.703   3.125  10.955  1.00  0.00     0.078 A 
HETATM   33  O   UNL     1       7.412   3.008  10.520  1.00  0.00    -0.325 OA
HETATM   34  C   UNL     1       6.719   4.048  11.055  1.00  0.00     0.142 A 
HETATM   35  C   UNL     1       7.545   4.827  11.831  1.00  0.00     0.027 A 
HETATM   36  C   UNL     1       8.828   4.232  11.767  1.00  0.00     0.036 A 
ENDBRANCH  31  32
ENDBRANCH  28  31
ENDBRANCH  27  28
ENDBRANCH   8  27
TORSDOF 7
