REMARK  6 active torsions:
REMARK  status: ('A' for Active; 'I' for Inactive)
REMARK    1  A    between atoms: C_2  and  C_3 
REMARK    2  A    between atoms: C_3  and  N_4 
REMARK    3  A    between atoms: C_10  and  S_11 
REMARK    4  A    between atoms: S_11  and  C_12 
REMARK    5  A    between atoms: C_12  and  C_13 
REMARK       I    between atoms: C_13  and  N_14 
REMARK    6  A    between atoms: N_14  and  C_15 
ROOT
HETATM    1  N   UNL     1       4.540   0.069   0.118  1.00  0.00    -0.063 N 
HETATM    2  H   UNL     1       4.948   0.085  -0.825  1.00  0.00     0.280 HD
HETATM    3  C   UNL     1       4.035   1.482   0.392  1.00  0.00     0.281 C 
HETATM    4  C   UNL     1       5.106   2.423   0.823  1.00  0.00     0.060 A 
HETATM    5  C   UNL     1       6.370   2.076   1.106  1.00  0.00     0.052 A 
HETATM    6  N   UNL     1       7.325   2.957   1.542  1.00  0.00    -0.228 NA
HETATM    7  C   UNL     1       6.981   4.195   1.668  1.00  0.00     0.169 A 
HETATM    8  N   UNL     1       5.738   4.668   1.386  1.00  0.00    -0.302 N 
HETATM    9  C   UNL     1       4.736   3.844   0.974  1.00  0.00     0.257 A 
HETATM   10  O   UNL     1       3.592   4.214   0.751  1.00  0.00    -0.267 OA
HETATM   11  C   UNL     1       6.806   0.638   1.004  1.00  0.00     0.088 C 
HETATM   12  C   UNL     1       5.632  -0.336   1.085  1.00  0.00     0.241 C 
HETATM   13  H   UNL     1       5.537   5.650   1.511  1.00  0.00     0.171 HD
ENDROOT
BRANCH   7  14
HETATM   14  S   UNL     1       8.071   5.422   2.235  1.00  0.00    -0.083 SA
BRANCH  14  15
HETATM   15  C   UNL     1       9.394   4.356   2.888  1.00  0.00     0.185 C 
BRANCH  15  16
HETATM   16  C   UNL     1      10.566   5.117   3.483  1.00  0.00     0.232 C 
HETATM   17  N   UNL     1      10.236   6.299   4.120  1.00  0.00    -0.324 N 
HETATM   18  H   UNL     1       9.394   6.753   3.783  1.00  0.00     0.169 HD
HETATM   19  O   UNL     1      11.698   4.644   3.405  1.00  0.00    -0.272 OA
BRANCH  17  20
HETATM   20  C   UNL     1      11.101   7.061   4.937  1.00  0.00     0.076 A 
HETATM   21  C   UNL     1      12.154   6.517   5.691  1.00  0.00     0.143 A 
HETATM   22  F   UNL     1      12.344   5.192   5.765  1.00  0.00    -0.204 F 
HETATM   23  C   UNL     1      12.973   7.327   6.479  1.00  0.00     0.047 A 
HETATM   24  C   UNL     1      12.741   8.699   6.537  1.00  0.00     0.045 A 
HETATM   25  C   UNL     1      11.678   9.236   5.820  1.00  0.00     0.118 A 
HETATM   26  F   UNL     1      11.440  10.553   5.886  1.00  0.00    -0.206 F 
HETATM   27  C   UNL     1      10.852   8.434   5.034  1.00  0.00     0.074 A 
ENDBRANCH  17  20
ENDBRANCH  15  16
ENDBRANCH  14  15
ENDBRANCH   7  14
BRANCH   1  28
HETATM   28  C   UNL     1       3.428  -0.954   0.090  1.00  0.00     0.273 C 
BRANCH  28  29
HETATM   29  C   UNL     1       2.458  -0.765  -1.043  1.00  0.00    -0.030 A 
HETATM   30  C   UNL     1       1.159  -0.259  -0.797  1.00  0.00     0.012 A 
HETATM   31  C   UNL     1       0.240  -0.099  -1.839  1.00  0.00     0.040 A 
HETATM   32  C   UNL     1       0.639  -0.451  -3.109  1.00  0.00     0.105 A 
HETATM   33  C   UNL     1       1.899  -0.936  -3.359  1.00  0.00     0.105 A 
HETATM   34  O   UNL     1      -0.121  -0.378  -4.232  1.00  0.00    -0.323 OA
HETATM   35  C   UNL     1       2.831  -1.103  -2.356  1.00  0.00     0.048 A 
HETATM   36  O   UNL     1       2.092  -1.229  -4.672  1.00  0.00    -0.323 OA
HETATM   37  C   UNL     1       0.792  -0.905  -5.219  1.00  0.00     0.352 A 
ENDBRANCH  28  29
ENDBRANCH   1  28
TORSDOF 6
