REMARK  8 active torsions:
REMARK  status: ('A' for Active; 'I' for Inactive)
REMARK    1  A    between atoms: C_2  and  N_3 
REMARK    2  A    between atoms: C_2  and  C_17 
REMARK    3  A    between atoms: N_3  and  N_4 
REMARK       I    between atoms: N_4  and  C_5 
REMARK    4  A    between atoms: C_5  and  C_6 
REMARK    5  A    between atoms: C_6  and  N_7 
REMARK    6  A    between atoms: N_7  and  C_8 
REMARK    7  A    between atoms: C_9  and  O_10 
REMARK       I    between atoms: C_17  and  N_18 
REMARK    8  A    between atoms: N_18  and  C_19 
ROOT
HETATM    1  N   UNL     1       3.586  -1.301   1.895  1.00  0.00    -0.225 NA
HETATM    2  H   UNL     1       3.854  -2.086   2.507  1.00  0.00     0.147 HD
ENDROOT
BRANCH   1   3
HETATM    3  C   UNL     1       4.807  -0.973   1.101  1.00  0.00     0.165 C 
HETATM    4  C   UNL     1       4.729   0.374   0.386  1.00  0.00     0.038 C 
BRANCH   3   5
HETATM    5  C   UNL     1       5.016  -2.082   0.036  1.00  0.00     0.241 C 
HETATM    6  N   UNL     1       3.867  -2.821  -0.200  1.00  0.00    -0.326 N 
HETATM    7  H   UNL     1       3.082  -2.550   0.387  1.00  0.00     0.169 HD
HETATM    8  O   UNL     1       6.095  -2.224  -0.532  1.00  0.00    -0.271 OA
BRANCH   6   9
HETATM    9  C   UNL     1       3.683  -3.910  -1.069  1.00  0.00     0.036 A 
HETATM   10  C   UNL     1       4.646  -4.356  -1.975  1.00  0.00     0.053 A 
HETATM   11  C   UNL     1       4.374  -5.454  -2.794  1.00  0.00     0.036 A 
HETATM   12 CL   UNL     1       5.560  -5.997  -3.920  1.00  0.00    -0.084 Cl
HETATM   13  C   UNL     1       3.152  -6.120  -2.717  1.00  0.00     0.024 A 
HETATM   14  C   UNL     1       2.186  -5.678  -1.817  1.00  0.00     0.004 A 
HETATM   15  C   UNL     1       2.450  -4.574  -1.002  1.00  0.00     0.029 A 
ENDBRANCH   6   9
ENDBRANCH   3   5
ENDBRANCH   1   3
BRANCH   1  16
HETATM   16  N   UNL     1       3.186  -0.245   2.752  1.00  0.00    -0.290 N 
HETATM   17  C   UNL     1       3.691  -0.184   4.049  1.00  0.00     0.245 C 
HETATM   18  O   UNL     1       4.669  -0.822   4.433  1.00  0.00    -0.271 OA
HETATM   19  H   UNL     1       2.230   0.120   2.668  1.00  0.00     0.183 HD
BRANCH  17  20
HETATM   20  C   UNL     1       2.898   0.772   4.947  1.00  0.00     0.196 C 
BRANCH  20  21
HETATM   21  N   UNL     1       1.491   0.869   4.517  1.00  0.00    -0.282 NA
HETATM   22  H   UNL     1       1.084   1.793   4.686  1.00  0.00     0.128 HD
BRANCH  21  23
HETATM   23  C   UNL     1       0.562  -0.097   4.970  1.00  0.00     0.042 A 
HETATM   24  C   UNL     1      -0.814   0.243   4.975  1.00  0.00     0.089 A 
HETATM   25  C   UNL     1      -1.778  -0.710   5.323  1.00  0.00     0.038 A 
HETATM   26  C   UNL     1      -1.393  -2.011   5.646  1.00  0.00     0.003 A 
HETATM   27  C   UNL     1      -0.049  -2.365   5.617  1.00  0.00     0.002 A 
HETATM   28  C   UNL     1       0.919  -1.419   5.271  1.00  0.00     0.026 A 
BRANCH  24  29
HETATM   29  O   UNL     1      -1.091   1.552   4.647  1.00  0.00    -0.354 OA
HETATM   30  C   UNL     1      -2.463   1.908   4.525  1.00  0.00     0.210 C 
ENDBRANCH  24  29
ENDBRANCH  21  23
ENDBRANCH  20  21
ENDBRANCH  17  20
ENDBRANCH   1  16
TORSDOF 8
