REMARK  5 active torsions:
REMARK  status: ('A' for Active; 'I' for Inactive)
REMARK    1  A    between atoms: C_5  and  C_6 
REMARK    2  A    between atoms: C_6  and  N_7 
REMARK    3  A    between atoms: C_9  and  C_10 
REMARK       I    between atoms: C_10  and  N_11 
REMARK    4  A    between atoms: N_11  and  C_12 
REMARK    5  A    between atoms: C_12  and  O_13 
ROOT
HETATM    1  N   UNL     1       2.481  -3.569   0.095  1.00  0.00    -0.361 N 
HETATM    2  C   UNL     1       3.010  -4.104  -1.033  1.00  0.00     0.107 A 
HETATM    3  C   UNL     1       4.239  -4.766  -1.005  1.00  0.00     0.047 A 
HETATM    4  C   UNL     1       4.932  -4.849   0.202  1.00  0.00     0.020 A 
HETATM    5  C   UNL     1       4.373  -4.291   1.350  1.00  0.00     0.018 A 
HETATM    6  C   UNL     1       3.134  -3.661   1.277  1.00  0.00     0.090 A 
ENDROOT
BRANCH   1   7
HETATM    7  C   UNL     1       1.143  -2.925   0.038  1.00  0.00     0.167 C 
BRANCH   7   8
HETATM    8  C   UNL     1       1.169  -1.423  -0.142  1.00  0.00    -0.029 A 
HETATM    9  C   UNL     1      -0.070  -0.713  -0.231  1.00  0.00    -0.018 A 
HETATM   10  C   UNL     1      -0.044   0.698  -0.378  1.00  0.00    -0.025 A 
HETATM   11  C   UNL     1      -1.344  -1.333  -0.185  1.00  0.00     0.013 A 
HETATM   12  C   UNL     1      -1.242   1.424  -0.471  1.00  0.00     0.012 A 
HETATM   13  C   UNL     1       1.180   1.374  -0.433  1.00  0.00     0.012 A 
HETATM   14  C   UNL     1      -2.476   0.782  -0.425  1.00  0.00     0.001 A 
HETATM   15  C   UNL     1      -2.528  -0.596  -0.283  1.00  0.00     0.001 A 
HETATM   16  C   UNL     1       2.381   0.680  -0.355  1.00  0.00     0.002 A 
HETATM   17  C   UNL     1       2.379  -0.705  -0.214  1.00  0.00     0.010 A 
ENDBRANCH   7   8
ENDBRANCH   1   7
BRANCH   3  18
HETATM   18  C   UNL     1       4.718  -5.333  -2.288  1.00  0.00     0.254 C 
HETATM   19  N   UNL     1       5.795  -6.175  -2.261  1.00  0.00    -0.336 N 
HETATM   20  H   UNL     1       6.252  -6.494  -1.422  1.00  0.00     0.164 HD
HETATM   21  O   UNL     1       4.110  -5.041  -3.312  1.00  0.00    -0.268 OA
BRANCH  19  22
HETATM   22  C   UNL     1       6.282  -6.790  -3.450  1.00  0.00     0.290 C 
BRANCH  22  23
HETATM   23  O   UNL     1       7.398  -7.533  -3.027  1.00  0.00    -0.382 OA
HETATM   24  H   UNL     1       7.775  -7.939  -3.827  1.00  0.00     0.211 HD
ENDBRANCH  22  23
ENDBRANCH  19  22
ENDBRANCH   3  18
TORSDOF 5
