REMARK  6 active torsions:
REMARK  status: ('A' for Active; 'I' for Inactive)
REMARK    1  A    between atoms: C_4  and  O_5 
REMARK    2  A    between atoms: O_5  and  C_6 
REMARK    3  A    between atoms: C_6  and  C_7 
REMARK       I    between atoms: C_7  and  N_8 
REMARK    4  A    between atoms: N_8  and  C_9 
REMARK    5  A    between atoms: C_9  and  C_10 
REMARK       I    between atoms: C_10  and  N_11 
REMARK    6  A    between atoms: N_11  and  N_12 
ROOT
HETATM    1  C   UNL     1       8.935   3.052  -1.531  1.00  0.00     0.255 C 
HETATM    2  N   UNL     1       9.770   3.874  -0.798  1.00  0.00    -0.245 N 
HETATM    3  O   UNL     1       9.303   2.052  -2.152  1.00  0.00    -0.270 OA
HETATM    4  H   UNL     1       9.381   4.707  -0.354  1.00  0.00     0.192 HD
ENDROOT
BRANCH   1   5
HETATM    5  C   UNL     1       7.446   3.405  -1.441  1.00  0.00     0.227 C 
BRANCH   5   6
HETATM    6  N   UNL     1       7.050   4.675  -0.841  1.00  0.00    -0.350 N 
HETATM    7  C   UNL     1       7.287   5.850  -1.537  1.00  0.00     0.242 C 
HETATM    8  O   UNL     1       8.136   5.936  -2.419  1.00  0.00    -0.271 OA
HETATM    9  H   UNL     1       6.162   4.659  -0.350  1.00  0.00     0.163 HD
BRANCH   7  10
HETATM   10  C   UNL     1       6.416   7.024  -1.112  1.00  0.00     0.278 C 
BRANCH  10  11
HETATM   11  O   UNL     1       5.109   6.757  -1.626  1.00  0.00    -0.342 OA
BRANCH  11  12
HETATM   12  C   UNL     1       4.415   7.906  -1.894  1.00  0.00     0.069 A 
HETATM   13  C   UNL     1       4.144   8.859  -0.912  1.00  0.00     0.043 A 
HETATM   14  C   UNL     1       3.398  10.002  -1.229  1.00  0.00    -0.059 A 
HETATM   15  C   UNL     1       3.079  11.030  -0.184  1.00  0.00     0.048 C 
HETATM   16  C   UNL     1       2.917  10.164  -2.536  1.00  0.00     0.007 A 
HETATM   17  C   UNL     1       3.174   9.198  -3.510  1.00  0.00     0.003 A 
HETATM   18  C   UNL     1       3.915   8.063  -3.186  1.00  0.00     0.037 A 
ENDBRANCH  11  12
ENDBRANCH  10  11
ENDBRANCH   7  10
ENDBRANCH   5   6
ENDBRANCH   1   5
BRANCH   2  19
HETATM   19  N   UNL     1      11.124   3.741  -0.917  1.00  0.00    -0.166 NA
HETATM   20  C   UNL     1      11.856   4.590  -0.273  1.00  0.00     0.157 A 
HETATM   21  C   UNL     1      11.424   5.704   0.686  1.00  0.00     0.277 A 
HETATM   22  C   UNL     1      13.312   4.646  -0.323  1.00  0.00     0.028 A 
HETATM   23  O   UNL     1      10.277   5.991   0.956  1.00  0.00    -0.266 OA
HETATM   24  N   UNL     1      12.597   6.272   1.139  1.00  0.00    -0.321 N 
HETATM   25  C   UNL     1      13.701   5.666   0.544  1.00  0.00     0.048 A 
HETATM   26  H   UNL     1      12.624   7.043   1.790  1.00  0.00     0.169 HD
HETATM   27  C   UNL     1      15.031   5.985   0.718  1.00  0.00     0.032 A 
HETATM   28  C   UNL     1      15.970   5.253  -0.021  1.00  0.00     0.021 A 
HETATM   29  C   UNL     1      15.560   4.232  -0.904  1.00  0.00     0.012 A 
HETATM   30 BR   UNL     1      16.866   3.290  -1.898  1.00  0.00    -0.051 Br
HETATM   31  C   UNL     1      14.213   3.909  -1.065  1.00  0.00     0.035 A 
ENDBRANCH   2  19
TORSDOF 6
