REMARK  2 active torsions:
REMARK  status: ('A' for Active; 'I' for Inactive)
REMARK    1  A    between atoms: C_9  and  N_10 
REMARK    2  A    between atoms: N_13  and  C_15 
ROOT
HETATM    1  N   UNL     1      -2.212   2.335   0.290  1.00  0.00    -0.376 N 
HETATM    2  C   UNL     1      -2.273   3.290  -0.832  1.00  0.00     0.150 C 
HETATM    3  C   UNL     1      -1.795   4.682  -0.372  1.00  0.00     0.255 C 
HETATM    4  N   UNL     1      -2.587   5.206   0.847  1.00  0.00    -0.064 N 
HETATM    5  H   UNL     1      -3.556   5.347   0.538  1.00  0.00     0.280 HD
HETATM    6  C   UNL     1      -2.624   4.127   1.949  1.00  0.00     0.255 C 
HETATM    7  C   UNL     1      -3.078   2.757   1.411  1.00  0.00     0.150 C 
ENDROOT
BRANCH   1   8
HETATM    8  C   UNL     1      -1.970   0.982   0.066  1.00  0.00     0.053 A 
HETATM    9  C   UNL     1      -1.233   0.169   1.063  1.00  0.00     0.013 A 
HETATM   10  C   UNL     1      -0.642   0.568   2.257  1.00  0.00     0.015 A 
HETATM   11  C   UNL     1      -1.092  -1.164   0.679  1.00  0.00     0.075 A 
HETATM   12  C   UNL     1       0.034  -0.379   3.041  1.00  0.00     0.001 A 
HETATM   13  C   UNL     1       0.137  -1.716   2.628  1.00  0.00     0.002 A 
HETATM   14  C   UNL     1      -0.426  -2.124   1.421  1.00  0.00     0.025 A 
HETATM   15  S   UNL     1      -1.812  -1.405  -0.887  1.00  0.00     0.200 S 
HETATM   16  O   UNL     1      -2.984  -2.237  -0.724  1.00  0.00    -0.218 OA
HETATM   17  O   UNL     1      -0.758  -1.690  -1.836  1.00  0.00    -0.218 OA
HETATM   18  C   UNL     1      -2.288   0.257  -1.022  1.00  0.00     0.144 A 
ENDBRANCH   1   8
BRANCH   4  19
HETATM   19  C   UNL     1      -2.026   6.548   1.358  1.00  0.00     0.188 C 
HETATM   20  C   UNL     1      -2.107   7.638   0.274  1.00  0.00     0.033 C 
HETATM   21  C   UNL     1      -3.543   8.037  -0.063  1.00  0.00     0.002 C 
HETATM   22  C   UNL     1      -4.313   8.468   1.183  1.00  0.00     0.000 C 
HETATM   23  C   UNL     1      -4.232   7.430   2.299  1.00  0.00     0.002 C 
HETATM   24  C   UNL     1      -2.783   7.048   2.601  1.00  0.00     0.033 C 
ENDBRANCH   4  19
TORSDOF 2
