REMARK  4 active torsions:
REMARK  status: ('A' for Active; 'I' for Inactive)
REMARK    1  A    between atoms: C_6  and  N_7 
REMARK       I    between atoms: N_7  and  C_8 
REMARK    2  A    between atoms: C_8  and  C_9 
REMARK    3  A    between atoms: C_10  and  C_11 
REMARK    4  A    between atoms: C_12  and  O_13 
ROOT
HETATM    1  C   UNL     1       6.663  -2.216  -0.895  1.00  0.00     0.063 C 
HETATM    2  C   UNL     1       7.475  -3.471  -0.591  1.00  0.00     0.205 C 
HETATM    3  N   UNL     1       6.589  -4.637  -0.462  1.00  0.00    -0.084 N 
HETATM    4  C   UNL     1       5.260  -4.632  -0.799  1.00  0.00     0.725 A 
HETATM    5  N   UNL     1       4.694  -3.493  -1.246  1.00  0.00    -0.192 N 
HETATM    6  N   UNL     1       6.950  -5.824   0.072  1.00  0.00    -0.149 NA
HETATM    7  C   UNL     1       5.807  -6.508  -0.051  1.00  0.00     0.275 A 
HETATM    8  N   UNL     1       4.747  -5.814  -0.574  1.00  0.00    -0.054 NA
HETATM    9  C   UNL     1       5.352  -2.268  -1.236  1.00  0.00     0.037 C 
HETATM   10  C   UNL     1       4.522  -1.070  -1.620  1.00  0.00     0.070 C 
HETATM   11  H   UNL     1       3.700  -3.496  -1.454  1.00  0.00     0.184 HD
ENDROOT
BRANCH   1  12
HETATM   12  C   UNL     1       7.391  -0.933  -0.732  1.00  0.00     0.256 C 
HETATM   13  N   UNL     1       6.920  -0.214   0.349  1.00  0.00    -0.323 N 
HETATM   14  H   UNL     1       6.141  -0.616   0.851  1.00  0.00     0.169 HD
HETATM   15  O   UNL     1       8.284  -0.633  -1.509  1.00  0.00    -0.267 OA
BRANCH  13  16
HETATM   16  C   UNL     1       7.395   1.027   0.837  1.00  0.00     0.041 A 
HETATM   17  C   UNL     1       6.710   1.646   1.906  1.00  0.00    -0.035 A 
HETATM   18  C   UNL     1       7.187   2.867   2.419  1.00  0.00     0.015 A 
HETATM   19  C   UNL     1       5.475   1.049   2.527  1.00  0.00     0.050 C 
HETATM   20  C   UNL     1       8.318   3.489   1.881  1.00  0.00    -0.061 A 
HETATM   21  C   UNL     1       8.839   4.768   2.465  1.00  0.00     0.048 C 
HETATM   22  C   UNL     1       8.991   2.866   0.831  1.00  0.00     0.009 A 
HETATM   23  C   UNL     1       8.530   1.652   0.311  1.00  0.00     0.030 A 
ENDBRANCH  13  16
ENDBRANCH   1  12
BRANCH   2  24
HETATM   24  C   UNL     1       8.554  -3.766  -1.630  1.00  0.00     0.005 A 
HETATM   25  C   UNL     1       9.904  -3.902  -1.250  1.00  0.00     0.076 A 
HETATM   26  C   UNL     1      10.874  -4.170  -2.223  1.00  0.00     0.037 A 
HETATM   27  C   UNL     1      10.514  -4.315  -3.565  1.00  0.00     0.003 A 
HETATM   28  C   UNL     1       9.184  -4.192  -3.948  1.00  0.00     0.001 A 
HETATM   29  C   UNL     1       8.210  -3.920  -2.990  1.00  0.00     0.012 A 
BRANCH  25  30
HETATM   30  O   UNL     1      10.174  -3.740   0.084  1.00  0.00    -0.355 OA
HETATM   31  C   UNL     1      11.479  -4.087   0.531  1.00  0.00     0.210 C 
ENDBRANCH  25  30
ENDBRANCH   2  24
TORSDOF 4
