REMARK  7 active torsions:
REMARK  status: ('A' for Active; 'I' for Inactive)
REMARK    1  A    between atoms: O_2  and  C_3 
REMARK    2  A    between atoms: C_4  and  C_5 
REMARK    3  A    between atoms: N_10  and  C_12 
REMARK    4  A    between atoms: C_12  and  C_13 
REMARK       I    between atoms: C_13  and  N_14 
REMARK    5  A    between atoms: N_14  and  C_15 
REMARK    6  A    between atoms: C_15  and  C_16 
REMARK    7  A    between atoms: C_16  and  C_17 
ROOT
HETATM    1  C   UNL     1       5.120   1.075   1.440  1.00  0.00     0.190 C 
HETATM    2  O   UNL     1       6.125   0.178   1.946  1.00  0.00    -0.339 OA
HETATM    3  C   UNL     1       5.686  -1.116   1.863  1.00  0.00     0.077 A 
HETATM    4  C   UNL     1       5.561  -1.749   0.622  1.00  0.00     0.001 A 
HETATM    5  C   UNL     1       5.958  -1.044  -0.640  1.00  0.00     0.276 C 
HETATM    6  N   UNL     1       5.109   0.159  -0.952  1.00  0.00    -0.056 N 
HETATM    7  H   UNL     1       4.121  -0.103  -0.794  1.00  0.00     0.280 HD
HETATM    8  C   UNL     1       5.398   1.366  -0.051  1.00  0.00     0.273 C 
HETATM    9  C   UNL     1       5.388  -1.779   3.051  1.00  0.00     0.037 A 
HETATM   10  C   UNL     1       4.917  -3.088   3.008  1.00  0.00     0.003 A 
HETATM   11  C   UNL     1       4.760  -3.730   1.780  1.00  0.00     0.001 A 
HETATM   12  C   UNL     1       5.084  -3.068   0.593  1.00  0.00     0.012 A 
ENDROOT
BRANCH   6  13
HETATM   13  C   UNL     1       5.173   0.550  -2.427  1.00  0.00     0.337 C 
BRANCH  13  14
HETATM   14  C   UNL     1       3.999   1.464  -2.777  1.00  0.00     0.243 C 
HETATM   15  N   UNL     1       4.304   2.566  -3.536  1.00  0.00    -0.359 N 
HETATM   16  H   UNL     1       5.278   2.840  -3.636  1.00  0.00     0.162 HD
HETATM   17  O   UNL     1       2.889   1.235  -2.297  1.00  0.00    -0.272 OA
BRANCH  15  18
HETATM   18  C   UNL     1       3.361   3.665  -3.666  1.00  0.00     0.130 C 
BRANCH  18  19
HETATM   19  C   UNL     1       3.261   4.510  -2.395  1.00  0.00     0.098 C 
BRANCH  19  20
HETATM   20  C   UNL     1       4.569   5.197  -2.059  1.00  0.00     0.109 A 
HETATM   21  N   UNL     1       5.680   4.525  -1.988  1.00  0.00    -0.234 NA
HETATM   22  C   UNL     1       6.853   5.244  -1.674  1.00  0.00     0.074 A 
HETATM   23  C   UNL     1       6.849   6.616  -1.402  1.00  0.00     0.061 A 
HETATM   24  C   UNL     1       8.074   4.566  -1.644  1.00  0.00     0.032 A 
HETATM   25  C   UNL     1       5.557   7.315  -1.456  1.00  0.00     0.259 A 
HETATM   26  C   UNL     1       8.027   7.307  -1.101  1.00  0.00     0.019 A 
HETATM   27  O   UNL     1       5.443   8.508  -1.208  1.00  0.00    -0.267 OA
HETATM   28  N   UNL     1       4.482   6.539  -1.804  1.00  0.00    -0.311 N 
HETATM   29  H   UNL     1       3.599   7.032  -1.837  1.00  0.00     0.170 HD
HETATM   30  C   UNL     1       9.235   6.616  -1.074  1.00  0.00     0.001 A 
HETATM   31  C   UNL     1       9.260   5.247  -1.346  1.00  0.00     0.002 A 
ENDBRANCH  19  20
ENDBRANCH  18  19
ENDBRANCH  15  18
ENDBRANCH  13  14
ENDBRANCH   6  13
BRANCH   1  32
HETATM   32  C   UNL     1       5.165   2.338   2.288  1.00  0.00     0.006 A 
HETATM   33  C   UNL     1       4.175   2.574   3.265  1.00  0.00     0.077 A 
HETATM   34  C   UNL     1       4.217   3.745   4.029  1.00  0.00     0.037 A 
HETATM   35  C   UNL     1       5.242   4.673   3.847  1.00  0.00     0.003 A 
HETATM   36  C   UNL     1       6.240   4.435   2.909  1.00  0.00     0.001 A 
HETATM   37  C   UNL     1       6.209   3.272   2.141  1.00  0.00     0.012 A 
BRANCH  33  38
HETATM   38  O   UNL     1       3.202   1.616   3.382  1.00  0.00    -0.355 OA
HETATM   39  C   UNL     1       2.372   1.669   4.539  1.00  0.00     0.210 C 
ENDBRANCH  33  38
ENDBRANCH   1  32
TORSDOF 7
