REMARK  6 active torsions:
REMARK  status: ('A' for Active; 'I' for Inactive)
REMARK    1  A    between atoms: C_5  and  N_6 
REMARK       I    between atoms: N_6  and  C_7 
REMARK    2  A    between atoms: C_7  and  C_8 
REMARK    3  A    between atoms: C_8  and  N_9 
REMARK    4  A    between atoms: C_8  and  C_17 
REMARK       I    between atoms: N_9  and  C_10 
REMARK    5  A    between atoms: C_10  and  C_11 
REMARK    6  A    between atoms: C_17  and  C_18 
ROOT
HETATM    1  C   UNL     1       6.661  -2.571  -0.487  1.00  0.00     0.181 C 
ENDROOT
BRANCH   1   2
HETATM    2  C   UNL     1       7.018  -3.234  -1.846  1.00  0.00     0.245 C 
HETATM    3  N   UNL     1       6.542  -2.522  -2.941  1.00  0.00    -0.325 N 
HETATM    4  H   UNL     1       6.013  -1.681  -2.756  1.00  0.00     0.169 HD
HETATM    5  O   UNL     1       7.728  -4.236  -1.907  1.00  0.00    -0.271 OA
BRANCH   3   6
HETATM    6  C   UNL     1       6.757  -2.797  -4.309  1.00  0.00     0.034 A 
HETATM    7  C   UNL     1       7.488  -3.884  -4.788  1.00  0.00     0.030 A 
HETATM    8  C   UNL     1       7.675  -4.065  -6.164  1.00  0.00     0.009 A 
HETATM    9  C   UNL     1       7.134  -3.163  -7.084  1.00  0.00    -0.062 A 
HETATM   10  C   UNL     1       7.326  -3.354  -8.559  1.00  0.00     0.048 C 
HETATM   11  C   UNL     1       6.385  -2.084  -6.607  1.00  0.00     0.009 A 
HETATM   12  C   UNL     1       6.200  -1.903  -5.233  1.00  0.00     0.030 A 
ENDBRANCH   3   6
ENDBRANCH   1   2
BRANCH   1  13
HETATM   13  N   UNL     1       7.349  -3.245   0.613  1.00  0.00    -0.342 N 
HETATM   14  C   UNL     1       6.959  -4.450   1.154  1.00  0.00     0.276 C 
HETATM   15  O   UNL     1       5.923  -5.027   0.839  1.00  0.00    -0.265 OA
HETATM   16  H   UNL     1       8.291  -2.953   0.841  1.00  0.00     0.163 HD
BRANCH  14  17
HETATM   17  C   UNL     1       7.885  -4.962   2.144  1.00  0.00     0.142 A 
HETATM   18  O   UNL     1       9.034  -4.262   2.422  1.00  0.00    -0.317 OA
HETATM   19  C   UNL     1       9.705  -4.955   3.377  1.00  0.00     0.143 A 
HETATM   20  C   UNL     1       9.012  -6.089   3.727  1.00  0.00     0.027 A 
HETATM   21  C   UNL     1       7.841  -6.097   2.933  1.00  0.00     0.045 A 
ENDBRANCH  14  17
ENDBRANCH   1  13
BRANCH   1  22
HETATM   22  C   UNL     1       5.144  -2.385  -0.290  1.00  0.00     0.075 C 
BRANCH  22  23
HETATM   23  C   UNL     1       4.797  -1.649   0.972  1.00  0.00    -0.028 A 
HETATM   24  C   UNL     1       5.031  -0.265   1.266  1.00  0.00    -0.002 A 
HETATM   25  C   UNL     1       4.575  -0.032   2.564  1.00  0.00     0.042 A 
HETATM   26  C   UNL     1       5.601   0.811   0.553  1.00  0.00     0.014 A 
HETATM   27  C   UNL     1       4.667   1.218   3.188  1.00  0.00     0.030 A 
HETATM   28  N   UNL     1       4.065  -1.219   3.034  1.00  0.00    -0.365 N 
HETATM   29  C   UNL     1       5.243   2.264   2.463  1.00  0.00     0.002 A 
HETATM   30  C   UNL     1       5.703   2.067   1.163  1.00  0.00     0.001 A 
HETATM   31  H   UNL     1       3.663  -1.348   3.953  1.00  0.00     0.165 HD
HETATM   32  C   UNL     1       4.189  -2.196   2.086  1.00  0.00     0.096 A 
ENDBRANCH  22  23
ENDBRANCH   1  22
TORSDOF 6
