REMARK  3 active torsions:
REMARK  status: ('A' for Active; 'I' for Inactive)
REMARK    1  A    between atoms: C_2  and  O_3 
REMARK    2  A    between atoms: O_3  and  C_4 
REMARK    3  A    between atoms: C_5  and  N_6 
REMARK       I    between atoms: N_6  and  C_7 
REMARK       I    between atoms: C_7  and  N_8 
ROOT
HETATM    1  N   UNL     1       1.964  -2.108   3.232  1.00  0.00    -0.306 N 
HETATM    2  C   UNL     1       0.780  -2.470   3.855  1.00  0.00     0.323 C 
HETATM    3  N   UNL     1       0.645  -1.971   5.145  1.00  0.00    -0.328 N 
HETATM    4  C   UNL     1      -0.421  -2.533   5.982  1.00  0.00     0.185 C 
HETATM    5  C   UNL     1      -1.176  -1.413   6.602  1.00  0.00     0.035 A 
HETATM    6  C   UNL     1      -0.809  -0.083   6.638  1.00  0.00    -0.020 A 
HETATM    7  C   UNL     1       0.444   0.387   5.981  1.00  0.00     0.061 C 
HETATM    8  C   UNL     1       1.380  -0.813   5.700  1.00  0.00     0.132 C 
HETATM    9  N   UNL     1      -2.379  -1.544   7.235  1.00  0.00    -0.357 N 
HETATM   10  H   UNL     1      -2.899  -2.404   7.341  1.00  0.00     0.166 HD
HETATM   11  C   UNL     1      -2.803  -0.313   7.690  1.00  0.00     0.043 A 
HETATM   12  C   UNL     1      -1.831   0.625   7.327  1.00  0.00    -0.001 A 
HETATM   13  C   UNL     1      -3.970   0.035   8.380  1.00  0.00     0.030 A 
HETATM   14  C   UNL     1      -4.151   1.381   8.709  1.00  0.00     0.002 A 
HETATM   15  C   UNL     1      -3.201   2.338   8.360  1.00  0.00     0.001 A 
HETATM   16  C   UNL     1      -2.038   1.975   7.670  1.00  0.00     0.014 A 
HETATM   17  O   UNL     1      -0.033  -3.253   3.372  1.00  0.00    -0.247 OA
HETATM   18  H   UNL     1       2.739  -2.200   3.871  1.00  0.00     0.171 HD
ENDROOT
BRANCH   1  19
HETATM   19  C   UNL     1       2.225  -2.541   1.906  1.00  0.00     0.069 C 
HETATM   20  C   UNL     1       1.365  -2.240   0.834  1.00  0.00     0.096 C 
HETATM   21  C   UNL     1       1.585  -2.840  -0.406  1.00  0.00     0.039 C 
HETATM   22  C   UNL     1       2.709  -3.642  -0.613  1.00  0.00     0.003 C 
HETATM   23  C   UNL     1       3.616  -3.854   0.422  1.00  0.00     0.002 C 
HETATM   24  C   UNL     1       3.378  -3.301   1.681  1.00  0.00     0.032 C 
BRANCH  20  25
HETATM   25  O   UNL     1       0.320  -1.391   1.059  1.00  0.00    -0.339 OA
BRANCH  25  26
HETATM   26  C   UNL     1       0.116  -0.237   0.218  1.00  0.00     0.057 C 
HETATM   27  C   UNL     1      -1.069  -0.517  -0.714  1.00  0.00     0.045 C 
HETATM   28  C   UNL     1       1.334   0.267  -0.578  1.00  0.00     0.045 C 
HETATM   29  C   UNL     1      -0.290   0.886   1.191  1.00  0.00     0.045 C 
ENDBRANCH  25  26
ENDBRANCH  20  25
ENDBRANCH   1  19
TORSDOF 3
