REMARK  1 active torsions:
REMARK  status: ('A' for Active; 'I' for Inactive)
REMARK    1  A    between atoms: C_6  and  N_7 
ROOT
HETATM    1  N   UNL     1       6.775  -0.097   0.594  1.00  0.00    -0.320 N 
HETATM    2  C   UNL     1       7.461   0.797   1.462  1.00  0.00     0.141 C 
HETATM    3  N   UNL     1       6.877   1.355   2.484  1.00  0.00    -0.380 N 
HETATM    4  H   UNL     1       7.397   1.986   3.076  1.00  0.00     0.158 HD
HETATM    5  H   UNL     1       5.907   1.136   2.670  1.00  0.00     0.158 HD
HETATM    6  S   UNL     1       9.091   1.076   1.014  1.00  0.00    -0.086 SA
HETATM    7  C   UNL     1       8.804   0.339  -0.653  1.00  0.00     0.093 C 
HETATM    8  C   UNL     1       7.651  -0.676  -0.455  1.00  0.00     0.121 C 
HETATM    9  C   UNL     1      10.000  -0.371  -1.251  1.00  0.00     0.158 C 
HETATM   10  S   UNL     1       9.875  -2.065  -0.740  1.00  0.00     0.147 S 
HETATM   11  O   UNL     1      10.868  -2.321   0.280  1.00  0.00    -0.228 OA
HETATM   12  O   UNL     1       9.752  -2.883  -1.928  1.00  0.00    -0.228 OA
HETATM   13  C   UNL     1       8.284  -1.979   0.032  1.00  0.00     0.167 C 
ENDROOT
BRANCH   1  14
HETATM   14  C   UNL     1       5.389  -0.082   0.324  1.00  0.00     0.048 A 
HETATM   15  C   UNL     1       4.753   1.096  -0.144  1.00  0.00    -0.034 A 
HETATM   16  C   UNL     1       3.360   1.111  -0.343  1.00  0.00     0.015 A 
HETATM   17  C   UNL     1       5.499   2.373  -0.431  1.00  0.00     0.050 C 
HETATM   18  C   UNL     1       2.583  -0.023  -0.110  1.00  0.00    -0.061 A 
HETATM   19  C   UNL     1       1.104  -0.004  -0.364  1.00  0.00     0.048 C 
HETATM   20  C   UNL     1       3.214  -1.192   0.313  1.00  0.00     0.015 A 
HETATM   21  C   UNL     1       4.599  -1.231   0.558  1.00  0.00    -0.034 A 
HETATM   22  C   UNL     1       5.168  -2.531   1.058  1.00  0.00     0.050 C 
ENDBRANCH   1  14
TORSDOF 1
