REMARK  9 active torsions:
REMARK  status: ('A' for Active; 'I' for Inactive)
REMARK    1  A    between atoms: C_2  and  O_3 
REMARK    2  A    between atoms: O_3  and  C_4 
REMARK    3  A    between atoms: C_5  and  O_6 
REMARK    4  A    between atoms: O_6  and  C_7 
REMARK    5  A    between atoms: C_7  and  C_8 
REMARK       I    between atoms: C_8  and  N_9 
REMARK    6  A    between atoms: N_9  and  C_10 
REMARK    7  A    between atoms: C_17  and  C_18 
REMARK    8  A    between atoms: C_18  and  N_19 
REMARK    9  A    between atoms: N_19  and  C_20 
ROOT
HETATM    1  C   UNL     1       4.442  -1.601  -1.052  1.00  0.00     0.102 A 
HETATM    2  C   UNL     1       5.372  -0.566  -0.865  1.00  0.00     0.102 A 
HETATM    3  C   UNL     1       6.733  -0.855  -1.000  1.00  0.00     0.040 A 
HETATM    4  C   UNL     1       7.159  -2.157  -1.285  1.00  0.00     0.012 A 
HETATM    5  C   UNL     1       6.235  -3.200  -1.429  1.00  0.00    -0.038 A 
HETATM    6  C   UNL     1       4.873  -2.909  -1.303  1.00  0.00     0.048 A 
ENDROOT
BRANCH   5   7
HETATM    7  C   UNL     1       6.708  -4.615  -1.676  1.00  0.00     0.158 C 
BRANCH   7   8
HETATM    8  N   UNL     1       7.410  -5.092  -0.492  1.00  0.00    -0.386 N 
HETATM    9  H   UNL     1       6.968  -4.786   0.371  1.00  0.00     0.160 HD
BRANCH   8  10
HETATM   10  C   UNL     1       7.844  -6.418  -0.419  1.00  0.00     0.031 A 
HETATM   11  C   UNL     1       8.034  -7.238  -1.537  1.00  0.00     0.068 A 
HETATM   12  C   UNL     1       8.549  -8.531  -1.401  1.00  0.00     0.104 A 
HETATM   13  C   UNL     1       8.885  -9.026  -0.140  1.00  0.00     0.102 A 
HETATM   14  O   UNL     1       8.694  -9.260  -2.556  1.00  0.00    -0.346 OA
HETATM   15  O   UNL     1       9.366 -10.293   0.070  1.00  0.00    -0.346 OA
HETATM   16  C   UNL     1       8.757  -8.209   0.975  1.00  0.00     0.042 A 
HETATM   17  C   UNL     1       9.149 -11.128  -1.072  1.00  0.00     0.202 C 
HETATM   18  C   UNL     1       9.534 -10.401  -2.350  1.00  0.00     0.202 C 
HETATM   19  C   UNL     1       8.252  -6.914   0.831  1.00  0.00     0.032 A 
ENDBRANCH   8  10
ENDBRANCH   7   8
ENDBRANCH   5   7
BRANCH   1  20
HETATM   20  O   UNL     1       3.084  -1.461  -0.910  1.00  0.00    -0.349 OA
BRANCH  20  21
HETATM   21  C   UNL     1       2.470  -0.488  -1.764  1.00  0.00     0.171 C 
HETATM   22  C   UNL     1       2.592  -0.833  -3.240  1.00  0.00     0.034 C 
ENDBRANCH  20  21
ENDBRANCH   1  20
BRANCH   2  23
HETATM   23  O   UNL     1       4.870   0.649  -0.482  1.00  0.00    -0.339 OA
BRANCH  23  24
HETATM   24  C   UNL     1       5.756   1.739  -0.271  1.00  0.00     0.278 C 
BRANCH  24  25
HETATM   25  C   UNL     1       6.440   1.785   1.103  1.00  0.00     0.242 C 
HETATM   26  N   UNL     1       6.053   0.781   1.963  1.00  0.00    -0.351 N 
HETATM   27  H   UNL     1       5.281   0.203   1.641  1.00  0.00     0.163 HD
HETATM   28  O   UNL     1       7.251   2.663   1.382  1.00  0.00    -0.271 OA
BRANCH  26  29
HETATM   29  C   UNL     1       6.487   0.624   3.356  1.00  0.00     0.022 C 
HETATM   30  C   UNL     1       5.930   1.766   4.217  1.00  0.00     0.037 C 
HETATM   31  C   UNL     1       5.925  -0.711   3.878  1.00  0.00     0.037 C 
HETATM   32  C   UNL     1       8.019   0.574   3.468  1.00  0.00     0.037 C 
ENDBRANCH  26  29
ENDBRANCH  24  25
ENDBRANCH  23  24
ENDBRANCH   2  23
TORSDOF 9
