REMARK  3 active torsions:
REMARK  status: ('A' for Active; 'I' for Inactive)
REMARK    1  A    between atoms: C_5  and  C_6 
REMARK    2  A    between atoms: C_10  and  N_11 
REMARK    3  A    between atoms: N_11  and  N_12 
ROOT
HETATM    1  N   UNL     1      10.333  -0.601  -1.975  1.00  0.00    -0.261 N 
HETATM    2  H   UNL     1      10.519  -1.566  -2.260  1.00  0.00     0.191 HD
ENDROOT
BRANCH   1   3
HETATM    3  C   UNL     1       9.111  -0.313  -1.457  1.00  0.00     0.140 A 
HETATM    4  N   UNL     1       8.219  -1.296  -1.146  1.00  0.00    -0.261 N 
HETATM    5  N   UNL     1       7.063  -0.852  -0.635  1.00  0.00    -0.172 NA
HETATM    6  H   UNL     1       8.331  -2.295  -1.262  1.00  0.00     0.191 HD
HETATM    7  C   UNL     1       7.197   0.487  -0.603  1.00  0.00     0.090 A 
HETATM    8  C   UNL     1       8.472   0.862  -1.125  1.00  0.00     0.085 A 
BRANCH   7   9
HETATM    9  C   UNL     1       6.126   1.341  -0.060  1.00  0.00    -0.006 A 
HETATM   10  C   UNL     1       4.900   0.773   0.329  1.00  0.00     0.014 A 
HETATM   11  C   UNL     1       3.888   1.549   0.904  1.00  0.00     0.007 A 
HETATM   12  C   UNL     1       4.074   2.919   1.101  1.00  0.00    -0.062 A 
HETATM   13  C   UNL     1       3.016   3.752   1.764  1.00  0.00     0.048 C 
HETATM   14  C   UNL     1       5.282   3.500   0.696  1.00  0.00     0.007 A 
HETATM   15  C   UNL     1       6.296   2.720   0.120  1.00  0.00     0.014 A 
ENDBRANCH   7   9
ENDBRANCH   1   3
BRANCH   1  16
HETATM   16  N   UNL     1      11.063   0.370  -2.602  1.00  0.00    -0.166 NA
HETATM   17  C   UNL     1      12.302   0.115  -2.922  1.00  0.00     0.169 C 
HETATM   18  C   UNL     1      13.099   1.135  -3.714  1.00  0.00     0.278 C 
HETATM   19  C   UNL     1      13.009  -1.133  -2.529  1.00  0.00     0.067 C 
HETATM   20  O   UNL     1      12.693   2.289  -3.809  1.00  0.00    -0.265 OA
HETATM   21  N   UNL     1      14.322   0.799  -4.265  1.00  0.00    -0.319 N 
HETATM   22  C   UNL     1      15.043  -0.418  -4.388  1.00  0.00     0.064 A 
HETATM   23  H   UNL     1      14.758   1.618  -4.675  1.00  0.00     0.169 HD
HETATM   24  C   UNL     1      14.566  -1.705  -4.041  1.00  0.00     0.084 A 
HETATM   25  C   UNL     1      16.339  -0.303  -4.918  1.00  0.00     0.032 A 
HETATM   26  C   UNL     1      15.374  -2.827  -4.265  1.00  0.00     0.034 A 
HETATM   27  N   UNL     1      13.280  -1.923  -3.517  1.00  0.00    -0.249 NA
HETATM   28  C   UNL     1      16.658  -2.691  -4.790  1.00  0.00     0.002 A 
HETATM   29  C   UNL     1      17.144  -1.428  -5.109  1.00  0.00     0.002 A 
HETATM   30  C   UNL     1      13.735  -1.114  -1.217  1.00  0.00     0.073 C 
ENDBRANCH   1  16
TORSDOF 3
