REMARK  5 active torsions:
REMARK  status: ('A' for Active; 'I' for Inactive)
REMARK    1  A    between atoms: C_2  and  C_3 
REMARK    2  A    between atoms: C_8  and  C_9 
REMARK       I    between atoms: C_9  and  N_10 
REMARK    3  A    between atoms: N_10  and  C_11 
REMARK    4  A    between atoms: C_11  and  C_12 
REMARK    5  A    between atoms: C_19  and  C_20 
ROOT
HETATM    1  C   UNL     1       1.537   2.469  -0.449  1.00  0.00     0.118 C 
HETATM    2  N   UNL     1       1.330   2.979  -1.800  1.00  0.00    -0.366 N 
HETATM    3  C   UNL     1       1.304   4.310  -2.039  1.00  0.00     0.123 C 
HETATM    4  N   UNL     1       1.183   5.223  -1.024  1.00  0.00    -0.240 N 
HETATM    5  N   UNL     1       1.382   6.491  -1.426  1.00  0.00    -0.165 NA
HETATM    6  C   UNL     1       1.498   6.392  -2.770  1.00  0.00     0.148 C 
HETATM    7  C   UNL     1       1.429   5.037  -3.192  1.00  0.00     0.088 C 
HETATM    8  C   UNL     1       1.137   4.872   0.384  1.00  0.00     0.221 C 
HETATM    9  C   UNL     1       0.838   3.372   0.575  1.00  0.00     0.066 C 
HETATM   10  H   UNL     1       1.646   2.350  -2.538  1.00  0.00     0.161 HD
ENDROOT
BRANCH   6  11
HETATM   11  C   UNL     1       1.731   7.565  -3.626  1.00  0.00     0.272 C 
HETATM   12  N   UNL     1       1.834   8.742  -2.923  1.00  0.00    -0.353 N 
HETATM   13  H   UNL     1       1.571   8.693  -1.942  1.00  0.00     0.162 HD
HETATM   14  O   UNL     1       1.838   7.492  -4.846  1.00  0.00    -0.266 OA
BRANCH  12  15
HETATM   15  C   UNL     1       1.990  10.030  -3.563  1.00  0.00     0.155 C 
BRANCH  15  16
HETATM   16  C   UNL     1       0.663  10.598  -4.068  1.00  0.00     0.139 C 
HETATM   17  O   UNL     1      -0.216  10.890  -2.963  1.00  0.00    -0.384 OA
HETATM   18  C   UNL     1      -1.024  12.020  -3.320  1.00  0.00     0.168 C 
HETATM   19  C   UNL     1      -0.554  12.511  -4.676  1.00  0.00     0.029 C 
HETATM   20  C   UNL     1       0.829  11.921  -4.792  1.00  0.00     0.035 C 
ENDBRANCH  15  16
ENDBRANCH  12  15
ENDBRANCH   6  11
BRANCH   8  21
HETATM   21  C   UNL     1       0.101   5.692   1.122  1.00  0.00     0.409 C 
HETATM   22  F   UNL     1      -1.142   5.534   0.612  1.00  0.00    -0.169 F 
HETATM   23  F   UNL     1       0.039   5.287   2.421  1.00  0.00    -0.169 F 
HETATM   24  F   UNL     1       0.380   7.011   1.155  1.00  0.00    -0.169 F 
ENDBRANCH   8  21
BRANCH   1  25
HETATM   25  C   UNL     1       3.008   2.204  -0.158  1.00  0.00    -0.035 A 
HETATM   26  C   UNL     1       4.022   3.142  -0.418  1.00  0.00     0.011 A 
HETATM   27  C   UNL     1       5.361   2.855  -0.134  1.00  0.00     0.024 A 
HETATM   28  C   UNL     1       5.705   1.623   0.409  1.00  0.00     0.034 A 
HETATM   29  C   UNL     1       4.722   0.675   0.675  1.00  0.00     0.024 A 
HETATM   30 CL   UNL     1       7.353   1.265   0.748  1.00  0.00    -0.084 Cl
HETATM   31  C   UNL     1       3.382   0.966   0.397  1.00  0.00     0.011 A 
ENDBRANCH   1  25
TORSDOF 5
