REMARK  6 active torsions:
REMARK  status: ('A' for Active; 'I' for Inactive)
REMARK    1  A    between atoms: C_2  and  N_3 
REMARK    2  A    between atoms: C_5  and  C_6 
REMARK    3  A    between atoms: C_6  and  N_7 
REMARK       I    between atoms: N_7  and  C_8 
REMARK    4  A    between atoms: C_8  and  C_9 
REMARK    5  A    between atoms: C_9  and  C_10 
REMARK    6  A    between atoms: C_11  and  C_12 
ROOT
HETATM    1  C   UNL     1      -1.951   3.099  -0.426  1.00  0.00     0.005 C 
HETATM    2  C   UNL     1      -2.106   2.140  -1.430  1.00  0.00     0.069 C 
HETATM    3  N   UNL     1      -2.320   2.860  -2.579  1.00  0.00    -0.277 N 
HETATM    4  H   UNL     1      -2.567   2.511  -3.500  1.00  0.00     0.189 HD
HETATM    5  N   UNL     1      -2.127   4.173  -2.434  1.00  0.00    -0.179 NA
HETATM    6  C   UNL     1      -2.064   4.349  -1.112  1.00  0.00     0.059 C 
HETATM    7  C   UNL     1      -2.093   5.734  -0.569  1.00  0.00     0.073 C 
ENDROOT
BRANCH   1   8
HETATM    8  C   UNL     1      -1.756   2.872   1.046  1.00  0.00     0.146 C 
BRANCH   8   9
HETATM    9  C   UNL     1      -0.768   3.830   1.682  1.00  0.00     0.222 C 
HETATM   10  N   UNL     1       0.573   3.569   1.684  1.00  0.00    -0.359 N 
HETATM   11  H   UNL     1       1.045   4.269   2.252  1.00  0.00     0.162 HD
HETATM   12  O   UNL     1      -1.128   4.893   2.187  1.00  0.00    -0.273 OA
BRANCH  10  13
HETATM   13  C   UNL     1       1.284   2.320   1.447  1.00  0.00     0.155 C 
BRANCH  13  14
HETATM   14  C   UNL     1       1.375   1.904  -0.023  1.00  0.00     0.206 C 
HETATM   15  N   UNL     1       1.912   2.949  -0.991  1.00  0.00    -0.066 N 
HETATM   16  H   UNL     1       1.186   3.673  -1.123  1.00  0.00     0.280 HD
HETATM   17  C   UNL     1       2.012   2.138  -2.272  1.00  0.00     0.235 C 
HETATM   18  C   UNL     1       2.513   0.770  -1.817  1.00  0.00     0.030 C 
HETATM   19  C   UNL     1       2.225   0.679  -0.320  1.00  0.00     0.036 C 
BRANCH  15  20
HETATM   20  C   UNL     1       3.226   3.633  -0.671  1.00  0.00     0.231 C 
HETATM   21  C   UNL     1       3.024   4.920   0.105  1.00  0.00     0.034 C 
ENDBRANCH  15  20
ENDBRANCH  13  14
ENDBRANCH  10  13
ENDBRANCH   8   9
ENDBRANCH   1   8
BRANCH   2  22
HETATM   22  C   UNL     1      -2.124   0.676  -1.427  1.00  0.00    -0.007 A 
HETATM   23  C   UNL     1      -2.728  -0.040  -0.386  1.00  0.00     0.015 A 
HETATM   24  C   UNL     1      -2.705  -1.439  -0.375  1.00  0.00     0.024 A 
HETATM   25  C   UNL     1      -2.087  -2.131  -1.412  1.00  0.00     0.034 A 
HETATM   26 CL   UNL     1      -2.047  -3.849  -1.392  1.00  0.00    -0.084 Cl
HETATM   27  C   UNL     1      -1.500  -1.438  -2.466  1.00  0.00     0.024 A 
HETATM   28  C   UNL     1      -1.519  -0.040  -2.474  1.00  0.00     0.015 A 
ENDBRANCH   2  22
TORSDOF 6
