REMARK  6 active torsions:
REMARK  status: ('A' for Active; 'I' for Inactive)
REMARK    1  A    between atoms: C_5  and  C_6 
REMARK    2  A    between atoms: C_11  and  C_12 
REMARK       I    between atoms: C_12  and  N_13 
REMARK    3  A    between atoms: N_13  and  C_14 
REMARK    4  A    between atoms: C_16  and  C_17 
REMARK    5  A    between atoms: C_17  and  O_18 
REMARK    6  A    between atoms: C_25  and  C_26 
ROOT
HETATM    1  C   UNL     1      11.879   2.755  -2.898  1.00  0.00     0.118 C 
HETATM    2  N   UNL     1      12.096   4.188  -3.092  1.00  0.00    -0.366 N 
HETATM    3  C   UNL     1      11.127   5.020  -3.521  1.00  0.00     0.123 A 
HETATM    4  N   UNL     1       9.838   4.594  -3.660  1.00  0.00    -0.240 N 
HETATM    5  N   UNL     1       9.023   5.488  -4.248  1.00  0.00    -0.165 NA
HETATM    6  C   UNL     1       9.804   6.590  -4.357  1.00  0.00     0.148 A 
HETATM    7  C   UNL     1      11.127   6.335  -3.899  1.00  0.00     0.089 A 
HETATM    8  C   UNL     1       9.406   3.255  -3.314  1.00  0.00     0.221 C 
HETATM    9  C   UNL     1      10.566   2.279  -3.558  1.00  0.00     0.066 C 
HETATM   10  H   UNL     1      13.057   4.507  -2.972  1.00  0.00     0.161 HD
ENDROOT
BRANCH   6  11
HETATM   11  C   UNL     1       9.299   7.856  -4.918  1.00  0.00     0.276 C 
HETATM   12  N   UNL     1       8.029   7.713  -5.443  1.00  0.00    -0.322 N 
HETATM   13  H   UNL     1       7.677   6.760  -5.397  1.00  0.00     0.169 HD
HETATM   14  O   UNL     1       9.983   8.874  -4.917  1.00  0.00    -0.266 OA
BRANCH  12  15
HETATM   15  C   UNL     1       7.215   8.692  -6.033  1.00  0.00     0.035 A 
HETATM   16  C   UNL     1       7.520  10.056  -6.030  1.00  0.00     0.039 A 
HETATM   17  C   UNL     1       6.652  10.998  -6.612  1.00  0.00    -0.028 A 
HETATM   18  C   UNL     1       5.479  10.541  -7.227  1.00  0.00     0.010 A 
HETATM   19  C   UNL     1       5.167   9.183  -7.236  1.00  0.00     0.003 A 
HETATM   20  C   UNL     1       6.027   8.264  -6.633  1.00  0.00     0.029 A 
BRANCH  17  21
HETATM   21  C   UNL     1       7.016  12.466  -6.568  1.00  0.00     0.147 C 
HETATM   22  C   UNL     1       7.994  12.839  -7.675  1.00  0.00     0.044 C 
BRANCH  21  23
HETATM   23  O   UNL     1       5.848  13.277  -6.690  1.00  0.00    -0.391 OA
HETATM   24  H   UNL     1       6.126  14.195  -6.535  1.00  0.00     0.210 HD
ENDBRANCH  21  23
ENDBRANCH  17  21
ENDBRANCH  12  15
ENDBRANCH   6  11
BRANCH   8  25
HETATM   25  C   UNL     1       8.907   3.227  -1.888  1.00  0.00     0.409 C 
HETATM   26  F   UNL     1       7.835   4.027  -1.701  1.00  0.00    -0.169 F 
HETATM   27  F   UNL     1       8.507   1.967  -1.568  1.00  0.00    -0.169 F 
HETATM   28  F   UNL     1       9.843   3.573  -0.980  1.00  0.00    -0.169 F 
ENDBRANCH   8  25
BRANCH   1  29
HETATM   29  C   UNL     1      13.072   2.000  -3.461  1.00  0.00    -0.035 A 
HETATM   30  C   UNL     1      13.791   1.102  -2.662  1.00  0.00     0.010 A 
HETATM   31  C   UNL     1      14.888   0.408  -3.182  1.00  0.00     0.007 A 
HETATM   32  C   UNL     1      15.294   0.606  -4.507  1.00  0.00    -0.062 A 
HETATM   33  C   UNL     1      16.451  -0.157  -5.080  1.00  0.00     0.048 C 
HETATM   34  C   UNL     1      14.573   1.492  -5.312  1.00  0.00     0.007 A 
HETATM   35  C   UNL     1      13.480   2.186  -4.793  1.00  0.00     0.010 A 
ENDBRANCH   1  29
TORSDOF 6
