REMARK  4 active torsions:
REMARK  status: ('A' for Active; 'I' for Inactive)
REMARK    1  A    between atoms: N_2  and  C_3 
REMARK    2  A    between atoms: C_5  and  C_6 
REMARK    3  A    between atoms: C_6  and  C_7 
REMARK    4  A    between atoms: C_14  and  O_15 
ROOT
HETATM    1  C   UNL     1       3.710  -1.596   2.474  1.00  0.00     0.113 A 
HETATM    2  N   UNL     1       3.062  -2.766   2.308  1.00  0.00    -0.223 NA
HETATM    3  C   UNL     1       3.424  -3.576   1.277  1.00  0.00     0.106 A 
HETATM    4  N   UNL     1       4.397  -3.265   0.406  1.00  0.00    -0.347 N 
HETATM    5  H   UNL     1       4.628  -3.892  -0.360  1.00  0.00     0.167 HD
HETATM    6  C   UNL     1       5.053  -2.121   0.580  1.00  0.00     0.020 A 
HETATM    7  C   UNL     1       4.736  -1.263   1.619  1.00  0.00     0.005 A 
HETATM    8  C   UNL     1       5.616  -0.055   1.586  1.00  0.00     0.044 C 
HETATM    9  C   UNL     1       6.759  -0.540   0.674  1.00  0.00     0.011 C 
HETATM   10  C   UNL     1       6.159  -1.590  -0.274  1.00  0.00     0.058 C 
ENDROOT
BRANCH   3  11
HETATM   11  C   UNL     1       2.671  -4.865   1.101  1.00  0.00     0.085 C 
BRANCH  11  12
HETATM   12  C   UNL     1       1.523  -4.751   0.091  1.00  0.00     0.021 C 
HETATM   13  C   UNL     1       0.400  -3.817   0.552  1.00  0.00     0.181 C 
HETATM   14  O   UNL     1      -0.561  -3.622  -0.488  1.00  0.00    -0.350 OA
HETATM   15  C   UNL     1      -1.047  -4.783  -1.032  1.00  0.00     0.077 A 
HETATM   16  C   UNL     1      -0.387  -6.011  -0.921  1.00  0.00    -0.024 A 
HETATM   17  C   UNL     1      -2.240  -4.673  -1.752  1.00  0.00     0.074 A 
HETATM   18  C   UNL     1       0.901  -6.131  -0.161  1.00  0.00     0.048 C 
HETATM   19  C   UNL     1      -0.964  -7.144  -1.503  1.00  0.00     0.012 A 
HETATM   20  C   UNL     1      -2.166  -7.036  -2.206  1.00  0.00     0.037 A 
HETATM   21  C   UNL     1      -2.808  -5.803  -2.338  1.00  0.00     0.070 A 
BRANCH  21  22
HETATM   22  O   UNL     1      -3.971  -5.841  -3.055  1.00  0.00    -0.356 OA
HETATM   23  C   UNL     1      -4.687  -4.619  -3.192  1.00  0.00     0.210 C 
ENDBRANCH  21  22
ENDBRANCH  11  12
ENDBRANCH   3  11
BRANCH   1  24
HETATM   24  N   UNL     1       3.413  -0.770   3.552  1.00  0.00    -0.281 NA
HETATM   25  C   UNL     1       2.295  -1.179   4.391  1.00  0.00     0.114 C 
HETATM   26  H   UNL     1       3.336   0.206   3.277  1.00  0.00     0.128 HD
ENDBRANCH   1  24
TORSDOF 4
