REMARK  3 active torsions:
REMARK  status: ('A' for Active; 'I' for Inactive)
REMARK    1  A    between atoms: C_4  and  N_5 
REMARK       I    between atoms: N_5  and  C_6 
REMARK    2  A    between atoms: C_6  and  C_7 
REMARK    3  A    between atoms: C_7  and  C_8 
ROOT
HETATM    1  C   UNL     1       8.214   1.060  -1.032  1.00  0.00     0.286 C 
HETATM    2  N   UNL     1       7.356   0.752   0.217  1.00  0.00    -0.056 N 
HETATM    3  H   UNL     1       6.994  -0.202   0.067  1.00  0.00     0.278 HD
HETATM    4  H   UNL     1       7.956   0.679   1.050  1.00  0.00     0.278 HD
HETATM    5  C   UNL     1       6.161   1.653   0.474  1.00  0.00     0.209 C 
HETATM    6  C   UNL     1       5.388   1.938  -0.846  1.00  0.00     0.115 C 
HETATM    7  N   UNL     1       6.233   2.143  -2.021  1.00  0.00    -0.353 N 
HETATM    8  C   UNL     1       7.322   1.336  -2.250  1.00  0.00     0.249 C 
HETATM    9  O   UNL     1       7.566   0.941  -3.381  1.00  0.00    -0.271 OA
HETATM   10  C   UNL     1       6.584   2.874   1.299  1.00  0.00     0.035 C 
HETATM   11  C   UNL     1       5.517   3.961   1.351  1.00  0.00     0.002 C 
HETATM   12  C   UNL     1       5.017   4.315  -0.043  1.00  0.00     0.002 C 
HETATM   13  C   UNL     1       4.393   3.092  -0.707  1.00  0.00     0.027 C 
HETATM   14  H   UNL     1       5.731   2.292  -2.897  1.00  0.00     0.163 HD
ENDROOT
BRANCH   1  15
HETATM   15  C   UNL     1       9.116   2.262  -0.764  1.00  0.00     0.146 C 
BRANCH  15  16
HETATM   16  C   UNL     1      10.161   2.402  -1.849  1.00  0.00     0.224 C 
HETATM   17  N   UNL     1      10.638   3.697  -1.920  1.00  0.00    -0.327 N 
HETATM   18  H   UNL     1      10.487   4.305  -1.125  1.00  0.00     0.169 HD
HETATM   19  O   UNL     1      10.496   1.444  -2.527  1.00  0.00    -0.273 OA
BRANCH  17  20
HETATM   20  C   UNL     1      11.295   4.304  -3.007  1.00  0.00     0.035 A 
HETATM   21  C   UNL     1      11.445   3.699  -4.256  1.00  0.00     0.036 A 
HETATM   22  C   UNL     1      12.017   4.409  -5.325  1.00  0.00    -0.059 A 
HETATM   23  C   UNL     1      12.172   3.770  -6.673  1.00  0.00     0.048 C 
HETATM   24  C   UNL     1      12.465   5.720  -5.118  1.00  0.00     0.013 A 
HETATM   25  C   UNL     1      12.321   6.339  -3.873  1.00  0.00    -0.059 A 
HETATM   26  C   UNL     1      11.741   5.619  -2.822  1.00  0.00     0.036 A 
HETATM   27  C   UNL     1      12.817   7.741  -3.666  1.00  0.00     0.048 C 
ENDBRANCH  17  20
ENDBRANCH  15  16
ENDBRANCH   1  15
TORSDOF 3
