REMARK  6 active torsions:
REMARK  status: ('A' for Active; 'I' for Inactive)
REMARK    1  A    between atoms: C_3  and  N_4 
REMARK       I    between atoms: N_4  and  C_5 
REMARK       I    between atoms: C_5  and  N_6 
REMARK    2  A    between atoms: N_6  and  C_7 
REMARK    3  A    between atoms: C_7  and  C_8 
REMARK    4  A    between atoms: C_8  and  N_9 
REMARK    5  A    between atoms: C_8  and  C_13 
REMARK    6  A    between atoms: C_20  and  C_21 
ROOT
HETATM    1  N   UNL     1       7.768   2.197  -4.925  1.00  0.00    -0.309 N 
HETATM    2  C   UNL     1       7.562   3.052  -3.872  1.00  0.00     0.320 C 
HETATM    3  N   UNL     1       7.649   2.391  -2.667  1.00  0.00    -0.340 N 
HETATM    4  O   UNL     1       7.342   4.254  -3.911  1.00  0.00    -0.247 OA
HETATM    5  H   UNL     1       7.473   1.249  -4.731  1.00  0.00     0.170 HD
HETATM    6  H   UNL     1       7.933   1.418  -2.658  1.00  0.00     0.164 HD
ENDROOT
BRANCH   1   7
HETATM    7  C   UNL     1       7.820   2.520  -6.304  1.00  0.00     0.043 A 
HETATM    8  C   UNL     1       8.325   3.704  -6.865  1.00  0.00    -0.035 A 
HETATM    9  C   UNL     1       8.985   4.812  -6.095  1.00  0.00     0.050 C 
HETATM   10  C   UNL     1       8.245   3.877  -8.262  1.00  0.00     0.010 A 
HETATM   11  C   UNL     1       7.738   2.879  -9.096  1.00  0.00     0.016 A 
HETATM   12  C   UNL     1       7.298   1.671  -8.557  1.00  0.00     0.019 A 
HETATM   13  C   UNL     1       7.350   1.508  -7.164  1.00  0.00     0.046 A 
BRANCH  12  14
HETATM   14  C   UNL     1       6.784   0.586  -9.387  1.00  0.00     0.179 A 
HETATM   15  O   UNL     1       6.749   0.799 -10.741  1.00  0.00    -0.302 OA
HETATM   16  C   UNL     1       6.240  -0.358 -11.248  1.00  0.00     0.163 A 
HETATM   17  C   UNL     1       5.994  -1.207 -10.200  1.00  0.00     0.144 A 
HETATM   18  N   UNL     1       6.343  -0.604  -9.018  1.00  0.00    -0.234 NA
ENDBRANCH  12  14
ENDBRANCH   1   7
BRANCH   3  19
HETATM   19  C   UNL     1       7.266   3.017  -1.410  1.00  0.00     0.164 C 
BRANCH  19  20
HETATM   20  C   UNL     1       8.408   3.324  -0.400  1.00  0.00     0.261 C 
BRANCH  20  21
HETATM   21  N   UNL     1       9.467   4.321  -0.879  1.00  0.00    -0.067 N 
HETATM   22  H   UNL     1      10.060   4.465  -0.054  1.00  0.00     0.280 HD
HETATM   23  C   UNL     1      10.415   3.842  -1.940  1.00  0.00     0.270 C 
HETATM   24  C   UNL     1       8.902   5.671  -1.219  1.00  0.00     0.270 C 
ENDBRANCH  20  21
BRANCH  20  25
HETATM   25  C   UNL     1       8.998   2.073   0.182  1.00  0.00     0.085 A 
HETATM   26  O   UNL     1       9.483   1.143  -0.693  1.00  0.00    -0.325 OA
HETATM   27  C   UNL     1       9.958   0.107   0.046  1.00  0.00     0.142 A 
HETATM   28  C   UNL     1       9.785   0.356   1.386  1.00  0.00     0.027 A 
HETATM   29  C   UNL     1       9.165   1.626   1.478  1.00  0.00     0.037 A 
ENDBRANCH  20  25
ENDBRANCH  19  20
ENDBRANCH   3  19
TORSDOF 6
