REMARK  8 active torsions:
REMARK  status: ('A' for Active; 'I' for Inactive)
REMARK    1  A    between atoms: C_2  and  C_3 
REMARK    2  A    between atoms: C_4  and  N_5 
REMARK    3  A    between atoms: N_5  and  S_6 
REMARK    4  A    between atoms: S_6  and  C_7 
REMARK    5  A    between atoms: C_13  and  C_14 
REMARK       I    between atoms: C_14  and  N_15 
REMARK    6  A    between atoms: N_15  and  C_16 
REMARK    7  A    between atoms: C_16  and  C_17 
REMARK    8  A    between atoms: C_17  and  O_18 
ROOT
HETATM    1  C   UNL     1       3.597   5.184   1.251  1.00  0.00     0.081 A 
HETATM    2  C   UNL     1       3.562   6.580   1.265  1.00  0.00     0.043 A 
HETATM    3  C   UNL     1       4.763   7.290   1.159  1.00  0.00     0.043 A 
HETATM    4  C   UNL     1       5.988   6.619   0.989  1.00  0.00     0.046 A 
HETATM    5  N   UNL     1       7.176   7.351   0.902  1.00  0.00    -0.364 N 
HETATM    6  C   UNL     1       7.158   8.722   0.906  1.00  0.00     0.109 A 
HETATM    7  C   UNL     1       6.064   9.487   1.066  1.00  0.00     0.098 A 
HETATM    8  C   UNL     1       4.764   8.777   1.230  1.00  0.00     0.201 A 
HETATM    9  O   UNL     1       3.715   9.385   1.427  1.00  0.00    -0.286 OA
HETATM   10  C   UNL     1       6.001   5.221   0.972  1.00  0.00     0.032 A 
HETATM   11  C   UNL     1       4.809   4.502   1.097  1.00  0.00     0.027 A 
HETATM   12  H   UNL     1       8.035   6.879   0.639  1.00  0.00     0.165 HD
ENDROOT
BRANCH   1  13
HETATM   13  S   UNL     1       2.077   4.268   1.342  1.00  0.00     0.263 S 
HETATM   14  O   UNL     1       2.337   2.957   0.780  1.00  0.00    -0.200 OA
HETATM   15  O   UNL     1       1.012   5.097   0.826  1.00  0.00    -0.200 OA
BRANCH  13  16
HETATM   16  N   UNL     1       1.886   4.016   3.005  1.00  0.00    -0.280 N 
HETATM   17  H   UNL     1       1.630   3.047   3.187  1.00  0.00     0.179 HD
BRANCH  16  18
HETATM   18  C   UNL     1       1.194   5.013   3.755  1.00  0.00     0.049 A 
HETATM   19  C   UNL     1      -0.202   4.975   3.912  1.00  0.00    -0.031 A 
HETATM   20  C   UNL     1      -0.824   6.013   4.626  1.00  0.00     0.009 A 
HETATM   21  C   UNL     1      -0.077   7.067   5.156  1.00  0.00     0.001 A 
HETATM   22  C   UNL     1       1.304   7.093   4.990  1.00  0.00     0.002 A 
HETATM   23  C   UNL     1       1.938   6.067   4.292  1.00  0.00     0.030 A 
BRANCH  19  24
HETATM   24  C   UNL     1      -1.060   3.855   3.373  1.00  0.00     0.036 C 
HETATM   25  C   UNL     1      -1.198   2.718   4.376  1.00  0.00     0.010 C 
ENDBRANCH  19  24
ENDBRANCH  16  18
ENDBRANCH  13  16
ENDBRANCH   1  13
BRANCH   7  26
HETATM   26  C   UNL     1       6.234  10.967   1.086  1.00  0.00     0.257 C 
HETATM   27  N   UNL     1       5.111  11.687   1.396  1.00  0.00    -0.355 N 
HETATM   28  H   UNL     1       4.217  11.198   1.455  1.00  0.00     0.162 HD
HETATM   29  O   UNL     1       7.318  11.495   0.845  1.00  0.00    -0.267 OA
BRANCH  27  30
HETATM   30  C   UNL     1       5.092  13.138   1.405  1.00  0.00     0.149 C 
BRANCH  30  31
HETATM   31  C   UNL     1       4.830  13.725   0.018  1.00  0.00     0.186 C 
BRANCH  31  32
HETATM   32  O   UNL     1       3.471  13.464  -0.350  1.00  0.00    -0.394 OA
HETATM   33  C   UNL     1       3.164  14.002  -1.630  1.00  0.00     0.201 C 
ENDBRANCH  31  32
ENDBRANCH  30  31
ENDBRANCH  27  30
ENDBRANCH   7  26
TORSDOF 8
