REMARK  5 active torsions:
REMARK  status: ('A' for Active; 'I' for Inactive)
REMARK    1  A    between atoms: C_4  and  N_5 
REMARK    2  A    between atoms: N_5  and  C_6 
REMARK    3  A    between atoms: C_6  and  C_7 
REMARK       I    between atoms: C_7  and  N_8 
REMARK    4  A    between atoms: N_8  and  N_9 
REMARK    5  A    between atoms: C_10  and  C_11 
ROOT
HETATM    1  C   UNL     1       5.519   4.879  -0.190  1.00  0.00     0.250 C 
HETATM    2  N   UNL     1       6.666   4.553  -0.909  1.00  0.00    -0.246 N 
HETATM    3  O   UNL     1       5.230   5.984   0.263  1.00  0.00    -0.270 OA
HETATM    4  H   UNL     1       6.633   3.690  -1.450  1.00  0.00     0.192 HD
ENDROOT
BRANCH   2   5
HETATM    5  N   UNL     1       7.672   5.409  -1.289  1.00  0.00    -0.184 NA
HETATM    6  C   UNL     1       7.855   6.508  -0.630  1.00  0.00     0.152 C 
BRANCH   6   7
HETATM    7  C   UNL     1       8.893   7.429  -1.054  1.00  0.00     0.011 A 
HETATM    8  C   UNL     1       9.119   8.755  -0.558  1.00  0.00     0.004 A 
HETATM    9  C   UNL     1      10.220   9.275  -1.240  1.00  0.00     0.043 A 
HETATM   10  C   UNL     1       8.481   9.568   0.403  1.00  0.00     0.014 A 
HETATM   11  C   UNL     1      10.717  10.563  -1.007  1.00  0.00     0.030 A 
HETATM   12  N   UNL     1      10.648   8.305  -2.116  1.00  0.00    -0.364 N 
HETATM   13  C   UNL     1      10.066  11.347  -0.051  1.00  0.00     0.002 A 
HETATM   14  C   UNL     1       8.963  10.860   0.646  1.00  0.00     0.001 A 
HETATM   15  H   UNL     1      11.433   8.406  -2.744  1.00  0.00     0.165 HD
HETATM   16  C   UNL     1       9.855   7.194  -2.018  1.00  0.00     0.102 A 
ENDBRANCH   6   7
ENDBRANCH   2   5
BRANCH   1  17
HETATM   17  C   UNL     1       4.592   3.674  -0.012  1.00  0.00     0.197 C 
BRANCH  17  18
HETATM   18  N   UNL     1       3.995   3.305  -1.305  1.00  0.00    -0.284 NA
HETATM   19  H   UNL     1       3.695   4.137  -1.816  1.00  0.00     0.128 HD
BRANCH  18  20
HETATM   20  C   UNL     1       2.945   2.367  -1.271  1.00  0.00     0.009 A 
HETATM   21  C   UNL     1       2.881   1.317  -0.344  1.00  0.00     0.030 A 
HETATM   22  C   UNL     1       1.847   0.366  -0.383  1.00  0.00    -0.060 A 
HETATM   23  C   UNL     1       1.767  -0.718   0.651  1.00  0.00     0.048 C 
HETATM   24  C   UNL     1       0.866   0.464  -1.373  1.00  0.00     0.007 A 
HETATM   25  C   UNL     1       0.942   1.469  -2.333  1.00  0.00     0.002 A 
HETATM   26  C   UNL     1       1.985   2.398  -2.291  1.00  0.00     0.023 A 
ENDBRANCH  18  20
ENDBRANCH  17  18
ENDBRANCH   1  17
TORSDOF 5
