REMARK  9 active torsions:
REMARK  status: ('A' for Active; 'I' for Inactive)
REMARK    1  A    between atoms: C_2  and  N_3 
REMARK    2  A    between atoms: C_2  and  C_23 
REMARK       I    between atoms: N_3  and  C_4 
REMARK       I    between atoms: C_4  and  N_5 
REMARK    3  A    between atoms: N_5  and  C_6 
REMARK    4  A    between atoms: C_6  and  C_7 
REMARK    5  A    between atoms: C_7  and  N_8 
REMARK    6  A    between atoms: C_7  and  C_14 
REMARK    7  A    between atoms: C_16  and  O_17 
REMARK    8  A    between atoms: C_23  and  C_24 
REMARK    9  A    between atoms: C_27  and  O_28 
ROOT
HETATM    1  N   UNL     1       2.696   0.260   3.883  1.00  0.00    -0.339 N 
HETATM    2  C   UNL     1       2.502   0.645   2.586  1.00  0.00     0.316 C 
HETATM    3  N   UNL     1       1.263   1.210   2.407  1.00  0.00    -0.341 N 
HETATM    4  O   UNL     1       3.338   0.597   1.696  1.00  0.00    -0.248 OA
HETATM    5  H   UNL     1       1.860   0.114   4.429  1.00  0.00     0.164 HD
HETATM    6  H   UNL     1       0.544   0.899   3.047  1.00  0.00     0.164 HD
ENDROOT
BRANCH   3   7
HETATM    7  C   UNL     1       0.838   1.668   1.092  1.00  0.00     0.162 C 
BRANCH   7   8
HETATM    8  C   UNL     1       0.664   3.213   0.967  1.00  0.00     0.238 C 
BRANCH   8   9
HETATM    9  N   UNL     1       1.909   4.043   1.240  1.00  0.00    -0.061 N 
HETATM   10  H   UNL     1       1.666   4.974   0.878  1.00  0.00     0.280 HD
HETATM   11  C   UNL     1       3.194   3.690   0.520  1.00  0.00     0.236 C 
HETATM   12  C   UNL     1       4.288   3.821   1.569  1.00  0.00     0.029 C 
HETATM   13  C   UNL     1       3.697   4.723   2.634  1.00  0.00     0.029 C 
HETATM   14  C   UNL     1       2.251   4.283   2.689  1.00  0.00     0.236 C 
ENDBRANCH   8   9
BRANCH   8  15
HETATM   15  C   UNL     1       0.030   3.638  -0.351  1.00  0.00    -0.023 A 
HETATM   16  C   UNL     1       0.424   3.089  -1.588  1.00  0.00     0.046 A 
HETATM   17  C   UNL     1      -0.169   3.515  -2.780  1.00  0.00     0.068 A 
HETATM   18  C   UNL     1      -1.141   4.515  -2.743  1.00  0.00     0.037 A 
HETATM   19  C   UNL     1      -1.533   5.079  -1.533  1.00  0.00     0.003 A 
HETATM   20  C   UNL     1      -0.952   4.645  -0.343  1.00  0.00     0.009 A 
BRANCH  17  21
HETATM   21  O   UNL     1       0.122   3.050  -4.030  1.00  0.00    -0.356 OA
HETATM   22  C   UNL     1       0.914   1.873  -4.128  1.00  0.00     0.210 C 
ENDBRANCH  17  21
ENDBRANCH   8  15
ENDBRANCH   7   8
ENDBRANCH   3   7
BRANCH   1  23
HETATM   23  C   UNL     1       3.828  -0.560   4.332  1.00  0.00     0.086 C 
HETATM   24  C   UNL     1       5.191   0.034   3.978  1.00  0.00     0.032 C 
BRANCH  23  25
HETATM   25  C   UNL     1       3.709  -2.023   3.849  1.00  0.00     0.063 C 
BRANCH  25  26
HETATM   26  C   UNL     1       2.395  -2.664   4.249  1.00  0.00    -0.056 A 
HETATM   27  C   UNL     1       1.467  -3.048   3.269  1.00  0.00     0.010 A 
HETATM   28  C   UNL     1       0.240  -3.610   3.633  1.00  0.00     0.037 A 
HETATM   29  C   UNL     1      -0.059  -3.783   4.979  1.00  0.00     0.065 A 
HETATM   30  C   UNL     1       0.849  -3.416   5.964  1.00  0.00     0.037 A 
HETATM   31  C   UNL     1       2.079  -2.866   5.601  1.00  0.00     0.010 A 
BRANCH  29  32
HETATM   32  O   UNL     1      -1.246  -4.317   5.382  1.00  0.00    -0.361 OA
HETATM   33  H   UNL     1      -1.709  -4.679   4.608  1.00  0.00     0.217 HD
ENDBRANCH  29  32
ENDBRANCH  25  26
ENDBRANCH  23  25
ENDBRANCH   1  23
TORSDOF 9
