REMARK  7 active torsions:
REMARK  status: ('A' for Active; 'I' for Inactive)
REMARK    1  A    between atoms: C_6  and  N_7 
REMARK       I    between atoms: N_7  and  C_8 
REMARK       I    between atoms: C_8  and  N_9 
REMARK    2  A    between atoms: N_9  and  C_10 
REMARK    3  A    between atoms: C_10  and  C_11 
REMARK    4  A    between atoms: C_11  and  O_12 
REMARK    5  A    between atoms: C_11  and  C_13 
REMARK    6  A    between atoms: C_13  and  N_14 
REMARK       I    between atoms: N_14  and  C_15 
REMARK       I    between atoms: C_15  and  N_16 
REMARK    7  A    between atoms: N_16  and  C_17 
ROOT
HETATM    1  C   UNL     1       4.232   0.771  -0.091  1.00  0.00     0.153 C 
ENDROOT
BRANCH   1   2
HETATM    2  C   UNL     1       2.834   1.362   0.168  1.00  0.00     0.157 C 
BRANCH   2   3
HETATM    3  N   UNL     1       2.253   0.882   1.412  1.00  0.00    -0.340 N 
HETATM    4  C   UNL     1       1.587  -0.320   1.479  1.00  0.00     0.320 C 
HETATM    5  N   UNL     1       1.339  -0.675   2.786  1.00  0.00    -0.306 N 
HETATM    6  O   UNL     1       1.312  -0.972   0.481  1.00  0.00    -0.247 OA
HETATM    7  H   UNL     1       1.998  -0.287   3.443  1.00  0.00     0.171 HD
HETATM    8  H   UNL     1       2.751   1.186   2.236  1.00  0.00     0.164 HD
BRANCH   5   9
HETATM    9  C   UNL     1       0.655  -1.841   3.206  1.00  0.00     0.077 A 
HETATM   10  C   UNL     1      -0.447  -2.450   2.594  1.00  0.00     0.152 A 
HETATM   11  N   UNL     1      -1.040  -3.583   3.057  1.00  0.00    -0.247 NA
HETATM   12 CL   UNL     1      -1.384  -1.736   1.336  1.00  0.00    -0.060 Cl
HETATM   13  C   UNL     1      -0.531  -4.133   4.176  1.00  0.00     0.118 A 
HETATM   14  C   UNL     1       0.525  -3.589   4.883  1.00  0.00     0.022 A 
HETATM   15  C   UNL     1       1.115  -2.426   4.395  1.00  0.00     0.034 A 
ENDBRANCH   5   9
ENDBRANCH   2   3
ENDBRANCH   1   2
BRANCH   1  16
HETATM   16  O   UNL     1       4.988   0.866   1.128  1.00  0.00    -0.392 OA
HETATM   17  H   UNL     1       5.562   0.071   1.191  1.00  0.00     0.210 HD
ENDBRANCH   1  16
BRANCH   1  18
HETATM   18  C   UNL     1       4.170  -0.670  -0.633  1.00  0.00     0.157 C 
BRANCH  18  19
HETATM   19  N   UNL     1       5.450  -1.122  -1.172  1.00  0.00    -0.340 N 
HETATM   20  C   UNL     1       6.450  -1.582  -0.347  1.00  0.00     0.320 C 
HETATM   21  N   UNL     1       7.513  -2.053  -1.079  1.00  0.00    -0.306 N 
HETATM   22  O   UNL     1       6.329  -1.595   0.870  1.00  0.00    -0.247 OA
HETATM   23  H   UNL     1       7.233  -2.422  -1.976  1.00  0.00     0.171 HD
HETATM   24  H   UNL     1       5.730  -0.764  -2.074  1.00  0.00     0.164 HD
BRANCH  21  25
HETATM   25  C   UNL     1       8.709  -2.578  -0.530  1.00  0.00     0.077 A 
HETATM   26  C   UNL     1       9.385  -2.135   0.615  1.00  0.00     0.152 A 
HETATM   27 CL   UNL     1       9.041  -0.661   1.440  1.00  0.00    -0.060 Cl
HETATM   28  N   UNL     1      10.520  -2.708   1.094  1.00  0.00    -0.247 NA
HETATM   29  C   UNL     1      11.019  -3.755   0.410  1.00  0.00     0.118 A 
HETATM   30  C   UNL     1      10.459  -4.241  -0.757  1.00  0.00     0.022 A 
HETATM   31  C   UNL     1       9.297  -3.637  -1.234  1.00  0.00     0.034 A 
ENDBRANCH  21  25
ENDBRANCH  18  19
ENDBRANCH   1  18
TORSDOF 7
