REMARK  7 active torsions:
REMARK  status: ('A' for Active; 'I' for Inactive)
REMARK       I    between atoms: C_2  and  N_3 
REMARK    1  A    between atoms: N_3  and  C_4 
REMARK    2  A    between atoms: C_6  and  N_7 
REMARK       I    between atoms: N_7  and  C_8 
REMARK    3  A    between atoms: C_8  and  C_9 
REMARK       I    between atoms: C_9  and  N_10 
REMARK    4  A    between atoms: N_10  and  C_11 
REMARK    5  A    between atoms: C_11  and  C_12 
REMARK    6  A    between atoms: C_12  and  O_13 
REMARK    7  A    between atoms: C_12  and  C_14 
ROOT
HETATM    1  C   UNL     1       1.459  -3.400   3.093  1.00  0.00     0.309 C 
HETATM    2  N   UNL     1       1.924  -4.656   2.766  1.00  0.00    -0.350 N 
HETATM    3  O   UNL     1       0.570  -3.142   3.892  1.00  0.00    -0.262 OA
HETATM    4  H   UNL     1       2.523  -4.691   1.943  1.00  0.00     0.163 HD
ENDROOT
BRANCH   1   5
HETATM    5  C   UNL     1       2.147  -2.253   2.321  1.00  0.00     0.313 C 
HETATM    6  N   UNL     1       1.624  -1.025   2.662  1.00  0.00    -0.319 N 
HETATM    7  H   UNL     1       0.875  -1.066   3.351  1.00  0.00     0.169 HD
HETATM    8  O   UNL     1       3.024  -2.531   1.516  1.00  0.00    -0.262 OA
BRANCH   6   9
HETATM    9  C   UNL     1       1.982   0.239   2.164  1.00  0.00     0.037 A 
HETATM   10  C   UNL     1       3.008   0.447   1.237  1.00  0.00     0.059 A 
HETATM   11  C   UNL     1       3.315   1.738   0.776  1.00  0.00     0.036 A 
HETATM   12  C   UNL     1       2.579   2.821   1.253  1.00  0.00     0.029 A 
HETATM   13  C   UNL     1       1.554   2.623   2.181  1.00  0.00     0.004 A 
HETATM   14  C   UNL     1       1.259   1.338   2.636  1.00  0.00     0.029 A 
BRANCH  11  15
HETATM   15  N   UNL     1       4.370   1.852  -0.155  1.00  0.00    -0.327 N 
HETATM   16  C   UNL     1       4.857   3.007  -0.740  1.00  0.00     0.218 C 
HETATM   17  C   UNL     1       6.005   2.724  -1.676  1.00  0.00     0.117 C 
HETATM   18  O   UNL     1       4.469   4.154  -0.551  1.00  0.00    -0.274 OA
HETATM   19  H   UNL     1       4.824   0.985  -0.415  1.00  0.00     0.169 HD
ENDBRANCH  11  15
ENDBRANCH   6   9
ENDBRANCH   1   5
BRANCH   2  20
HETATM   20  C   UNL     1       1.216  -5.852   3.204  1.00  0.00     0.159 C 
BRANCH  20  21
HETATM   21  C   UNL     1       2.114  -7.104   3.169  1.00  0.00     0.171 C 
BRANCH  21  22
HETATM   22  O   UNL     1       3.252  -6.893   4.018  1.00  0.00    -0.389 OA
HETATM   23  H   UNL     1       3.473  -5.948   3.950  1.00  0.00     0.210 HD
ENDBRANCH  21  22
BRANCH  21  24
HETATM   24  C   UNL     1       1.355  -8.330   3.575  1.00  0.00     0.000 A 
HETATM   25  C   UNL     1       0.551  -9.160   2.726  1.00  0.00     0.001 A 
HETATM   26  C   UNL     1       0.005 -10.177   3.518  1.00  0.00     0.044 A 
HETATM   27  C   UNL     1       0.236  -9.132   1.350  1.00  0.00     0.014 A 
HETATM   28  C   UNL     1      -0.837 -11.165   2.980  1.00  0.00     0.030 A 
HETATM   29  N   UNL     1       0.462  -9.972   4.801  1.00  0.00    -0.360 N 
HETATM   30  C   UNL     1      -1.134 -11.111   1.615  1.00  0.00     0.002 A 
HETATM   31  C   UNL     1      -0.606 -10.109   0.809  1.00  0.00     0.001 A 
HETATM   32  C   UNL     1       0.156 -10.783   5.959  1.00  0.00     0.155 C 
HETATM   33  C   UNL     1       1.270  -8.869   4.845  1.00  0.00     0.101 A 
ENDBRANCH  21  24
ENDBRANCH  20  21
ENDBRANCH   2  20
TORSDOF 7
