REMARK  6 active torsions:
REMARK  status: ('A' for Active; 'I' for Inactive)
REMARK    1  A    between atoms: C_2  and  O_3 
REMARK    2  A    between atoms: O_3  and  C_4 
REMARK    3  A    between atoms: C_4  and  C_5 
REMARK    4  A    between atoms: C_10  and  C_11 
REMARK    5  A    between atoms: C_11  and  N_12 
REMARK    6  A    between atoms: C_11  and  C_16 
ROOT
HETATM    1  C   UNL     1       4.672  -0.505   3.143  1.00  0.00     0.118 A 
HETATM    2  N   UNL     1       4.903  -0.780   4.465  1.00  0.00    -0.350 N 
HETATM    3  H   UNL     1       5.115  -0.086   5.172  1.00  0.00     0.166 HD
HETATM    4  C   UNL     1       4.722  -2.115   4.716  1.00  0.00     0.043 A 
HETATM    5  C   UNL     1       4.448  -2.742   3.497  1.00  0.00     0.002 A 
HETATM    6  C   UNL     1       4.467  -1.722   2.475  1.00  0.00     0.022 A 
HETATM    7  C   UNL     1       4.789  -2.797   5.937  1.00  0.00     0.030 A 
HETATM    8  C   UNL     1       4.564  -4.173   5.929  1.00  0.00     0.002 A 
HETATM    9  C   UNL     1       4.288  -4.837   4.742  1.00  0.00     0.001 A 
HETATM   10  C   UNL     1       4.230  -4.139   3.528  1.00  0.00     0.014 A 
ENDROOT
BRANCH   6  11
HETATM   11  C   UNL     1       4.272  -1.795   0.976  1.00  0.00     0.252 C 
BRANCH  11  12
HETATM   12  N   UNL     1       2.954  -1.247   0.593  1.00  0.00    -0.067 N 
HETATM   13  H   UNL     1       2.775  -1.381  -0.406  1.00  0.00     0.275 HD
HETATM   14  H   UNL     1       2.206  -1.663   1.152  1.00  0.00     0.275 HD
HETATM   15  H   UNL     1       2.976  -0.229   0.775  1.00  0.00     0.275 HD
ENDBRANCH  11  12
BRANCH  11  16
HETATM   16  C   UNL     1       4.567  -3.176   0.443  1.00  0.00    -0.024 A 
HETATM   17  C   UNL     1       5.913  -3.577   0.309  1.00  0.00     0.009 A 
HETATM   18  C   UNL     1       6.242  -4.825  -0.222  1.00  0.00     0.001 A 
HETATM   19  C   UNL     1       5.236  -5.694  -0.630  1.00  0.00     0.000 A 
HETATM   20  C   UNL     1       3.900  -5.319  -0.506  1.00  0.00     0.001 A 
HETATM   21  C   UNL     1       3.564  -4.070   0.025  1.00  0.00     0.009 A 
ENDBRANCH  11  16
ENDBRANCH   6  11
BRANCH   1  22
HETATM   22  C   UNL     1       4.637   0.825   2.582  1.00  0.00     0.310 C 
HETATM   23  O   UNL     1       4.150   1.062   1.482  1.00  0.00    -0.258 OA
BRANCH  22  24
HETATM   24  O   UNL     1       5.196   1.713   3.436  1.00  0.00    -0.317 OA
BRANCH  24  25
HETATM   25  C   UNL     1       5.306   3.066   2.965  1.00  0.00     0.175 C 
HETATM   26  C   UNL     1       6.617   3.240   2.220  1.00  0.00     0.034 C 
ENDBRANCH  24  25
ENDBRANCH  22  24
ENDBRANCH   1  22
TORSDOF 6
