REMARK  7 active torsions:
REMARK  status: ('A' for Active; 'I' for Inactive)
REMARK    1  A    between atoms: C_2  and  N_3 
REMARK       I    between atoms: N_3  and  C_4 
REMARK    2  A    between atoms: C_4  and  C_5 
REMARK    3  A    between atoms: C_9  and  N_10 
REMARK       I    between atoms: N_10  and  C_11 
REMARK    4  A    between atoms: C_11  and  C_12 
REMARK    5  A    between atoms: C_12  and  S_13 
REMARK    6  A    between atoms: S_13  and  C_14 
REMARK    7  A    between atoms: C_14  and  C_15 
ROOT
HETATM    1  N   UNL     1       8.677   2.513   0.395  1.00  0.00    -0.326 N 
HETATM    2  C   UNL     1       9.586   1.951  -0.492  1.00  0.00     0.231 C 
HETATM    3  O   UNL     1      10.142   2.526  -1.424  1.00  0.00    -0.272 OA
HETATM    4  H   UNL     1       8.429   1.946   1.205  1.00  0.00     0.169 HD
ENDROOT
BRANCH   2   5
HETATM    5  C   UNL     1       9.879   0.483  -0.215  1.00  0.00     0.177 C 
BRANCH   5   6
HETATM    6  S   UNL     1      11.526   0.261   0.546  1.00  0.00    -0.147 SA
BRANCH   6   7
HETATM    7  C   UNL     1      11.249   1.111   2.147  1.00  0.00     0.113 C 
HETATM    8  C   UNL     1      12.559   1.165   2.930  1.00  0.00     0.029 C 
BRANCH   7   9
HETATM    9  C   UNL     1      10.159   0.416   2.906  1.00  0.00     0.118 A 
HETATM   10  N   UNL     1       8.915   0.838   3.048  1.00  0.00    -0.232 NA
HETATM   11  C   UNL     1       8.278  -0.135   3.784  1.00  0.00     0.085 A 
HETATM   12  C   UNL     1       9.135  -1.196   4.050  1.00  0.00     0.062 A 
HETATM   13  C   UNL     1       6.958  -0.189   4.255  1.00  0.00     0.034 A 
HETATM   14  N   UNL     1      10.321  -0.827   3.475  1.00  0.00    -0.342 N 
HETATM   15  C   UNL     1       8.749  -2.337   4.756  1.00  0.00     0.032 A 
HETATM   16  H   UNL     1      11.165  -1.381   3.449  1.00  0.00     0.167 HD
HETATM   17  C   UNL     1       7.428  -2.375   5.216  1.00  0.00     0.002 A 
HETATM   18  C   UNL     1       6.546  -1.319   4.974  1.00  0.00     0.002 A 
ENDBRANCH   7   9
ENDBRANCH   6   7
ENDBRANCH   5   6
ENDBRANCH   2   5
BRANCH   1  19
HETATM   19  C   UNL     1       8.136   3.825   0.353  1.00  0.00     0.040 A 
HETATM   20  C   UNL     1       7.258   4.243   1.378  1.00  0.00    -0.034 A 
HETATM   21  C   UNL     1       6.735   5.554   1.361  1.00  0.00     0.026 A 
HETATM   22  C   UNL     1       6.862   3.348   2.522  1.00  0.00     0.050 C 
HETATM   23  C   UNL     1       7.065   6.446   0.336  1.00  0.00     0.032 A 
HETATM   24  C   UNL     1       7.896   6.017  -0.695  1.00  0.00     0.019 A 
HETATM   25  C   UNL     1       8.427   4.722  -0.683  1.00  0.00     0.031 A 
BRANCH  23  26
HETATM   26  C   UNL     1       6.541   7.840   0.295  1.00  0.00     0.251 C 
HETATM   27  N   UNL     1       6.261   8.424   1.515  1.00  0.00    -0.357 N 
HETATM   28  H   UNL     1       6.578   7.970   2.360  1.00  0.00     0.162 HD
HETATM   29  O   UNL     1       6.415   8.421  -0.777  1.00  0.00    -0.268 OA
BRANCH  27  30
HETATM   30  C   UNL     1       5.858   9.811   1.611  1.00  0.00     0.118 C 
HETATM   31  C   UNL     1       7.060  10.737   1.661  1.00  0.00     0.026 C 
ENDBRANCH  27  30
ENDBRANCH  23  26
ENDBRANCH   1  19
TORSDOF 7
