REMARK  7 active torsions:
REMARK  status: ('A' for Active; 'I' for Inactive)
REMARK    1  A    between atoms: C_2  and  N_3 
REMARK    2  A    between atoms: N_3  and  C_5 
REMARK    3  A    between atoms: N_3  and  C_17 
REMARK    4  A    between atoms: C_5  and  C_6 
REMARK       I    between atoms: C_6  and  N_7 
REMARK    5  A    between atoms: N_7  and  C_8 
REMARK    6  A    between atoms: C_17  and  C_18 
REMARK    7  A    between atoms: C_19  and  C_20 
ROOT
HETATM    1  N   UNL     1       3.019   0.336   1.364  1.00  0.00    -0.059 N 
HETATM    2  H   UNL     1       2.694   0.816   0.518  1.00  0.00     0.280 HD
ENDROOT
BRANCH   1   3
HETATM    3  C   UNL     1       2.797  -1.146   1.156  1.00  0.00     0.231 C 
HETATM    4  C   UNL     1       1.356  -1.428   0.771  1.00  0.00     0.034 C 
ENDBRANCH   1   3
BRANCH   1   5
HETATM    5  C   UNL     1       2.239   0.933   2.542  1.00  0.00     0.337 C 
BRANCH   5   6
HETATM    6  C   UNL     1       2.578   0.324   3.909  1.00  0.00     0.248 C 
HETATM    7  N   UNL     1       1.476   0.095   4.713  1.00  0.00    -0.325 N 
HETATM    8  H   UNL     1       0.584  -0.028   4.252  1.00  0.00     0.169 HD
HETATM    9  O   UNL     1       3.744   0.046   4.178  1.00  0.00    -0.271 OA
BRANCH   7  10
HETATM   10  C   UNL     1       1.527  -0.404   6.043  1.00  0.00     0.046 A 
HETATM   11  C   UNL     1       2.462   0.046   7.001  1.00  0.00    -0.035 A 
HETATM   12  C   UNL     1       3.453   1.158   6.780  1.00  0.00     0.050 C 
HETATM   13  C   UNL     1       2.457  -0.531   8.285  1.00  0.00     0.009 A 
HETATM   14  C   UNL     1       1.513  -1.486   8.643  1.00  0.00     0.001 A 
HETATM   15  C   UNL     1       0.552  -1.881   7.722  1.00  0.00     0.009 A 
HETATM   16  C   UNL     1       0.542  -1.351   6.422  1.00  0.00    -0.035 A 
HETATM   17  C   UNL     1      -0.514  -1.855   5.472  1.00  0.00     0.050 C 
ENDBRANCH   7  10
ENDBRANCH   5   6
ENDBRANCH   1   5
BRANCH   1  18
HETATM   18  C   UNL     1       4.509   0.665   1.454  1.00  0.00     0.277 C 
BRANCH  18  19
HETATM   19  C   UNL     1       5.173   0.610   0.121  1.00  0.00     0.012 A 
HETATM   20  C   UNL     1       6.309  -0.163  -0.297  1.00  0.00     0.071 A 
HETATM   21  N   UNL     1       6.567   0.055  -1.592  1.00  0.00    -0.178 NA
HETATM   22  N   UNL     1       5.697   0.985  -1.984  1.00  0.00    -0.288 N 
HETATM   23  H   UNL     1       5.758   1.327  -2.940  1.00  0.00     0.188 HD
HETATM   24  C   UNL     1       4.824   1.343  -1.001  1.00  0.00     0.120 A 
BRANCH  20  25
HETATM   25  C   UNL     1       7.201  -1.132   0.488  1.00  0.00    -0.004 C 
HETATM   26  C   UNL     1       6.387  -2.330   1.014  1.00  0.00     0.021 C 
HETATM   27  C   UNL     1       8.335  -1.714  -0.396  1.00  0.00     0.021 C 
HETATM   28  C   UNL     1       7.880  -0.405   1.666  1.00  0.00     0.021 C 
ENDBRANCH  20  25
ENDBRANCH  18  19
ENDBRANCH   1  18
TORSDOF 7
