REMARK  11 active torsions:
REMARK  status: ('A' for Active; 'I' for Inactive)
REMARK    1  A    between atoms: C_5  and  C_6 
REMARK    2  A    between atoms: C_6  and  N_7 
REMARK    3  A    between atoms: N_7  and  C_10 
REMARK    4  A    between atoms: C_10  and  C_11 
REMARK    5  A    between atoms: C_13  and  O_14 
REMARK    6  A    between atoms: C_16  and  O_17 
REMARK    7  A    between atoms: O_17  and  C_18 
REMARK    8  A    between atoms: C_18  and  C_19 
REMARK    9  A    between atoms: C_19  and  O_20 
REMARK   10  A    between atoms: C_19  and  C_21 
REMARK   11  A    between atoms: C_21  and  N_22 
ROOT
HETATM    1  C   UNL     1       9.370   2.596  -0.997  1.00  0.00    -0.030 A 
HETATM    2  C   UNL     1       8.618   3.705  -0.574  1.00  0.00     0.048 A 
HETATM    3  C   UNL     1       9.129   5.006  -0.693  1.00  0.00     0.102 A 
HETATM    4  C   UNL     1      10.411   5.207  -1.241  1.00  0.00     0.102 A 
HETATM    5  C   UNL     1      11.173   4.104  -1.632  1.00  0.00     0.040 A 
HETATM    6  C   UNL     1      10.656   2.810  -1.515  1.00  0.00     0.012 A 
ENDROOT
BRANCH   4   7
HETATM    7  O   UNL     1      10.828   6.511  -1.337  1.00  0.00    -0.346 OA
BRANCH   7   8
HETATM    8  C   UNL     1      11.970   6.794  -2.148  1.00  0.00     0.209 C 
BRANCH   8   9
HETATM    9  C   UNL     1      11.990   8.311  -2.371  1.00  0.00     0.168 C 
BRANCH   9  10
HETATM   10  O   UNL     1      12.133   9.012  -1.120  1.00  0.00    -0.392 OA
HETATM   11  H   UNL     1      11.473   8.613  -0.510  1.00  0.00     0.210 HD
ENDBRANCH   9  10
BRANCH   9  12
HETATM   12  C   UNL     1      13.163   8.743  -3.264  1.00  0.00     0.268 C 
BRANCH  12  13
HETATM   13  N   UNL     1      13.359  10.252  -3.121  1.00  0.00    -0.067 N 
HETATM   14  H   UNL     1      13.128  10.425  -2.123  1.00  0.00     0.280 HD
HETATM   15  C   UNL     1      14.806  10.662  -3.342  1.00  0.00     0.245 C 
HETATM   16  C   UNL     1      15.052  12.121  -2.961  1.00  0.00     0.101 C 
HETATM   17  S   UNL     1      14.053  13.264  -3.958  1.00  0.00    -0.166 SA
HETATM   18  C   UNL     1      12.420  12.541  -3.630  1.00  0.00     0.101 C 
HETATM   19  C   UNL     1      12.380  11.051  -3.967  1.00  0.00     0.245 C 
ENDBRANCH  12  13
ENDBRANCH   9  12
ENDBRANCH   8   9
ENDBRANCH   7   8
ENDBRANCH   4   7
BRANCH   3  20
HETATM   20  O   UNL     1       8.459   6.144  -0.320  1.00  0.00    -0.353 OA
HETATM   21  C   UNL     1       7.166   6.005   0.257  1.00  0.00     0.210 C 
ENDBRANCH   3  20
BRANCH   1  22
HETATM   22  C   UNL     1       8.819   1.200  -0.883  1.00  0.00     0.271 C 
BRANCH  22  23
HETATM   23  N   UNL     1       9.407   0.471   0.258  1.00  0.00    -0.066 N 
HETATM   24  H   UNL     1       9.217   0.949   1.147  1.00  0.00     0.277 HD
HETATM   25  H   UNL     1      10.440   0.473   0.216  1.00  0.00     0.277 HD
BRANCH  23  26
HETATM   26  C   UNL     1       9.022  -0.974   0.397  1.00  0.00     0.293 C 
BRANCH  26  27
HETATM   27  C   UNL     1      10.007  -1.692   1.276  1.00  0.00     0.077 A 
HETATM   28  C   UNL     1       9.810  -3.008   1.662  1.00  0.00     0.145 A 
HETATM   29  N   UNL     1      10.701  -3.668   2.430  1.00  0.00    -0.262 NA
HETATM   30  C   UNL     1      11.809  -2.985   2.808  1.00  0.00     0.048 A 
HETATM   31  C   UNL     1      12.813  -3.689   3.667  1.00  0.00     0.072 C 
HETATM   32  C   UNL     1      12.005  -1.666   2.416  1.00  0.00     0.143 A 
HETATM   33  N   UNL     1      11.120  -0.987   1.638  1.00  0.00    -0.260 NA
ENDBRANCH  26  27
ENDBRANCH  23  26
ENDBRANCH  22  23
ENDBRANCH   1  22
TORSDOF 11
