REMARK  4 active torsions:
REMARK  status: ('A' for Active; 'I' for Inactive)
REMARK    1  A    between atoms: C_4  and  N_5 
REMARK    2  A    between atoms: N_5  and  N_6 
REMARK    3  A    between atoms: C_7  and  C_8 
REMARK    4  A    between atoms: C_9  and  O_10 
ROOT
HETATM    1  N   UNL     1       4.347  -3.560  -0.029  1.00  0.00    -0.172 NA
HETATM    2  C   UNL     1       5.165  -4.568  -0.027  1.00  0.00     0.153 C 
ENDROOT
BRANCH   1   3
HETATM    3  N   UNL     1       4.960  -2.342  -0.041  1.00  0.00    -0.108 N 
HETATM    4  H   UNL     1       5.975  -2.257  -0.056  1.00  0.00     0.208 HD
BRANCH   3   5
HETATM    5  C   UNL     1       4.335  -1.122  -0.028  1.00  0.00     0.723 A 
HETATM    6  N   UNL     1       5.032  -0.024  -0.041  1.00  0.00    -0.068 NA
HETATM    7  C   UNL     1       4.349   1.169  -0.018  1.00  0.00     0.055 A 
HETATM    8  C   UNL     1       5.196   2.410  -0.018  1.00  0.00     0.071 C 
HETATM    9  C   UNL     1       3.013   1.266   0.017  1.00  0.00     0.102 A 
HETATM   10  C   UNL     1       2.230   0.024   0.020  1.00  0.00     0.261 A 
HETATM   11  N   UNL     1       2.970  -1.116   0.000  1.00  0.00    -0.153 N 
HETATM   12  O   UNL     1       1.006   0.039   0.040  1.00  0.00    -0.268 OA
HETATM   13  H   UNL     1       2.490  -2.000   0.004  1.00  0.00     0.187 HD
ENDBRANCH   3   5
ENDBRANCH   1   3
BRANCH   2  14
HETATM   14  C   UNL     1       4.680  -5.965  -0.018  1.00  0.00     0.019 A 
HETATM   15  C   UNL     1       3.315  -6.290  -0.015  1.00  0.00     0.094 A 
HETATM   16  C   UNL     1       2.924  -7.634  -0.009  1.00  0.00     0.046 A 
HETATM   17 BR   UNL     1       1.094  -8.136  -0.005  1.00  0.00    -0.048 Br
HETATM   18  C   UNL     1       3.884  -8.648  -0.005  1.00  0.00     0.041 A 
HETATM   19  C   UNL     1       5.237  -8.315  -0.008  1.00  0.00     0.013 A 
HETATM   20 BR   UNL     1       6.538  -9.686  -0.004  1.00  0.00    -0.051 Br
HETATM   21  C   UNL     1       5.643  -6.981  -0.014  1.00  0.00     0.035 A 
BRANCH  15  22
HETATM   22  O   UNL     1       2.345  -5.322  -0.019  1.00  0.00    -0.358 OA
HETATM   23  H   UNL     1       2.788  -4.448  -0.025  1.00  0.00     0.218 HD
ENDBRANCH  15  22
ENDBRANCH   2  14
TORSDOF 4
