REMARK  2 active torsions:
REMARK  status: ('A' for Active; 'I' for Inactive)
REMARK    1  A    between atoms: C_2  and  C_3 
REMARK       I    between atoms: C_3  and  N_4 
REMARK    2  A    between atoms: N_4  and  C_5 
ROOT
HETATM    1  C   UNL     1       1.913   3.095  -0.165  1.00  0.00     0.174 A 
HETATM    2  S   UNL     1       2.667   1.603   0.135  1.00  0.00    -0.050 SA
HETATM    3  C   UNL     1       4.210   2.367   0.115  1.00  0.00     0.040 A 
HETATM    4  C   UNL     1       4.025   3.739  -0.117  1.00  0.00     0.079 A 
HETATM    5  N   UNL     1       2.706   4.134  -0.270  1.00  0.00    -0.223 NA
HETATM    6  C   UNL     1       5.483   1.792   0.289  1.00  0.00     0.061 A 
HETATM    7  C   UNL     1       6.550   2.666   0.214  1.00  0.00     0.106 A 
HETATM    8  C   UNL     1       6.392   4.010  -0.011  1.00  0.00     0.107 A 
HETATM    9  O   UNL     1       7.580   4.674  -0.048  1.00  0.00    -0.323 OA
HETATM   10  C   UNL     1       8.506   3.591   0.173  1.00  0.00     0.352 A 
HETATM   11  O   UNL     1       7.859   2.314   0.347  1.00  0.00    -0.323 OA
HETATM   12  C   UNL     1       5.150   4.591  -0.180  1.00  0.00     0.073 A 
ENDROOT
BRANCH   1  13
HETATM   13  N   UNL     1       0.559   3.240  -0.304  1.00  0.00    -0.301 N 
HETATM   14  C   UNL     1      -0.410   2.265  -0.241  1.00  0.00     0.264 C 
HETATM   15  O   UNL     1      -0.202   1.078  -0.014  1.00  0.00    -0.267 OA
HETATM   16  H   UNL     1       0.275   4.192  -0.491  1.00  0.00     0.171 HD
BRANCH  14  17
HETATM   17  C   UNL     1      -1.773   2.749  -0.475  1.00  0.00     0.074 A 
HETATM   18  C   UNL     1      -2.930   1.985  -0.483  1.00  0.00     0.027 A 
HETATM   19  C   UNL     1      -4.100   2.755  -0.752  1.00  0.00     0.033 A 
HETATM   20  C   UNL     1      -3.784   4.075  -0.936  1.00  0.00     0.075 A 
HETATM   21  S   UNL     1      -2.131   4.401  -0.793  1.00  0.00    -0.072 SA
HETATM   22 CL   UNL     1      -4.877   5.352  -1.283  1.00  0.00    -0.076 Cl
ENDBRANCH  14  17
ENDBRANCH   1  13
TORSDOF 2
