REMARK  10 active torsions:
REMARK  status: ('A' for Active; 'I' for Inactive)
REMARK    1  A    between atoms: C_3  and  C_4 
REMARK    2  A    between atoms: C_4  and  C_5 
REMARK       I    between atoms: C_5  and  N_6 
REMARK    3  A    between atoms: N_6  and  C_7 
REMARK    4  A    between atoms: C_7  and  C_8 
REMARK    5  A    between atoms: C_18  and  N_19 
REMARK       I    between atoms: N_19  and  C_20 
REMARK    6  A    between atoms: C_20  and  C_21 
REMARK    7  A    between atoms: C_21  and  O_22 
REMARK    8  A    between atoms: C_28  and  C_29 
REMARK    9  A    between atoms: C_29  and  O_30 
REMARK   10  A    between atoms: C_32  and  O_33 
ROOT
HETATM    1  C   UNL     1      -1.538   2.666   0.522  1.00  0.00     0.016 C 
HETATM    2  C   UNL     1      -0.033   2.350   0.206  1.00  0.00    -0.030 C 
HETATM    3  C   UNL     1       0.163   0.812   0.647  1.00  0.00     0.056 C 
HETATM    4  C   UNL     1      -0.031  -0.127  -0.528  1.00  0.00     0.056 A 
HETATM    5  C   UNL     1      -0.380   0.278  -1.797  1.00  0.00     0.012 A 
HETATM    6  S   UNL     1      -0.546  -1.064  -2.828  1.00  0.00    -0.055 SA
HETATM    7  C   UNL     1      -0.111  -2.094  -1.544  1.00  0.00     0.174 A 
HETATM    8  N   UNL     1       0.135  -1.499  -0.395  1.00  0.00    -0.227 NA
HETATM    9  C   UNL     1      -0.590   1.672  -2.250  1.00  0.00     0.055 C 
HETATM   10  C   UNL     1       0.186   2.663  -1.344  1.00  0.00     0.012 C 
HETATM   11  C   UNL     1       1.674   2.950  -1.811  1.00  0.00     0.008 C 
HETATM   12  C   UNL     1       1.654   3.619  -3.218  1.00  0.00     0.020 C 
HETATM   13  C   UNL     1       2.312   3.987  -0.838  1.00  0.00     0.128 C 
HETATM   14  C   UNL     1       2.215   3.570   0.623  1.00  0.00     0.033 C 
HETATM   15  C   UNL     1       0.768   3.375   1.051  1.00  0.00     0.013 C 
ENDROOT
BRANCH   3  16
HETATM   16  C   UNL     1       1.426   0.462   1.456  1.00  0.00     0.114 C 
BRANCH  16  17
HETATM   17  C   UNL     1       1.159  -0.626   2.481  1.00  0.00     0.218 C 
HETATM   18  N   UNL     1       1.385  -1.895   2.019  1.00  0.00    -0.357 N 
HETATM   19  H   UNL     1       1.272  -2.017   1.015  1.00  0.00     0.162 HD
HETATM   20  O   UNL     1       0.793  -0.367   3.623  1.00  0.00    -0.274 OA
BRANCH  18  21
HETATM   21  C   UNL     1       1.150  -3.051   2.847  1.00  0.00     0.161 C 
BRANCH  21  22
HETATM   22  C   UNL     1       1.868  -4.245   2.279  1.00  0.00    -0.041 A 
HETATM   23  C   UNL     1       3.268  -4.315   2.343  1.00  0.00     0.009 A 
HETATM   24  C   UNL     1       3.952  -5.398   1.790  1.00  0.00     0.001 A 
HETATM   25  C   UNL     1       3.243  -6.422   1.166  1.00  0.00     0.000 A 
HETATM   26  C   UNL     1       1.852  -6.363   1.097  1.00  0.00     0.001 A 
HETATM   27  C   UNL     1       1.166  -5.280   1.650  1.00  0.00     0.009 A 
ENDBRANCH  21  22
ENDBRANCH  18  21
ENDBRANCH  16  17
ENDBRANCH   3  16
BRANCH  11  28
HETATM   28  C   UNL     1       2.546   1.673  -1.935  1.00  0.00     0.176 C 
BRANCH  28  29
HETATM   29  O   UNL     1       3.851   1.936  -2.441  1.00  0.00    -0.400 OA
HETATM   30  H   UNL     1       4.148   2.773  -2.023  1.00  0.00     0.209 HD
ENDBRANCH  28  29
ENDBRANCH  11  28
BRANCH   7  31
HETATM   31  N   UNL     1      -0.010  -3.453  -1.687  1.00  0.00    -0.304 N 
HETATM   32  C   UNL     1      -0.241  -4.193  -2.827  1.00  0.00     0.247 C 
HETATM   33  O   UNL     1      -0.585  -3.785  -3.932  1.00  0.00    -0.271 OA
HETATM   34  H   UNL     1       0.248  -3.956  -0.846  1.00  0.00     0.171 HD
BRANCH  32  35
HETATM   35  C   UNL     1       0.028  -5.683  -2.596  1.00  0.00     0.270 C 
BRANCH  35  36
HETATM   36  O   UNL     1      -0.444  -6.149  -1.335  1.00  0.00    -0.387 OA
HETATM   37  C   UNL     1      -1.831  -6.470  -1.371  1.00  0.00     0.202 C 
ENDBRANCH  35  36
ENDBRANCH  32  35
ENDBRANCH   7  31
BRANCH  13  38
HETATM   38  O   UNL     1       3.692   4.196  -1.148  1.00  0.00    -0.395 OA
HETATM   39  H   UNL     1       4.006   4.938  -0.598  1.00  0.00     0.210 HD
ENDBRANCH  13  38
TORSDOF 10
