REMARK  6 active torsions:
REMARK  status: ('A' for Active; 'I' for Inactive)
REMARK    1  A    between atoms: C_2  and  C_3 
REMARK    2  A    between atoms: C_7  and  O_8 
REMARK    3  A    between atoms: O_8  and  C_9 
REMARK    4  A    between atoms: C_9  and  C_10 
REMARK       I    between atoms: C_10  and  N_11 
REMARK    5  A    between atoms: N_11  and  N_12 
REMARK    6  A    between atoms: C_13  and  C_14 
ROOT
HETATM    1  C   UNL     1       5.608   3.026   6.753  1.00  0.00     0.261 C 
HETATM    2  N   UNL     1       6.306   4.141   6.317  1.00  0.00    -0.246 N 
HETATM    3  O   UNL     1       5.354   2.758   7.927  1.00  0.00    -0.269 OA
HETATM    4  H   UNL     1       6.518   4.241   5.330  1.00  0.00     0.192 HD
ENDROOT
BRANCH   1   5
HETATM    5  C   UNL     1       5.230   2.070   5.626  1.00  0.00     0.280 C 
BRANCH   5   6
HETATM    6  O   UNL     1       5.045   2.754   4.387  1.00  0.00    -0.341 OA
BRANCH   6   7
HETATM    7  C   UNL     1       4.373   2.034   3.431  1.00  0.00     0.086 A 
HETATM    8  C   UNL     1       3.519   2.720   2.563  1.00  0.00     0.044 A 
HETATM    9  C   UNL     1       2.822   2.034   1.558  1.00  0.00     0.029 A 
HETATM   10 BR   UNL     1       3.250   4.594   2.717  1.00  0.00    -0.048 Br
HETATM   11  C   UNL     1       2.975   0.646   1.373  1.00  0.00    -0.049 A 
HETATM   12  C   UNL     1       3.850  -0.022   2.243  1.00  0.00     0.011 A 
HETATM   13  C   UNL     1       4.543   0.661   3.254  1.00  0.00     0.039 A 
BRANCH  11  14
HETATM   14  C   UNL     1       2.203  -0.079   0.255  1.00  0.00    -0.024 C 
HETATM   15  C   UNL     1       2.519   0.571  -1.110  1.00  0.00     0.019 C 
HETATM   16  C   UNL     1       0.688   0.023   0.527  1.00  0.00     0.019 C 
HETATM   17  C   UNL     1       2.549  -1.581   0.130  1.00  0.00     0.019 C 
ENDBRANCH  11  14
ENDBRANCH   6   7
ENDBRANCH   5   6
ENDBRANCH   1   5
BRANCH   2  18
HETATM   18  N   UNL     1       6.810   5.021   7.223  1.00  0.00    -0.184 NA
HETATM   19  C   UNL     1       7.484   6.061   6.836  1.00  0.00     0.152 C 
BRANCH  19  20
HETATM   20  C   UNL     1       7.734   6.516   5.481  1.00  0.00     0.011 A 
HETATM   21  C   UNL     1       8.915   7.197   5.033  1.00  0.00     0.004 A 
HETATM   22  C   UNL     1       8.736   7.513   3.686  1.00  0.00     0.043 A 
HETATM   23  C   UNL     1      10.127   7.572   5.653  1.00  0.00     0.014 A 
HETATM   24  C   UNL     1       9.703   8.187   2.930  1.00  0.00     0.030 A 
HETATM   25  N   UNL     1       7.490   7.056   3.326  1.00  0.00    -0.364 N 
HETATM   26  C   UNL     1      10.892   8.549   3.570  1.00  0.00     0.002 A 
HETATM   27  C   UNL     1      11.104   8.247   4.912  1.00  0.00     0.001 A 
HETATM   28  H   UNL     1       7.083   7.166   2.407  1.00  0.00     0.165 HD
HETATM   29  C   UNL     1       6.870   6.477   4.402  1.00  0.00     0.102 A 
ENDBRANCH  19  20
ENDBRANCH   2  18
TORSDOF 6
