REMARK  5 active torsions:
REMARK  status: ('A' for Active; 'I' for Inactive)
REMARK    1  A    between atoms: C_2  and  C_3 
REMARK    2  A    between atoms: C_3  and  N_4 
REMARK    3  A    between atoms: C_3  and  C_18 
REMARK    4  A    between atoms: N_4  and  C_7 
REMARK    5  A    between atoms: C_7  and  C_8 
ROOT
HETATM    1  N   UNL     1       1.965   2.479  -1.502  1.00  0.00    -0.056 N 
HETATM    2  H   UNL     1       1.295   2.321  -2.264  1.00  0.00     0.278 HD
HETATM    3  H   UNL     1       2.333   3.419  -1.687  1.00  0.00     0.278 HD
ENDROOT
BRANCH   1   4
HETATM    4  C   UNL     1       1.199   2.534  -0.209  1.00  0.00     0.292 C 
BRANCH   4   5
HETATM    5  C   UNL     1       0.419   1.261   0.069  1.00  0.00    -0.020 A 
HETATM    6  C   UNL     1       0.685   0.529   1.241  1.00  0.00     0.011 A 
HETATM    7  C   UNL     1       0.001  -0.660   1.513  1.00  0.00     0.024 A 
HETATM    8  C   UNL     1      -0.955  -1.132   0.619  1.00  0.00     0.034 A 
HETATM    9  C   UNL     1      -1.236  -0.423  -0.546  1.00  0.00     0.024 A 
HETATM   10 CL   UNL     1      -1.794  -2.593   0.954  1.00  0.00    -0.084 Cl
HETATM   11  C   UNL     1      -0.554   0.765  -0.823  1.00  0.00     0.011 A 
ENDBRANCH   4   5
BRANCH   4  12
HETATM   12  C   UNL     1       0.191   3.650  -0.211  1.00  0.00     0.190 A 
HETATM   13  N   UNL     1      -0.206   4.287   0.896  1.00  0.00    -0.109 NA
HETATM   14  O   UNL     1      -1.081   5.261   0.404  1.00  0.00    -0.205 OA
HETATM   15  C   UNL     1      -1.083   5.129  -0.949  1.00  0.00     0.288 A 
HETATM   16  N   UNL     1      -0.296   4.174  -1.391  1.00  0.00    -0.215 NA
ENDBRANCH   4  12
ENDBRANCH   1   4
BRANCH   1  17
HETATM   17  C   UNL     1       3.064   1.490  -1.563  1.00  0.00     0.272 C 
BRANCH  17  18
HETATM   18  C   UNL     1       3.825   1.629  -2.849  1.00  0.00    -0.030 A 
HETATM   19  C   UNL     1       3.433   0.905  -3.986  1.00  0.00     0.048 A 
HETATM   20  C   UNL     1       4.111   1.069  -5.195  1.00  0.00     0.102 A 
HETATM   21  C   UNL     1       5.199   1.938  -5.276  1.00  0.00     0.102 A 
HETATM   22  O   UNL     1       3.652   0.334  -6.256  1.00  0.00    -0.346 OA
HETATM   23  O   UNL     1       5.930   2.120  -6.419  1.00  0.00    -0.346 OA
HETATM   24  C   UNL     1       5.583   2.678  -4.161  1.00  0.00     0.040 A 
HETATM   25  C   UNL     1       5.698   1.064  -7.360  1.00  0.00     0.202 C 
HETATM   26  C   UNL     1       4.209   0.790  -7.498  1.00  0.00     0.202 C 
HETATM   27  C   UNL     1       4.900   2.527  -2.951  1.00  0.00     0.012 A 
ENDBRANCH  17  18
ENDBRANCH   1  17
TORSDOF 5
