REMARK  10 active torsions:
REMARK  status: ('A' for Active; 'I' for Inactive)
REMARK    1  A    between atoms: C_8  and  N_9 
REMARK    2  A    between atoms: C_10  and  S_11 
REMARK    3  A    between atoms: S_11  and  C_12 
REMARK    4  A    between atoms: C_12  and  C_13 
REMARK       I    between atoms: C_13  and  N_14 
REMARK    5  A    between atoms: N_14  and  C_15 
REMARK    6  A    between atoms: C_15  and  C_16 
REMARK    7  A    between atoms: C_16  and  C_17 
REMARK    8  A    between atoms: C_19  and  O_20 
REMARK    9  A    between atoms: C_22  and  O_23 
REMARK   10  A    between atoms: C_31  and  N_32 
ROOT
HETATM    1  N   UNL     1       1.322  -3.597  -1.425  1.00  0.00    -0.275 N 
HETATM    2  C   UNL     1       1.912  -2.315  -1.260  1.00  0.00     0.177 A 
HETATM    3  N   UNL     1       2.399  -1.833  -0.142  1.00  0.00    -0.204 NA
HETATM    4  C   UNL     1       2.305  -2.680   0.905  1.00  0.00     0.162 A 
HETATM    5  C   UNL     1       1.764  -3.936   0.961  1.00  0.00     0.081 A 
HETATM    6  C   UNL     1       1.209  -4.456  -0.253  1.00  0.00     0.124 A 
HETATM    7  N   UNL     1       2.766  -2.431   2.164  1.00  0.00    -0.260 N 
HETATM    8  H   UNL     1       3.239  -1.600   2.500  1.00  0.00     0.191 HD
HETATM    9  N   UNL     1       2.540  -3.452   3.020  1.00  0.00    -0.177 NA
HETATM   10  C   UNL     1       1.926  -4.388   2.278  1.00  0.00     0.068 A 
HETATM   11  C   UNL     1       1.539  -5.674   2.904  1.00  0.00     0.073 C 
ENDROOT
BRANCH   2  12
HETATM   12  S   UNL     1       2.042  -1.217  -2.649  1.00  0.00    -0.082 SA
BRANCH  12  13
HETATM   13  C   UNL     1       1.775   0.363  -1.792  1.00  0.00     0.185 C 
BRANCH  13  14
HETATM   14  C   UNL     1       1.408   1.483  -2.756  1.00  0.00     0.227 C 
HETATM   15  N   UNL     1       0.564   2.469  -2.305  1.00  0.00    -0.360 N 
HETATM   16  H   UNL     1       0.326   3.141  -3.029  1.00  0.00     0.162 HD
HETATM   17  O   UNL     1       1.856   1.580  -3.897  1.00  0.00    -0.273 OA
BRANCH  15  18
HETATM   18  C   UNL     1      -0.198   2.457  -1.071  1.00  0.00     0.127 C 
BRANCH  18  19
HETATM   19  C   UNL     1      -0.911   3.779  -0.786  1.00  0.00     0.058 C 
BRANCH  19  20
HETATM   20  C   UNL     1      -1.757   3.655   0.458  1.00  0.00    -0.054 A 
HETATM   21  C   UNL     1      -1.180   3.812   1.729  1.00  0.00     0.046 A 
HETATM   22  C   UNL     1      -1.939   3.612   2.889  1.00  0.00     0.102 A 
HETATM   23  C   UNL     1      -3.295   3.248   2.780  1.00  0.00     0.101 A 
HETATM   24  C   UNL     1      -3.873   3.113   1.514  1.00  0.00     0.040 A 
HETATM   25  C   UNL     1      -3.108   3.312   0.362  1.00  0.00     0.010 A 
BRANCH  22  26
HETATM   26  O   UNL     1      -1.446   3.721   4.166  1.00  0.00    -0.353 OA
HETATM   27  C   UNL     1      -0.106   4.162   4.325  1.00  0.00     0.210 C 
ENDBRANCH  22  26
BRANCH  23  28
HETATM   28  O   UNL     1      -3.966   3.053   3.962  1.00  0.00    -0.353 OA
HETATM   29  C   UNL     1      -5.276   2.509   3.893  1.00  0.00     0.210 C 
ENDBRANCH  23  28
ENDBRANCH  19  20
ENDBRANCH  18  19
ENDBRANCH  15  18
ENDBRANCH  13  14
ENDBRANCH  12  13
ENDBRANCH   2  12
BRANCH   1  30
HETATM   30  C   UNL     1       0.879  -4.059  -2.704  1.00  0.00     0.051 A 
HETATM   31  C   UNL     1       1.583  -5.068  -3.405  1.00  0.00    -0.013 A 
HETATM   32  C   UNL     1       2.881  -5.628  -2.877  1.00  0.00     0.052 C 
HETATM   33  C   UNL     1       1.031  -5.560  -4.604  1.00  0.00     0.042 A 
HETATM   34 CL   UNL     1       1.775  -6.848  -5.485  1.00  0.00    -0.084 Cl
HETATM   35  C   UNL     1      -0.162  -5.041  -5.114  1.00  0.00     0.024 A 
HETATM   36  C   UNL     1      -0.836  -4.033  -4.432  1.00  0.00     0.004 A 
HETATM   37  C   UNL     1      -0.326  -3.555  -3.228  1.00  0.00     0.031 A 
ENDBRANCH   1  30
BRANCH   6  38
HETATM   38  N   UNL     1       0.617  -5.635  -0.286  1.00  0.00    -0.384 N 
HETATM   39  H   UNL     1       0.534  -6.213   0.537  1.00  0.00     0.157 HD
HETATM   40  H   UNL     1       0.215  -5.974  -1.151  1.00  0.00     0.157 HD
ENDBRANCH   6  38
TORSDOF 10
