REMARK  6 active torsions:
REMARK  status: ('A' for Active; 'I' for Inactive)
REMARK    1  A    between atoms: N_2  and  C_4 
REMARK    2  A    between atoms: N_2  and  C_14 
REMARK    3  A    between atoms: C_5  and  O_6 
REMARK    4  A    between atoms: C_14  and  C_15 
REMARK    5  A    between atoms: C_15  and  O_16 
REMARK    6  A    between atoms: C_15  and  C_17 
ROOT
HETATM    1  C   UNL     1       4.227   0.697  -1.519  1.00  0.00     0.270 C 
HETATM    2  N   UNL     1       4.245  -0.788  -1.272  1.00  0.00    -0.065 N 
HETATM    3  H   UNL     1       3.292  -1.096  -1.012  1.00  0.00     0.280 HD
ENDROOT
BRANCH   2   4
HETATM    4  C   UNL     1       4.566  -1.638  -2.513  1.00  0.00     0.225 C 
HETATM    5  C   UNL     1       4.179  -3.133  -2.251  1.00  0.00     0.183 C 
HETATM    6  C   UNL     1       3.804  -3.608  -3.616  1.00  0.00    -0.021 A 
HETATM    7  C   UNL     1       3.556  -2.527  -4.467  1.00  0.00    -0.047 A 
HETATM    8  C   UNL     1       3.670  -4.914  -4.061  1.00  0.00     0.010 A 
HETATM    9  C   UNL     1       3.717  -1.226  -3.745  1.00  0.00     0.075 C 
HETATM   10  C   UNL     1       3.158  -2.725  -5.777  1.00  0.00     0.008 A 
HETATM   11  C   UNL     1       3.027  -4.037  -6.236  1.00  0.00     0.001 A 
HETATM   12  C   UNL     1       3.282  -5.123  -5.385  1.00  0.00     0.001 A 
BRANCH   5  13
HETATM   13  O   UNL     1       3.057  -3.170  -1.361  1.00  0.00    -0.389 OA
HETATM   14  H   UNL     1       2.475  -3.896  -1.666  1.00  0.00     0.210 HD
ENDBRANCH   5  13
ENDBRANCH   2   4
BRANCH   2  15
HETATM   15  C   UNL     1       5.150  -1.158  -0.081  1.00  0.00     0.271 C 
BRANCH  15  16
HETATM   16  C   UNL     1       4.538  -0.750   1.283  1.00  0.00     0.177 C 
BRANCH  16  17
HETATM   17  O   UNL     1       4.540   0.671   1.422  1.00  0.00    -0.389 OA
HETATM   18  H   UNL     1       4.461   0.873   2.375  1.00  0.00     0.210 HD
ENDBRANCH  16  17
BRANCH  16  19
HETATM   19  C   UNL     1       5.302  -1.370   2.433  1.00  0.00    -0.028 A 
HETATM   20  C   UNL     1       4.740  -2.433   3.161  1.00  0.00     0.013 A 
HETATM   21  C   UNL     1       5.445  -3.018   4.215  1.00  0.00     0.043 A 
HETATM   22  C   UNL     1       6.709  -2.547   4.543  1.00  0.00     0.116 A 
HETATM   23  F   UNL     1       7.382  -3.111   5.553  1.00  0.00    -0.206 F 
HETATM   24  C   UNL     1       7.285  -1.498   3.838  1.00  0.00     0.043 A 
HETATM   25  C   UNL     1       6.585  -0.909   2.783  1.00  0.00     0.013 A 
ENDBRANCH  16  19
ENDBRANCH  15  16
ENDBRANCH   2  15
TORSDOF 6
