REMARK  6 active torsions:
REMARK  status: ('A' for Active; 'I' for Inactive)
REMARK    1  A    between atoms: C_2  and  O_3 
REMARK    2  A    between atoms: O_3  and  C_4 
REMARK    3  A    between atoms: C_4  and  C_6 
REMARK    4  A    between atoms: C_8  and  N_9 
REMARK    5  A    between atoms: N_9  and  C_10 
REMARK    6  A    between atoms: C_18  and  C_19 
ROOT
HETATM    1  C   UNL     1       5.019   3.187   1.121  1.00  0.00     0.115 A 
HETATM    2  S   UNL     1       4.476   4.769   0.726  1.00  0.00    -0.043 SA
HETATM    3  C   UNL     1       5.390   5.426   2.033  1.00  0.00     0.172 A 
HETATM    4  N   UNL     1       6.024   4.525   2.745  1.00  0.00    -0.220 NA
HETATM    5  C   UNL     1       5.814   3.245   2.247  1.00  0.00     0.118 A 
ENDROOT
BRANCH   3   6
HETATM    6  N   UNL     1       5.407   6.768   2.203  1.00  0.00    -0.335 N 
HETATM    7  H   UNL     1       4.912   7.319   1.513  1.00  0.00     0.168 HD
BRANCH   6   8
HETATM    8  C   UNL     1       6.092   7.528   3.169  1.00  0.00     0.034 A 
HETATM    9  C   UNL     1       6.255   8.906   2.942  1.00  0.00     0.031 A 
HETATM   10  C   UNL     1       6.965   9.714   3.837  1.00  0.00     0.021 A 
HETATM   11  C   UNL     1       7.523   9.149   4.979  1.00  0.00     0.011 A 
HETATM   12 BR   UNL     1       8.488  10.231   6.190  1.00  0.00    -0.051 Br
HETATM   13  C   UNL     1       7.376   7.790   5.229  1.00  0.00     0.021 A 
HETATM   14  C   UNL     1       6.668   6.988   4.326  1.00  0.00     0.031 A 
ENDBRANCH   6   8
ENDBRANCH   3   6
BRANCH   1  15
HETATM   15  C   UNL     1       4.696   2.078   0.263  1.00  0.00     0.302 C 
HETATM   16  O   UNL     1       5.492   1.267  -0.191  1.00  0.00    -0.259 OA
BRANCH  15  17
HETATM   17  O   UNL     1       3.362   2.100  -0.040  1.00  0.00    -0.317 OA
BRANCH  17  18
HETATM   18  C   UNL     1       2.913   1.091  -0.956  1.00  0.00     0.174 C 
HETATM   19  C   UNL     1       3.114   1.560  -2.386  1.00  0.00     0.034 C 
ENDBRANCH  17  18
ENDBRANCH  15  17
ENDBRANCH   1  15
BRANCH   5  20
HETATM   20  C   UNL     1       6.409   2.048   2.941  1.00  0.00     0.129 A 
HETATM   21  N   UNL     1       6.110   0.812   2.607  1.00  0.00    -0.238 NA
HETATM   22  C   UNL     1       6.811  -0.078   3.403  1.00  0.00     0.075 A 
HETATM   23  C   UNL     1       6.765  -1.484   3.311  1.00  0.00     0.033 A 
HETATM   24  C   UNL     1       7.626   0.503   4.376  1.00  0.00     0.035 A 
HETATM   25  C   UNL     1       7.530  -2.264   4.186  1.00  0.00     0.002 A 
HETATM   26  C   UNL     1       8.335  -1.662   5.148  1.00  0.00     0.002 A 
HETATM   27  C   UNL     1       8.396  -0.270   5.260  1.00  0.00     0.021 A 
HETATM   28  S   UNL     1       7.492   2.213   4.265  1.00  0.00    -0.066 SA
ENDBRANCH   5  20
TORSDOF 6
