REMARK  10 active torsions:
REMARK  status: ('A' for Active; 'I' for Inactive)
REMARK    1  A    between atoms: C_2  and  C_3 
REMARK    2  A    between atoms: N_4  and  N_5 
REMARK       I    between atoms: N_5  and  C_6 
REMARK    3  A    between atoms: C_6  and  C_7 
REMARK    4  A    between atoms: N_10  and  C_11 
REMARK    5  A    between atoms: C_15  and  N_16 
REMARK    6  A    between atoms: C_17  and  C_18 
REMARK    7  A    between atoms: C_18  and  N_19 
REMARK    8  A    between atoms: C_29  and  O_30 
REMARK    9  A    between atoms: O_30  and  C_31 
REMARK   10  A    between atoms: C_31  and  C_32 
ROOT
HETATM    1  N   UNL     1       0.458   4.641  -1.490  1.00  0.00    -0.242 N 
HETATM    2  C   UNL     1       0.066   5.783  -0.815  1.00  0.00     0.294 C 
HETATM    3  O   UNL     1       0.910   6.605  -0.451  1.00  0.00    -0.264 OA
HETATM    4  H   UNL     1       1.448   4.535  -1.687  1.00  0.00     0.192 HD
ENDROOT
BRANCH   2   5
HETATM    5  C   UNL     1      -1.360   6.034  -0.572  1.00  0.00     0.176 A 
HETATM    6  N   UNL     1      -2.355   5.105  -0.679  1.00  0.00    -0.124 NA
HETATM    7  N   UNL     1      -3.510   5.684  -0.412  1.00  0.00    -0.058 NA
HETATM    8  N   UNL     1      -3.293   6.981  -0.093  1.00  0.00    -0.191 N 
HETATM    9  C   UNL     1      -1.929   7.248  -0.194  1.00  0.00     0.102 A 
BRANCH   8  10
HETATM   10  C   UNL     1      -4.343   7.839   0.315  1.00  0.00     0.229 A 
HETATM   11  N   UNL     1      -4.072   9.071   0.758  1.00  0.00    -0.081 NA
HETATM   12  O   UNL     1      -5.332   9.595   1.067  1.00  0.00    -0.103 OA
HETATM   13  N   UNL     1      -6.332   8.662   0.839  1.00  0.00    -0.083 NA
HETATM   14  C   UNL     1      -5.722   7.574   0.374  1.00  0.00     0.201 A 
BRANCH  14  15
HETATM   15  N   UNL     1      -6.345   6.437   0.032  1.00  0.00    -0.379 N 
HETATM   16  H   UNL     1      -7.357   6.360   0.085  1.00  0.00     0.158 HD
HETATM   17  H   UNL     1      -5.870   5.616  -0.339  1.00  0.00     0.158 HD
ENDBRANCH  14  15
ENDBRANCH   8  10
BRANCH   9  18
HETATM   18  C   UNL     1      -1.308   8.582  -0.018  1.00  0.00     0.296 C 
BRANCH  18  19
HETATM   19  N   UNL     1      -1.283   9.086   1.406  1.00  0.00    -0.066 N 
HETATM   20  H   UNL     1      -2.269   9.118   1.709  1.00  0.00     0.280 HD
HETATM   21  C   UNL     1      -0.516   8.192   2.353  1.00  0.00     0.235 C 
HETATM   22  C   UNL     1      -0.691   8.707   3.776  1.00  0.00     0.028 C 
HETATM   23  C   UNL     1      -0.260  10.163   3.910  1.00  0.00     0.003 C 
HETATM   24  C   UNL     1      -0.961  11.045   2.883  1.00  0.00     0.028 C 
HETATM   25  C   UNL     1      -0.785  10.513   1.469  1.00  0.00     0.235 C 
ENDBRANCH  18  19
ENDBRANCH   9  18
ENDBRANCH   2   5
BRANCH   1  26
HETATM   26  N   UNL     1      -0.403   3.652  -1.835  1.00  0.00    -0.184 NA
HETATM   27  C   UNL     1       0.051   2.737  -2.630  1.00  0.00     0.150 C 
BRANCH  27  28
HETATM   28  C   UNL     1      -0.800   1.599  -3.031  1.00  0.00    -0.017 A 
HETATM   29  C   UNL     1      -0.454   0.840  -4.148  1.00  0.00     0.016 A 
HETATM   30  C   UNL     1      -1.278  -0.220  -4.539  1.00  0.00     0.037 A 
HETATM   31  C   UNL     1      -2.433  -0.537  -3.814  1.00  0.00     0.069 A 
HETATM   32  C   UNL     1      -2.755   0.210  -2.681  1.00  0.00     0.037 A 
HETATM   33  C   UNL     1      -1.947   1.285  -2.297  1.00  0.00     0.016 A 
BRANCH  31  34
HETATM   34  O   UNL     1      -3.155  -1.582  -4.320  1.00  0.00    -0.347 OA
BRANCH  34  35
HETATM   35  C   UNL     1      -4.361  -1.932  -3.645  1.00  0.00     0.216 C 
BRANCH  35  36
HETATM   36  C   UNL     1      -5.131  -2.896  -4.516  1.00  0.00    -0.012 A 
HETATM   37  C   UNL     1      -5.983  -2.457  -5.545  1.00  0.00     0.044 A 
HETATM   38 CL   UNL     1      -6.215  -0.778  -5.883  1.00  0.00    -0.084 Cl
HETATM   39  C   UNL     1      -6.683  -3.375  -6.333  1.00  0.00     0.048 A 
HETATM   40  C   UNL     1      -6.526  -4.739  -6.107  1.00  0.00     0.035 A 
HETATM   41 CL   UNL     1      -7.391  -5.869  -7.073  1.00  0.00    -0.084 Cl
HETATM   42  C   UNL     1      -5.673  -5.195  -5.106  1.00  0.00     0.024 A 
HETATM   43  C   UNL     1      -4.974  -4.279  -4.317  1.00  0.00     0.013 A 
ENDBRANCH  35  36
ENDBRANCH  34  35
ENDBRANCH  31  34
ENDBRANCH  27  28
ENDBRANCH   1  26
TORSDOF 10
