REMARK  4 active torsions:
REMARK  status: ('A' for Active; 'I' for Inactive)
REMARK    1  A    between atoms: C_5  and  C_6 
REMARK    2  A    between atoms: C_9  and  C_10 
REMARK    3  A    between atoms: C_10  and  N_11 
REMARK       I    between atoms: N_11  and  C_12 
REMARK       I    between atoms: C_12  and  N_13 
REMARK    4  A    between atoms: N_13  and  C_14 
ROOT
HETATM    1  C   UNL     1       9.635  -1.721  -1.781  1.00  0.00     0.213 C 
ENDROOT
BRANCH   1   2
HETATM    2  C   UNL     1       8.449  -0.871  -1.523  1.00  0.00     0.190 A 
HETATM    3  O   UNL     1       7.550  -0.749  -2.539  1.00  0.00    -0.194 OA
HETATM    4  N   UNL     1       6.577   0.146  -2.103  1.00  0.00    -0.106 NA
HETATM    5  C   UNL     1       6.976   0.479  -0.864  1.00  0.00     0.189 A 
HETATM    6  N   UNL     1       8.140  -0.150  -0.466  1.00  0.00    -0.202 NA
BRANCH   5   7
HETATM    7  C   UNL     1       6.273   1.436  -0.014  1.00  0.00     0.014 A 
HETATM    8  C   UNL     1       5.141   2.121  -0.479  1.00  0.00     0.016 A 
HETATM    9  C   UNL     1       4.480   3.047   0.335  1.00  0.00     0.007 A 
HETATM   10  C   UNL     1       4.941   3.308   1.629  1.00  0.00    -0.062 A 
HETATM   11  C   UNL     1       4.229   4.285   2.517  1.00  0.00     0.048 C 
HETATM   12  C   UNL     1       6.065   2.621   2.101  1.00  0.00     0.007 A 
HETATM   13  C   UNL     1       6.726   1.697   1.286  1.00  0.00     0.016 A 
ENDBRANCH   5   7
ENDBRANCH   1   2
BRANCH   1  14
HETATM   14  N   UNL     1       9.430  -3.054  -1.250  1.00  0.00    -0.335 N 
HETATM   15  C   UNL     1       9.334  -4.132  -2.070  1.00  0.00     0.321 C 
HETATM   16  N   UNL     1       9.297  -5.364  -1.497  1.00  0.00    -0.309 N 
HETATM   17  O   UNL     1       9.362  -4.040  -3.295  1.00  0.00    -0.247 OA
HETATM   18  H   UNL     1       9.477  -6.087  -2.184  1.00  0.00     0.170 HD
HETATM   19  H   UNL     1       9.756  -3.226  -0.311  1.00  0.00     0.164 HD
BRANCH  16  20
HETATM   20  C   UNL     1       9.047  -5.802  -0.185  1.00  0.00     0.036 A 
HETATM   21  C   UNL     1       8.390  -5.040   0.785  1.00  0.00     0.029 A 
HETATM   22  C   UNL     1       8.176  -5.561   2.066  1.00  0.00     0.002 A 
HETATM   23  C   UNL     1       8.604  -6.848   2.382  1.00  0.00     0.000 A 
HETATM   24  C   UNL     1       9.230  -7.626   1.412  1.00  0.00     0.002 A 
HETATM   25  C   UNL     1       9.439  -7.109   0.132  1.00  0.00     0.029 A 
ENDBRANCH  16  20
ENDBRANCH   1  14
TORSDOF 4
