REMARK  7 active torsions:
REMARK  status: ('A' for Active; 'I' for Inactive)
REMARK    1  A    between atoms: C_3  and  C_4 
REMARK    2  A    between atoms: C_4  and  S_5 
REMARK    3  A    between atoms: S_5  and  C_6 
REMARK    4  A    between atoms: C_6  and  C_7 
REMARK    5  A    between atoms: C_16  and  C_17 
REMARK       I    between atoms: C_17  and  N_18 
REMARK    6  A    between atoms: N_18  and  C_19 
REMARK    7  A    between atoms: C_19  and  C_20 
ROOT
HETATM    1  C   UNL     1       4.069   6.475  -0.613  1.00  0.00     0.162 C 
HETATM    2  N   UNL     1       3.433   7.815  -0.573  1.00  0.00    -0.277 NA
HETATM    3  C   UNL     1       4.329   8.859  -0.270  1.00  0.00     0.036 A 
HETATM    4  C   UNL     1       5.511   8.640   0.460  1.00  0.00     0.057 A 
HETATM    5  N   UNL     1       5.823   7.345   0.893  1.00  0.00    -0.324 N 
HETATM    6  C   UNL     1       5.082   6.248   0.527  1.00  0.00     0.240 C 
HETATM    7  O   UNL     1       5.318   5.146   1.019  1.00  0.00    -0.271 OA
HETATM    8  C   UNL     1       3.964  10.170  -0.582  1.00  0.00     0.027 A 
HETATM    9  C   UNL     1       4.807  11.235  -0.255  1.00  0.00     0.019 A 
HETATM   10  C   UNL     1       6.017  11.000   0.411  1.00  0.00     0.034 A 
HETATM   11  C   UNL     1       6.355   9.699   0.801  1.00  0.00     0.048 A 
HETATM   12  H   UNL     1       2.653   7.836   0.085  1.00  0.00     0.128 HD
HETATM   13  H   UNL     1       6.574   7.185   1.551  1.00  0.00     0.169 HD
ENDROOT
BRANCH  10  14
HETATM   14  C   UNL     1       6.904  12.164   0.691  1.00  0.00     0.252 C 
HETATM   15  N   UNL     1       8.251  11.891   0.790  1.00  0.00    -0.353 N 
HETATM   16  H   UNL     1       8.588  11.003   0.445  1.00  0.00     0.163 HD
HETATM   17  O   UNL     1       6.433  13.292   0.773  1.00  0.00    -0.268 OA
BRANCH  15  18
HETATM   18  C   UNL     1       9.222  12.963   0.825  1.00  0.00     0.163 C 
BRANCH  18  19
HETATM   19  C   UNL     1      10.486  12.545   1.532  1.00  0.00    -0.019 A 
HETATM   20  C   UNL     1      11.363  11.574   1.020  1.00  0.00     0.042 A 
HETATM   21 CL   UNL     1      11.045  10.758  -0.471  1.00  0.00    -0.084 Cl
HETATM   22  C   UNL     1      12.526  11.225   1.714  1.00  0.00     0.024 A 
HETATM   23  C   UNL     1      12.830  11.842   2.927  1.00  0.00     0.002 A 
HETATM   24  C   UNL     1      11.971  12.804   3.449  1.00  0.00     0.001 A 
HETATM   25  C   UNL     1      10.808  13.151   2.760  1.00  0.00     0.010 A 
ENDBRANCH  18  19
ENDBRANCH  15  18
ENDBRANCH  10  14
BRANCH   1  26
HETATM   26  C   UNL     1       3.021   5.348  -0.612  1.00  0.00     0.103 C 
BRANCH  26  27
HETATM   27  S   UNL     1       1.681   5.505  -1.857  1.00  0.00    -0.162 SA
BRANCH  27  28
HETATM   28  C   UNL     1       2.672   5.450  -3.384  1.00  0.00     0.112 C 
BRANCH  28  29
HETATM   29  C   UNL     1       1.824   5.652  -4.619  1.00  0.00    -0.043 A 
HETATM   30  C   UNL     1       1.566   6.933  -5.156  1.00  0.00    -0.055 A 
HETATM   31  C   UNL     1       2.128   8.188  -4.542  1.00  0.00     0.049 C 
HETATM   32  C   UNL     1       0.802   7.043  -6.330  1.00  0.00     0.007 A 
HETATM   33  C   UNL     1       0.274   5.912  -6.951  1.00  0.00     0.001 A 
HETATM   34  C   UNL     1       0.502   4.652  -6.408  1.00  0.00     0.001 A 
HETATM   35  C   UNL     1       1.270   4.523  -5.251  1.00  0.00     0.008 A 
ENDBRANCH  28  29
ENDBRANCH  27  28
ENDBRANCH  26  27
ENDBRANCH   1  26
TORSDOF 7
