REMARK  9 active torsions:
REMARK  status: ('A' for Active; 'I' for Inactive)
REMARK    1  A    between atoms: O_2  and  C_3 
REMARK    2  A    between atoms: C_6  and  N_7 
REMARK    3  A    between atoms: N_10  and  C_11 
REMARK    4  A    between atoms: C_11  and  C_12 
REMARK    5  A    between atoms: C_14  and  O_15 
REMARK    6  A    between atoms: C_17  and  O_18 
REMARK    7  A    between atoms: C_22  and  C_23 
REMARK    8  A    between atoms: C_23  and  C_24 
REMARK       I    between atoms: C_24  and  N_25 
REMARK    9  A    between atoms: N_25  and  C_26 
ROOT
HETATM    1  N   UNL     1       5.216   5.632   0.201  1.00  0.00    -0.232 N 
HETATM    2  C   UNL     1       4.694   6.773   0.770  1.00  0.00     0.333 C 
HETATM    3  O   UNL     1       3.670   6.901   1.427  1.00  0.00    -0.246 OA
HETATM    4  N   UNL     1       5.459   7.881   0.379  1.00  0.00    -0.315 N 
HETATM    5  C   UNL     1       6.542   7.482  -0.500  1.00  0.00     0.191 C 
HETATM    6  C   UNL     1       6.231   5.995  -0.651  1.00  0.00     0.256 C 
HETATM    7  O   UNL     1       6.878   5.303  -1.435  1.00  0.00    -0.270 OA
ENDROOT
BRANCH   4   8
HETATM    8  C   UNL     1       4.714   9.113   0.174  1.00  0.00     0.167 C 
BRANCH   8   9
HETATM    9  C   UNL     1       5.511  10.382   0.063  1.00  0.00    -0.037 A 
HETATM   10  C   UNL     1       6.084  10.961   1.207  1.00  0.00     0.048 A 
HETATM   11  C   UNL     1       6.662  12.236   1.150  1.00  0.00     0.102 A 
HETATM   12  C   UNL     1       6.683  12.928  -0.073  1.00  0.00     0.101 A 
HETATM   13  C   UNL     1       6.174  12.326  -1.227  1.00  0.00     0.040 A 
HETATM   14  C   UNL     1       5.583  11.065  -1.157  1.00  0.00     0.012 A 
BRANCH  11  15
HETATM   15  O   UNL     1       7.198  12.895   2.227  1.00  0.00    -0.353 OA
HETATM   16  C   UNL     1       6.932  12.361   3.516  1.00  0.00     0.210 C 
ENDBRANCH  11  15
BRANCH  12  17
HETATM   17  O   UNL     1       7.238  14.185  -0.083  1.00  0.00    -0.353 OA
HETATM   18  C   UNL     1       6.529  15.133  -0.876  1.00  0.00     0.210 C 
ENDBRANCH  12  17
ENDBRANCH   8   9
ENDBRANCH   4   8
BRANCH   5  19
HETATM   19  C   UNL     1       7.920   7.607   0.148  1.00  0.00     0.138 C 
BRANCH  19  20
HETATM   20  C   UNL     1       9.056   7.776  -0.853  1.00  0.00     0.224 C 
HETATM   21  N   UNL     1       9.105   6.821  -1.850  1.00  0.00    -0.327 N 
HETATM   22  H   UNL     1       8.364   6.123  -1.891  1.00  0.00     0.169 HD
HETATM   23  O   UNL     1       9.861   8.692  -0.699  1.00  0.00    -0.273 OA
BRANCH  21  24
HETATM   24  C   UNL     1      10.070   6.701  -2.875  1.00  0.00     0.034 A 
HETATM   25  C   UNL     1      11.281   7.394  -2.896  1.00  0.00     0.029 A 
HETATM   26  C   UNL     1      12.187   7.204  -3.945  1.00  0.00     0.002 A 
HETATM   27  C   UNL     1      11.883   6.332  -4.989  1.00  0.00     0.000 A 
HETATM   28  C   UNL     1      10.678   5.637  -4.978  1.00  0.00     0.002 A 
HETATM   29  C   UNL     1       9.782   5.811  -3.919  1.00  0.00     0.029 A 
ENDBRANCH  21  24
ENDBRANCH  19  20
ENDBRANCH   5  19
BRANCH   1  30
HETATM   30  C   UNL     1       4.661   4.316   0.329  1.00  0.00     0.047 A 
HETATM   31  C   UNL     1       3.525   4.066   1.118  1.00  0.00     0.033 A 
HETATM   32  C   UNL     1       2.934   2.794   1.199  1.00  0.00     0.039 A 
HETATM   33  C   UNL     1       3.473   1.725   0.497  1.00  0.00     0.068 A 
HETATM   34  C   UNL     1       4.630   1.934  -0.247  1.00  0.00     0.039 A 
HETATM   35  C   UNL     1       5.214   3.208  -0.330  1.00  0.00     0.033 A 
BRANCH  33  36
HETATM   36  O   UNL     1       2.981   0.452   0.472  1.00  0.00    -0.356 OA
HETATM   37  C   UNL     1       1.656   0.277   0.963  1.00  0.00     0.210 C 
ENDBRANCH  33  36
ENDBRANCH   1  30
TORSDOF 9
