REMARK  6 active torsions:
REMARK  status: ('A' for Active; 'I' for Inactive)
REMARK    1  A    between atoms: O_2  and  C_3 
REMARK    2  A    between atoms: C_4  and  O_5 
REMARK    3  A    between atoms: O_5  and  C_6 
REMARK    4  A    between atoms: C_11  and  C_12 
REMARK    5  A    between atoms: C_12  and  N_13 
REMARK       I    between atoms: N_13  and  C_14 
REMARK    6  A    between atoms: C_14  and  C_15 
ROOT
HETATM    1  N   UNL     1       7.414   0.888   1.065  1.00  0.00    -0.353 N 
HETATM    2  C   UNL     1       8.698   0.777   1.552  1.00  0.00     0.252 C 
HETATM    3  O   UNL     1       9.352   1.740   1.936  1.00  0.00    -0.268 OA
HETATM    4  H   UNL     1       7.005   0.116   0.557  1.00  0.00     0.163 HD
ENDROOT
BRANCH   1   5
HETATM    5  C   UNL     1       6.799   2.185   0.912  1.00  0.00     0.161 C 
BRANCH   5   6
HETATM    6  C   UNL     1       5.324   2.039   0.648  1.00  0.00    -0.038 A 
HETATM    7  C   UNL     1       4.843   1.940  -0.664  1.00  0.00     0.012 A 
HETATM    8  C   UNL     1       3.482   1.756  -0.902  1.00  0.00     0.040 A 
HETATM    9  C   UNL     1       2.592   1.680   0.171  1.00  0.00     0.108 A 
HETATM   10  C   UNL     1       3.056   1.746   1.493  1.00  0.00     0.102 A 
HETATM   11  C   UNL     1       4.422   1.932   1.722  1.00  0.00     0.048 A 
BRANCH   9  12
HETATM   12  O   UNL     1       1.257   1.448  -0.048  1.00  0.00    -0.287 OA
BRANCH  12  13
HETATM   13  C   UNL     1       0.654   2.544  -0.717  1.00  0.00     0.505 C 
HETATM   14  F   UNL     1       0.819   2.380  -2.056  1.00  0.00    -0.184 F 
HETATM   15  F   UNL     1      -0.682   2.480  -0.487  1.00  0.00    -0.184 F 
ENDBRANCH  12  13
ENDBRANCH   9  12
BRANCH  10  16
HETATM   16  O   UNL     1       2.103   1.652   2.473  1.00  0.00    -0.353 OA
HETATM   17  C   UNL     1       2.564   1.423   3.800  1.00  0.00     0.210 C 
ENDBRANCH  10  16
ENDBRANCH   5   6
ENDBRANCH   1   5
BRANCH   2  18
HETATM   18  C   UNL     1       9.297  -0.589   1.558  1.00  0.00     0.034 A 
HETATM   19  C   UNL     1       8.498  -1.743   1.577  1.00  0.00     0.051 A 
HETATM   20  C   UNL     1       9.132  -2.994   1.573  1.00  0.00     0.085 A 
HETATM   21  C   UNL     1      10.521  -3.062   1.567  1.00  0.00     0.062 A 
HETATM   22  N   UNL     1       8.580  -4.251   1.579  1.00  0.00    -0.242 NA
HETATM   23  N   UNL     1      10.792  -4.407   1.569  1.00  0.00    -0.349 N 
HETATM   24  C   UNL     1      11.344  -1.936   1.567  1.00  0.00     0.033 A 
HETATM   25  H   UNL     1      11.710  -4.828   1.569  1.00  0.00     0.167 HD
HETATM   26  C   UNL     1       9.601  -5.077   1.575  1.00  0.00     0.208 A 
HETATM   27  C   UNL     1      10.698  -0.693   1.565  1.00  0.00     0.019 A 
ENDBRANCH   2  18
TORSDOF 6
