REMARK  8 active torsions:
REMARK  status: ('A' for Active; 'I' for Inactive)
REMARK    1  A    between atoms: O_2  and  C_3 
REMARK    2  A    between atoms: C_5  and  C_6 
REMARK    3  A    between atoms: C_6  and  N_7 
REMARK    4  A    between atoms: C_16  and  C_17 
REMARK    5  A    between atoms: C_17  and  N_18 
REMARK    6  A    between atoms: C_22  and  O_23 
REMARK    7  A    between atoms: C_22  and  C_24 
REMARK    8  A    between atoms: C_34  and  O_35 
ROOT
HETATM    1  N   UNL     1       5.837   2.385   3.134  1.00  0.00    -0.061 N 
HETATM    2  H   UNL     1       6.565   3.044   2.838  1.00  0.00     0.280 HD
HETATM    3  C   UNL     1       5.231   1.876   1.847  1.00  0.00     0.276 C 
HETATM    4  C   UNL     1       4.286   0.722   1.999  1.00  0.00     0.002 A 
HETATM    5  C   UNL     1       3.099   0.887   2.710  1.00  0.00     0.076 A 
HETATM    6  O   UNL     1       2.760   2.106   3.226  1.00  0.00    -0.349 OA
HETATM    7  C   UNL     1       3.577   2.455   4.352  1.00  0.00     0.203 C 
HETATM    8  C   UNL     1       4.842   3.224   3.935  1.00  0.00     0.262 C 
HETATM    9  C   UNL     1       4.565  -0.533   1.426  1.00  0.00     0.020 A 
HETATM   10  C   UNL     1       3.681  -1.617   1.577  1.00  0.00    -0.032 A 
HETATM   11  C   UNL     1       2.495  -1.415   2.297  1.00  0.00     0.011 A 
HETATM   12  C   UNL     1       2.196  -0.163   2.843  1.00  0.00     0.038 A 
ENDROOT
BRANCH  10  13
HETATM   13  C   UNL     1       4.011  -2.967   0.982  1.00  0.00     0.273 C 
BRANCH  13  14
HETATM   14  N   UNL     1       3.446  -3.255  -0.398  1.00  0.00    -0.067 N 
HETATM   15  H   UNL     1       3.867  -4.157  -0.663  1.00  0.00     0.280 HD
HETATM   16  C   UNL     1       1.956  -3.487  -0.395  1.00  0.00     0.238 C 
HETATM   17  C   UNL     1       1.493  -3.913  -1.782  1.00  0.00     0.071 C 
HETATM   18  C   UNL     1       1.882  -2.900  -2.880  1.00  0.00     0.089 C 
HETATM   19  C   UNL     1       3.416  -2.738  -2.813  1.00  0.00     0.071 C 
HETATM   20  C   UNL     1       3.876  -2.261  -1.447  1.00  0.00     0.238 C 
BRANCH  18  21
HETATM   21  O   UNL     1       1.605  -3.540  -4.127  1.00  0.00    -0.385 OA
HETATM   22  H   UNL     1       0.842  -3.114  -4.563  1.00  0.00     0.211 HD
ENDBRANCH  18  21
BRANCH  18  23
HETATM   23  C   UNL     1       1.141  -1.568  -2.853  1.00  0.00    -0.006 A 
HETATM   24  C   UNL     1       0.010  -1.337  -2.071  1.00  0.00     0.126 A 
HETATM   25  N   UNL     1      -0.632  -0.153  -1.974  1.00  0.00    -0.272 NA
HETATM   26  C   UNL     1      -0.193   0.854  -2.753  1.00  0.00     0.116 A 
HETATM   27  C   UNL     1       0.879   0.728  -3.614  1.00  0.00     0.020 A 
HETATM   28  C   UNL     1       1.547  -0.495  -3.663  1.00  0.00     0.013 A 
ENDBRANCH  18  23
ENDBRANCH  13  14
ENDBRANCH  10  13
BRANCH   1  29
HETATM   29  C   UNL     1       6.566   1.369   4.008  1.00  0.00     0.276 C 
BRANCH  29  30
HETATM   30  C   UNL     1       7.346   0.288   3.301  1.00  0.00     0.004 A 
HETATM   31  C   UNL     1       8.279   0.611   2.302  1.00  0.00     0.048 A 
HETATM   32  C   UNL     1       8.975  -0.385   1.611  1.00  0.00     0.069 A 
HETATM   33  C   UNL     1       8.785  -1.718   1.959  1.00  0.00     0.039 A 
HETATM   34  C   UNL     1       7.897  -2.057   2.986  1.00  0.00     0.040 A 
HETATM   35  C   UNL     1       7.177  -1.066   3.657  1.00  0.00     0.076 A 
BRANCH  32  36
HETATM   36  O   UNL     1       9.782   0.081   0.613  1.00  0.00    -0.356 OA
HETATM   37  C   UNL     1      10.566  -0.879  -0.090  1.00  0.00     0.210 C 
ENDBRANCH  32  36
BRANCH  35  38
HETATM   38  O   UNL     1       6.255  -1.318   4.638  1.00  0.00    -0.355 OA
HETATM   39  C   UNL     1       6.279  -2.608   5.247  1.00  0.00     0.210 C 
ENDBRANCH  35  38
ENDBRANCH  29  30
ENDBRANCH   1  29
TORSDOF 8
