REMARK  7 active torsions:
REMARK  status: ('A' for Active; 'I' for Inactive)
REMARK    1  A    between atoms: S_2  and  C_3 
REMARK    2  A    between atoms: C_3  and  C_4 
REMARK    3  A    between atoms: C_4  and  C_5 
REMARK    4  A    between atoms: C_5  and  N_6 
REMARK    5  A    between atoms: C_5  and  C_26 
REMARK       I    between atoms: N_6  and  C_7 
REMARK    6  A    between atoms: C_7  and  C_8 
REMARK    7  A    between atoms: C_8  and  N_9 
ROOT
HETATM    1  N   UNL     1       4.559  -0.658   4.221  1.00  0.00    -0.348 N 
HETATM    2  C   UNL     1       3.218  -0.473   4.461  1.00  0.00     0.236 C 
HETATM    3  O   UNL     1       2.567  -1.256   5.155  1.00  0.00    -0.272 OA
HETATM    4  H   UNL     1       4.981  -0.184   3.436  1.00  0.00     0.163 HD
ENDROOT
BRANCH   2   5
HETATM    5  C   UNL     1       2.587   0.805   3.906  1.00  0.00     0.239 C 
BRANCH   5   6
HETATM    6  N   UNL     1       3.403   1.539   2.961  1.00  0.00    -0.259 N 
HETATM    7  C   UNL     1       3.221   1.532   1.616  1.00  0.00     0.326 A 
HETATM    8  O   UNL     1       2.430   0.857   0.981  1.00  0.00    -0.247 OA
HETATM    9  N   UNL     1       4.094   2.427   1.050  1.00  0.00    -0.320 N 
HETATM   10  C   UNL     1       4.932   3.096   2.025  1.00  0.00     0.144 A 
HETATM   11  H   UNL     1       4.157   2.546   0.048  1.00  0.00     0.165 HD
HETATM   12  C   UNL     1       6.406   2.797   1.799  1.00  0.00    -0.014 A 
HETATM   13  C   UNL     1       4.602   4.596   2.051  1.00  0.00     0.047 C 
HETATM   14  C   UNL     1       4.384   2.427   3.311  1.00  0.00     0.261 A 
HETATM   15  C   UNL     1       7.381   3.800   1.987  1.00  0.00    -0.049 A 
HETATM   16  C   UNL     1       6.832   1.510   1.412  1.00  0.00     0.011 A 
HETATM   17  C   UNL     1       8.736   3.503   1.767  1.00  0.00     0.007 A 
HETATM   18  C   UNL     1       7.015   5.221   2.346  1.00  0.00     0.039 C 
HETATM   19  C   UNL     1       9.134   2.226   1.379  1.00  0.00     0.001 A 
HETATM   20  C   UNL     1       8.183   1.229   1.202  1.00  0.00     0.001 A 
HETATM   21  C   UNL     1       5.603   5.371   2.900  1.00  0.00     0.008 C 
HETATM   22  O   UNL     1       4.759   2.644   4.455  1.00  0.00    -0.270 OA
ENDBRANCH   5   6
ENDBRANCH   2   5
BRANCH   1  23
HETATM   23  C   UNL     1       5.299  -1.764   4.811  1.00  0.00     0.155 C 
BRANCH  23  24
HETATM   24  C   UNL     1       6.802  -1.456   4.888  1.00  0.00     0.043 C 
BRANCH  24  25
HETATM   25  C   UNL     1       7.163  -0.258   5.770  1.00  0.00     0.076 C 
BRANCH  25  26
HETATM   26  S   UNL     1       6.695  -0.425   7.526  1.00  0.00    -0.173 SA
HETATM   27  C   UNL     1       7.859  -1.713   8.035  1.00  0.00     0.089 C 
ENDBRANCH  25  26
ENDBRANCH  24  25
ENDBRANCH  23  24
BRANCH  23  28
HETATM   28  C   UNL     1       5.030  -2.989   3.985  1.00  0.00     0.128 A 
HETATM   29  N   UNL     1       5.801  -3.545   3.070  1.00  0.00    -0.231 NA
HETATM   30  C   UNL     1       5.105  -4.645   2.624  1.00  0.00     0.085 A 
HETATM   31  C   UNL     1       3.877  -4.753   3.266  1.00  0.00     0.062 A 
HETATM   32  C   UNL     1       5.460  -5.603   1.663  1.00  0.00     0.034 A 
HETATM   33  N   UNL     1       3.848  -3.683   4.119  1.00  0.00    -0.341 N 
HETATM   34  C   UNL     1       2.959  -5.772   3.005  1.00  0.00     0.032 A 
HETATM   35  H   UNL     1       3.083  -3.404   4.722  1.00  0.00     0.167 HD
HETATM   36  C   UNL     1       3.331  -6.719   2.044  1.00  0.00     0.002 A 
HETATM   37  C   UNL     1       4.559  -6.640   1.383  1.00  0.00     0.002 A 
ENDBRANCH  23  28
ENDBRANCH   1  23
TORSDOF 7
