REMARK  5 active torsions:
REMARK  status: ('A' for Active; 'I' for Inactive)
REMARK    1  A    between atoms: C_6  and  O_7 
REMARK    2  A    between atoms: O_7  and  C_8 
REMARK    3  A    between atoms: C_8  and  C_9 
REMARK       I    between atoms: C_9  and  N_10 
REMARK    4  A    between atoms: N_10  and  N_11 
REMARK    5  A    between atoms: C_12  and  C_13 
ROOT
HETATM    1  C   UNL     1       9.115  -1.246  -0.346  1.00  0.00     0.261 C 
HETATM    2  N   UNL     1       9.443   0.100  -0.347  1.00  0.00    -0.246 N 
HETATM    3  O   UNL     1       9.928  -2.170  -0.396  1.00  0.00    -0.269 OA
HETATM    4  H   UNL     1       8.714   0.807  -0.344  1.00  0.00     0.192 HD
ENDROOT
BRANCH   2   5
HETATM    5  N   UNL     1      10.760   0.435  -0.303  1.00  0.00    -0.184 NA
HETATM    6  C   UNL     1      11.075   1.686  -0.264  1.00  0.00     0.153 C 
BRANCH   6   7
HETATM    7  C   UNL     1      12.483   2.040  -0.168  1.00  0.00     0.018 A 
HETATM    8  C   UNL     1      13.619   1.158  -0.111  1.00  0.00     0.004 A 
HETATM    9  C   UNL     1      14.761   1.949   0.000  1.00  0.00     0.043 A 
HETATM   10  C   UNL     1      13.785  -0.245  -0.136  1.00  0.00     0.014 A 
HETATM   11  C   UNL     1      16.053   1.414   0.090  1.00  0.00     0.030 A 
HETATM   12  N   UNL     1      14.345   3.257   0.000  1.00  0.00    -0.358 N 
HETATM   13  C   UNL     1      16.185   0.022   0.064  1.00  0.00     0.002 A 
HETATM   14  C   UNL     1      15.067  -0.799  -0.048  1.00  0.00     0.001 A 
HETATM   15  H   UNL     1      14.972   4.047   0.070  1.00  0.00     0.166 HD
HETATM   16  C   UNL     1      12.976   3.337  -0.095  1.00  0.00     0.018 A 
HETATM   17  C   UNL     1      12.286   4.653  -0.103  1.00  0.00     0.069 C 
ENDBRANCH   6   7
ENDBRANCH   2   5
BRANCH   1  18
HETATM   18  C   UNL     1       7.630  -1.535  -0.170  1.00  0.00     0.280 C 
BRANCH  18  19
HETATM   19  O   UNL     1       6.767  -0.458  -0.545  1.00  0.00    -0.340 OA
BRANCH  19  20
HETATM   20  C   UNL     1       5.617  -0.963  -1.111  1.00  0.00     0.092 A 
HETATM   21  C   UNL     1       5.456  -0.897  -2.501  1.00  0.00     0.045 A 
HETATM   22  C   UNL     1       4.338  -1.474  -3.110  1.00  0.00     0.028 A 
HETATM   23 BR   UNL     1       6.755  -0.067  -3.608  1.00  0.00    -0.048 Br
HETATM   24  C   UNL     1       3.359  -2.104  -2.333  1.00  0.00    -0.060 A 
HETATM   25  C   UNL     1       2.200  -2.800  -2.984  1.00  0.00     0.048 C 
HETATM   26  C   UNL     1       3.508  -2.134  -0.940  1.00  0.00     0.016 A 
HETATM   27  C   UNL     1       4.615  -1.539  -0.311  1.00  0.00    -0.027 A 
HETATM   28  C   UNL     1       4.712  -1.595   1.187  1.00  0.00     0.051 C 
ENDBRANCH  19  20
ENDBRANCH  18  19
ENDBRANCH   1  18
TORSDOF 5
