REMARK  2 active torsions:
REMARK  status: ('A' for Active; 'I' for Inactive)
REMARK    1  A    between atoms: C_6  and  N_7 
REMARK    2  A    between atoms: N_7  and  C_8 
ROOT
HETATM    1  C   UNL     1       1.278   0.249  -0.026  1.00  0.00     0.093 C 
HETATM    2  C   UNL     1       2.774   0.177  -0.036  1.00  0.00     0.125 A 
HETATM    3  N   UNL     1       3.443   1.315   0.166  1.00  0.00    -0.226 NA
HETATM    4  C   UNL     1       4.773   1.147   0.163  1.00  0.00     0.114 A 
HETATM    5  C   UNL     1       5.460  -0.054  -0.016  1.00  0.00     0.053 A 
HETATM    6  C   UNL     1       4.663  -1.201  -0.229  1.00  0.00     0.143 A 
HETATM    7  N   UNL     1       3.317  -1.040  -0.226  1.00  0.00    -0.215 NA
HETATM    8  S   UNL     1       5.813   2.500   0.390  1.00  0.00    -0.073 SA
HETATM    9  C   UNL     1       7.154   1.515   0.255  1.00  0.00    -0.008 A 
HETATM   10  C   UNL     1       6.862   0.193   0.054  1.00  0.00    -0.028 A 
HETATM   11  C   UNL     1       8.111  -0.605  -0.056  1.00  0.00     0.041 C 
HETATM   12  C   UNL     1       9.200   0.393   0.448  1.00  0.00     0.010 C 
HETATM   13  C   UNL     1       8.601   1.824   0.307  1.00  0.00     0.047 C 
ENDROOT
BRANCH   6  14
HETATM   14  N   UNL     1       5.241  -2.466  -0.413  1.00  0.00    -0.340 N 
HETATM   15  H   UNL     1       6.244  -2.466  -0.309  1.00  0.00     0.167 HD
BRANCH  14  16
HETATM   16  C   UNL     1       4.709  -3.709  -0.803  1.00  0.00     0.036 A 
HETATM   17  C   UNL     1       5.530  -4.847  -0.692  1.00  0.00     0.069 A 
HETATM   18  C   UNL     1       5.019  -6.078  -1.051  1.00  0.00     0.107 A 
HETATM   19  C   UNL     1       3.732  -6.223  -1.506  1.00  0.00     0.105 A 
HETATM   20  O   UNL     1       5.689  -7.261  -1.005  1.00  0.00    -0.323 OA
HETATM   21  O   UNL     1       3.428  -7.512  -1.807  1.00  0.00    -0.323 OA
HETATM   22  C   UNL     1       2.888  -5.144  -1.620  1.00  0.00     0.042 A 
HETATM   23  C   UNL     1       4.673  -8.166  -1.487  1.00  0.00     0.352 A 
HETATM   24  C   UNL     1       3.385  -3.883  -1.259  1.00  0.00     0.032 A 
ENDBRANCH  14  16
ENDBRANCH   6  14
TORSDOF 2
