REMARK  6 active torsions:
REMARK  status: ('A' for Active; 'I' for Inactive)
REMARK    1  A    between atoms: C_3  and  N_4 
REMARK       I    between atoms: N_4  and  C_5 
REMARK    2  A    between atoms: C_5  and  C_6 
REMARK    3  A    between atoms: C_14  and  N_15 
REMARK       I    between atoms: N_15  and  C_16 
REMARK       I    between atoms: C_16  and  N_17 
REMARK    4  A    between atoms: N_17  and  C_18 
REMARK    5  A    between atoms: C_18  and  C_19 
REMARK    6  A    between atoms: C_19  and  N_20 
ROOT
HETATM    1  N   UNL     1       5.336  -4.251   2.114  1.00  0.00    -0.309 N 
HETATM    2  C   UNL     1       4.522  -3.391   1.456  1.00  0.00     0.321 C 
HETATM    3  N   UNL     1       3.450  -3.903   0.803  1.00  0.00    -0.337 N 
HETATM    4  O   UNL     1       4.706  -2.176   1.532  1.00  0.00    -0.247 OA
HETATM    5  H   UNL     1       5.927  -3.786   2.795  1.00  0.00     0.170 HD
HETATM    6  H   UNL     1       3.247  -4.880   0.986  1.00  0.00     0.164 HD
ENDROOT
BRANCH   1   7
HETATM    7  C   UNL     1       5.674  -5.595   1.855  1.00  0.00     0.036 A 
HETATM    8  C   UNL     1       5.375  -6.264   0.672  1.00  0.00     0.032 A 
HETATM    9  C   UNL     1       5.827  -7.574   0.463  1.00  0.00     0.032 A 
HETATM   10  C   UNL     1       6.595  -8.240   1.424  1.00  0.00     0.041 A 
HETATM   11  C   UNL     1       6.901  -7.572   2.626  1.00  0.00    -0.033 A 
HETATM   12  C   UNL     1       7.736  -8.204   3.709  1.00  0.00     0.050 C 
HETATM   13  C   UNL     1       6.444  -6.253   2.819  1.00  0.00     0.038 A 
BRANCH  10  14
HETATM   14  N   UNL     1       7.098  -9.543   1.225  1.00  0.00    -0.321 N 
HETATM   15  C   UNL     1       7.007 -10.352   0.105  1.00  0.00     0.279 C 
HETATM   16  O   UNL     1       6.422 -10.066  -0.934  1.00  0.00    -0.265 OA
HETATM   17  H   UNL     1       7.642  -9.955   1.975  1.00  0.00     0.169 HD
BRANCH  15  18
HETATM   18  C   UNL     1       7.710 -11.612   0.279  1.00  0.00     0.142 A 
HETATM   19  O   UNL     1       8.298 -11.890   1.489  1.00  0.00    -0.317 OA
HETATM   20  C   UNL     1       8.880 -13.112   1.379  1.00  0.00     0.143 A 
HETATM   21  C   UNL     1       8.687 -13.627   0.119  1.00  0.00     0.027 A 
HETATM   22  C   UNL     1       7.931 -12.663  -0.590  1.00  0.00     0.045 A 
ENDBRANCH  15  18
ENDBRANCH  10  14
ENDBRANCH   1   7
BRANCH   3  23
HETATM   23  C   UNL     1       2.595  -3.192  -0.154  1.00  0.00     0.108 C 
HETATM   24  C   UNL     1       3.352  -2.942  -1.455  1.00  0.00     0.034 C 
BRANCH  23  25
HETATM   25  C   UNL     1       1.839  -1.945   0.401  1.00  0.00     0.259 C 
BRANCH  25  26
HETATM   26  N   UNL     1       2.715  -0.780   0.818  1.00  0.00    -0.069 N 
HETATM   27  H   UNL     1       3.622  -1.206   1.108  1.00  0.00     0.280 HD
HETATM   28  C   UNL     1       3.031   0.203  -0.278  1.00  0.00     0.239 C 
HETATM   29  C   UNL     1       4.105   1.178   0.210  1.00  0.00     0.007 C 
HETATM   30  C   UNL     1       3.630   1.912   1.468  1.00  0.00     0.007 C 
HETATM   31  C   UNL     1       4.473   2.170  -0.891  1.00  0.00     0.011 C 
HETATM   32  C   UNL     1       3.216   0.925   2.554  1.00  0.00     0.028 C 
HETATM   33  C   UNL     1       2.193  -0.086   2.053  1.00  0.00     0.235 C 
ENDBRANCH  25  26
ENDBRANCH  23  25
ENDBRANCH   3  23
TORSDOF 6
