REMARK  3 active torsions:
REMARK  status: ('A' for Active; 'I' for Inactive)
REMARK    1  A    between atoms: C_2  and  O_3 
REMARK    2  A    between atoms: O_3  and  C_4 
REMARK    3  A    between atoms: C_5  and  N_6 
REMARK       I    between atoms: N_6  and  C_7 
REMARK       I    between atoms: C_7  and  N_8 
ROOT
HETATM    1  N   UNL     1       4.510  -2.790   0.668  1.00  0.00    -0.306 N 
HETATM    2  C   UNL     1       5.580  -3.649   0.736  1.00  0.00     0.323 C 
HETATM    3  N   UNL     1       5.262  -5.002   0.645  1.00  0.00    -0.328 N 
HETATM    4  C   UNL     1       6.303  -5.912   1.145  1.00  0.00     0.185 C 
HETATM    5  C   UNL     1       5.997  -7.318   0.783  1.00  0.00     0.035 A 
HETATM    6  C   UNL     1       4.914  -7.780   0.069  1.00  0.00    -0.020 A 
HETATM    7  C   UNL     1       3.894  -6.835  -0.445  1.00  0.00     0.061 C 
HETATM    8  C   UNL     1       3.905  -5.543   0.400  1.00  0.00     0.132 C 
HETATM    9  N   UNL     1       6.771  -8.392   1.124  1.00  0.00    -0.357 N 
HETATM   10  H   UNL     1       7.634  -8.354   1.650  1.00  0.00     0.166 HD
HETATM   11  C   UNL     1       6.204  -9.550   0.637  1.00  0.00     0.043 A 
HETATM   12  C   UNL     1       5.034  -9.191  -0.039  1.00  0.00    -0.001 A 
HETATM   13  C   UNL     1       6.639 -10.877   0.742  1.00  0.00     0.030 A 
HETATM   14  C   UNL     1       5.860 -11.864   0.133  1.00  0.00     0.002 A 
HETATM   15  C   UNL     1       4.692 -11.536  -0.552  1.00  0.00     0.001 A 
HETATM   16  C   UNL     1       4.268 -10.205  -0.646  1.00  0.00     0.014 A 
HETATM   17  O   UNL     1       6.741  -3.279   0.906  1.00  0.00    -0.247 OA
HETATM   18  H   UNL     1       3.628  -3.138   1.017  1.00  0.00     0.171 HD
ENDROOT
BRANCH   1  19
HETATM   19  C   UNL     1       4.575  -1.375   0.627  1.00  0.00     0.072 A 
HETATM   20  C   UNL     1       3.434  -0.658   1.054  1.00  0.00     0.096 A 
HETATM   21  C   UNL     1       3.459   0.740   1.052  1.00  0.00     0.042 A 
HETATM   22  C   UNL     1       4.594   1.419   0.603  1.00  0.00     0.045 A 
HETATM   23  C   UNL     1       5.697   0.702   0.160  1.00  0.00     0.118 A 
HETATM   24  C   UNL     1       5.700  -0.687   0.167  1.00  0.00     0.074 A 
HETATM   25  F   UNL     1       6.774   1.364  -0.285  1.00  0.00    -0.206 F 
BRANCH  20  26
HETATM   26  O   UNL     1       2.378  -1.436   1.465  1.00  0.00    -0.344 OA
BRANCH  26  27
HETATM   27  C   UNL     1       1.183  -0.810   1.946  1.00  0.00     0.121 C 
HETATM   28  C   UNL     1       1.313  -0.524   3.440  1.00  0.00     0.040 C 
HETATM   29  C   UNL     1       0.043  -1.795   1.700  1.00  0.00     0.040 C 
ENDBRANCH  26  27
ENDBRANCH  20  26
ENDBRANCH   1  19
TORSDOF 3
