REMARK  9 active torsions:
REMARK  status: ('A' for Active; 'I' for Inactive)
REMARK    1  A    between atoms: C_4  and  S_5 
REMARK    2  A    between atoms: S_5  and  C_6 
REMARK    3  A    between atoms: C_6  and  C_7 
REMARK       I    between atoms: C_7  and  N_8 
REMARK    4  A    between atoms: N_8  and  C_9 
REMARK    5  A    between atoms: C_10  and  O_11 
REMARK    6  A    between atoms: C_16  and  O_17 
REMARK    7  A    between atoms: C_24  and  C_25 
REMARK    8  A    between atoms: C_31  and  C_32 
REMARK       I    between atoms: C_32  and  N_33 
REMARK    9  A    between atoms: N_33  and  C_34 
ROOT
HETATM    1  C   UNL     1       1.057   0.033   0.936  1.00  0.00     0.069 C 
HETATM    2  C   UNL     1       2.481  -0.080   0.443  1.00  0.00     0.019 A 
HETATM    3  N   UNL     1       3.075   1.118   0.088  1.00  0.00    -0.353 N 
HETATM    4  C   UNL     1       4.374   1.269  -0.355  1.00  0.00     0.087 A 
HETATM    5  C   UNL     1       5.183   0.186  -0.408  1.00  0.00     0.055 A 
HETATM    6  C   UNL     1       6.645   0.305  -0.803  1.00  0.00     0.019 C 
HETATM    7  N   UNL     1       7.859   0.403  -1.131  1.00  0.00    -0.096 N 
HETATM    8  C   UNL     1       4.649  -1.217  -0.100  1.00  0.00     0.104 A 
HETATM    9  C   UNL     1       3.178  -1.241   0.343  1.00  0.00     0.046 A 
HETATM   10  H   UNL     1       2.608   1.977   0.364  1.00  0.00     0.166 HD
ENDROOT
BRANCH   4  11
HETATM   11  S   UNL     1       4.970   2.847  -0.826  1.00  0.00    -0.102 SA
BRANCH  11  12
HETATM   12  C   UNL     1       3.730   3.353  -2.048  1.00  0.00     0.184 C 
BRANCH  12  13
HETATM   13  C   UNL     1       3.622   2.403  -3.239  1.00  0.00     0.231 C 
HETATM   14  N   UNL     1       2.472   1.622  -3.193  1.00  0.00    -0.324 N 
HETATM   15  H   UNL     1       1.814   1.846  -2.458  1.00  0.00     0.169 HD
HETATM   16  O   UNL     1       4.436   2.462  -4.156  1.00  0.00    -0.272 OA
BRANCH  14  17
HETATM   17  C   UNL     1       1.979   0.731  -4.180  1.00  0.00     0.071 A 
HETATM   18  C   UNL     1       2.756   0.012  -5.109  1.00  0.00     0.096 A 
HETATM   19  C   UNL     1       2.121  -0.817  -6.047  1.00  0.00     0.065 A 
HETATM   20  C   UNL     1       0.731  -0.939  -6.065  1.00  0.00     0.070 A 
HETATM   21 CL   UNL     1       0.007  -1.974  -7.245  1.00  0.00    -0.081 Cl
HETATM   22  C   UNL     1      -0.043  -0.241  -5.142  1.00  0.00     0.092 A 
HETATM   23  C   UNL     1       0.583   0.559  -4.183  1.00  0.00     0.071 A 
BRANCH  18  24
HETATM   24  O   UNL     1       4.114   0.021  -4.952  1.00  0.00    -0.354 OA
HETATM   25  C   UNL     1       4.901  -0.283  -6.097  1.00  0.00     0.210 C 
ENDBRANCH  18  24
BRANCH  22  26
HETATM   26  O   UNL     1      -1.404  -0.408  -5.132  1.00  0.00    -0.354 OA
HETATM   27  C   UNL     1      -2.098   0.818  -5.356  1.00  0.00     0.210 C 
ENDBRANCH  22  26
ENDBRANCH  14  17
ENDBRANCH  12  13
ENDBRANCH  11  12
ENDBRANCH   4  11
BRANCH   8  28
HETATM   28  C   UNL     1       4.937  -2.173  -1.261  1.00  0.00    -0.044 A 
HETATM   29  C   UNL     1       6.087  -2.982  -1.237  1.00  0.00     0.008 A 
HETATM   30  C   UNL     1       6.369  -3.851  -2.293  1.00  0.00     0.001 A 
HETATM   31  C   UNL     1       5.508  -3.926  -3.384  1.00  0.00     0.000 A 
HETATM   32  C   UNL     1       4.370  -3.127  -3.426  1.00  0.00     0.001 A 
HETATM   33  C   UNL     1       4.091  -2.247  -2.378  1.00  0.00     0.008 A 
ENDBRANCH   8  28
BRANCH   9  34
HETATM   34  C   UNL     1       2.474  -2.559   0.560  1.00  0.00     0.255 C 
HETATM   35  N   UNL     1       3.283  -3.602   0.962  1.00  0.00    -0.323 N 
HETATM   36  H   UNL     1       4.270  -3.428   1.071  1.00  0.00     0.169 HD
HETATM   37  O   UNL     1       1.271  -2.646   0.329  1.00  0.00    -0.268 OA
BRANCH  35  38
HETATM   38  C   UNL     1       2.910  -4.956   1.127  1.00  0.00     0.035 A 
HETATM   39  C   UNL     1       1.598  -5.427   1.047  1.00  0.00     0.029 A 
HETATM   40  C   UNL     1       1.320  -6.789   1.209  1.00  0.00     0.002 A 
HETATM   41  C   UNL     1       2.351  -7.693   1.451  1.00  0.00     0.000 A 
HETATM   42  C   UNL     1       3.662  -7.235   1.535  1.00  0.00     0.002 A 
HETATM   43  C   UNL     1       3.939  -5.874   1.378  1.00  0.00     0.029 A 
ENDBRANCH  35  38
ENDBRANCH   9  34
TORSDOF 9
