REMARK  6 active torsions:
REMARK  status: ('A' for Active; 'I' for Inactive)
REMARK    1  A    between atoms: C_6  and  C_7 
REMARK       I    between atoms: C_7  and  N_8 
REMARK    2  A    between atoms: N_8  and  C_9 
REMARK    3  A    between atoms: C_9  and  C_10 
REMARK    4  A    between atoms: C_10  and  O_11 
REMARK    5  A    between atoms: C_10  and  C_12 
REMARK    6  A    between atoms: C_15  and  O_16 
ROOT
HETATM    1  C   UNL     1       2.934  -2.357   0.191  1.00  0.00     0.258 C 
HETATM    2  N   UNL     1       1.648  -2.697  -0.145  1.00  0.00    -0.350 N 
HETATM    3  O   UNL     1       3.285  -1.184   0.304  1.00  0.00    -0.267 OA
HETATM    4  H   UNL     1       1.452  -3.690  -0.264  1.00  0.00     0.163 HD
ENDROOT
BRANCH   2   5
HETATM    5  C   UNL     1       0.562  -1.731  -0.296  1.00  0.00     0.114 C 
HETATM    6  C   UNL     1      -0.778  -2.463  -0.228  1.00  0.00     0.035 C 
BRANCH   5   7
HETATM    7  C   UNL     1       0.668  -0.818  -1.561  1.00  0.00     0.173 C 
BRANCH   7   8
HETATM    8  O   UNL     1       1.741   0.126  -1.466  1.00  0.00    -0.389 OA
HETATM    9  H   UNL     1       2.346  -0.174  -0.756  1.00  0.00     0.210 HD
ENDBRANCH   7   8
BRANCH   7  10
HETATM   10  C   UNL     1       0.761  -1.545  -2.889  1.00  0.00    -0.028 A 
HETATM   11  C   UNL     1      -0.402  -1.861  -3.605  1.00  0.00     0.012 A 
HETATM   12  C   UNL     1      -0.325  -2.509  -4.841  1.00  0.00     0.037 A 
HETATM   13  C   UNL     1       0.912  -2.838  -5.395  1.00  0.00     0.068 A 
HETATM   14  C   UNL     1       2.075  -2.547  -4.684  1.00  0.00     0.037 A 
HETATM   15  C   UNL     1       1.999  -1.907  -3.441  1.00  0.00     0.012 A 
BRANCH  13  16
HETATM   16  O   UNL     1       0.853  -3.445  -6.619  1.00  0.00    -0.356 OA
HETATM   17  C   UNL     1       2.059  -3.451  -7.375  1.00  0.00     0.210 C 
ENDBRANCH  13  16
ENDBRANCH   7  10
ENDBRANCH   5   7
ENDBRANCH   2   5
BRANCH   1  18
HETATM   18  C   UNL     1       3.841  -3.471   0.397  1.00  0.00     0.105 A 
HETATM   19  C   UNL     1       5.236  -3.424   0.660  1.00  0.00     0.071 A 
HETATM   20  C   UNL     1       6.103  -2.221   0.765  1.00  0.00     0.073 C 
HETATM   21  N   UNL     1       5.767  -4.642   0.822  1.00  0.00    -0.170 NA
HETATM   22  N   UNL     1       4.728  -5.493   0.678  1.00  0.00    -0.225 N 
HETATM   23  C   UNL     1       3.534  -4.821   0.401  1.00  0.00     0.168 A 
HETATM   24  C   UNL     1       4.750  -6.880   0.784  1.00  0.00     0.122 A 
HETATM   25  N   UNL     1       2.350  -5.493   0.210  1.00  0.00    -0.240 NA
HETATM   26  C   UNL     1       2.411  -6.788   0.317  1.00  0.00     0.120 A 
HETATM   27  C   UNL     1       3.627  -7.591   0.619  1.00  0.00     0.038 A 
ENDBRANCH   1  18
TORSDOF 6
