REMARK  3 active torsions:
REMARK  status: ('A' for Active; 'I' for Inactive)
REMARK    1  A    between atoms: C_7  and  C_8 
REMARK    2  A    between atoms: N_11  and  C_13 
REMARK    3  A    between atoms: C_13  and  C_14 
ROOT
HETATM    1  C   UNL     1      -2.881   2.432  -2.960  1.00  0.00     0.080 A 
HETATM    2  O   UNL     1      -4.059   1.985  -3.486  1.00  0.00    -0.302 OA
HETATM    3  C   UNL     1      -4.074   2.368  -4.795  1.00  0.00     0.155 A 
HETATM    4  C   UNL     1      -5.207   2.010  -5.570  1.00  0.00     0.125 C 
HETATM    5  N   UNL     1      -6.132   1.696  -6.195  1.00  0.00    -0.189 NA
HETATM    6  C   UNL     1      -2.920   3.046  -5.115  1.00  0.00     0.051 A 
HETATM    7  C   UNL     1      -2.147   3.089  -3.927  1.00  0.00     0.038 A 
ENDROOT
BRANCH   1   8
HETATM    8  C   UNL     1      -2.634   2.126  -1.530  1.00  0.00     0.299 C 
BRANCH   8   9
HETATM    9  N   UNL     1      -2.987   0.703  -1.118  1.00  0.00    -0.065 N 
HETATM   10  C   UNL     1      -2.241  -0.327  -1.935  1.00  0.00     0.236 C 
HETATM   11  C   UNL     1      -2.568  -1.727  -1.436  1.00  0.00     0.037 C 
HETATM   12  C   UNL     1      -2.164  -1.897   0.042  1.00  0.00     0.024 C 
HETATM   13  C   UNL     1      -2.992  -0.884   0.834  1.00  0.00     0.037 C 
HETATM   14  C   UNL     1      -2.791   0.552   0.369  1.00  0.00     0.236 C 
HETATM   15  H   UNL     1      -3.987   0.593  -1.335  1.00  0.00     0.280 HD
BRANCH  12  16
HETATM   16  C   UNL     1      -0.651  -1.839   0.208  1.00  0.00    -0.026 A 
HETATM   17  C   UNL     1       0.192  -1.106   1.126  1.00  0.00    -0.001 A 
HETATM   18  C   UNL     1       1.519  -1.320   0.731  1.00  0.00     0.045 A 
HETATM   19  C   UNL     1      -0.015  -0.260   2.244  1.00  0.00     0.017 A 
HETATM   20  C   UNL     1       2.615  -0.688   1.332  1.00  0.00     0.072 A 
HETATM   21  N   UNL     1       1.505  -2.244  -0.282  1.00  0.00    -0.365 N 
HETATM   22  C   UNL     1       2.357   0.175   2.390  1.00  0.00     0.118 A 
HETATM   23  C   UNL     1       1.070   0.382   2.857  1.00  0.00     0.043 A 
HETATM   24  F   UNL     1       3.377   0.812   2.978  1.00  0.00    -0.206 F 
HETATM   25  C   UNL     1       0.217  -2.569  -0.593  1.00  0.00     0.096 A 
HETATM   26  H   UNL     1       2.332  -2.631  -0.720  1.00  0.00     0.165 HD
ENDBRANCH  12  16
ENDBRANCH   8   9
ENDBRANCH   1   8
TORSDOF 3
