REMARK  6 active torsions:
REMARK  status: ('A' for Active; 'I' for Inactive)
REMARK    1  A    between atoms: N_4  and  C_5 
REMARK    2  A    between atoms: C_14  and  C_15 
REMARK       I    between atoms: C_15  and  N_16 
REMARK    3  A    between atoms: N_16  and  C_17 
REMARK    4  A    between atoms: C_17  and  C_18 
REMARK    5  A    between atoms: C_18  and  O_19 
REMARK    6  A    between atoms: C_18  and  C_20 
ROOT
HETATM    1  C   UNL     1       6.255  -8.111   2.226  1.00  0.00     0.255 C 
HETATM    2  N   UNL     1       6.114  -7.545   0.979  1.00  0.00    -0.354 N 
HETATM    3  O   UNL     1       6.778  -9.209   2.390  1.00  0.00    -0.268 OA
HETATM    4  H   UNL     1       5.448  -6.793   0.863  1.00  0.00     0.162 HD
ENDROOT
BRANCH   1   5
HETATM    5  C   UNL     1       5.707  -7.345   3.340  1.00  0.00     0.082 C 
HETATM    6  C   UNL     1       5.339  -7.879   4.600  1.00  0.00     0.069 C 
HETATM    7  C   UNL     1       5.392  -9.296   5.047  1.00  0.00     0.073 C 
HETATM    8  N   UNL     1       4.923  -6.936   5.443  1.00  0.00    -0.171 NA
HETATM    9  N   UNL     1       4.936  -5.781   4.734  1.00  0.00    -0.237 N 
HETATM   10  C   UNL     1       5.514  -5.970   3.478  1.00  0.00     0.050 C 
HETATM   11  C   UNL     1       5.943  -4.864   2.579  1.00  0.00     0.071 C 
BRANCH   9  12
HETATM   12  C   UNL     1       4.399  -4.606   5.350  1.00  0.00     0.058 A 
HETATM   13  C   UNL     1       4.243  -4.589   6.749  1.00  0.00     0.033 A 
HETATM   14  C   UNL     1       3.728  -3.464   7.398  1.00  0.00     0.021 A 
HETATM   15  C   UNL     1       3.345  -2.355   6.652  1.00  0.00     0.011 A 
HETATM   16 BR   UNL     1       2.644  -0.831   7.523  1.00  0.00    -0.051 Br
HETATM   17  C   UNL     1       3.466  -2.365   5.264  1.00  0.00     0.021 A 
HETATM   18  C   UNL     1       3.988  -3.490   4.611  1.00  0.00     0.033 A 
ENDBRANCH   9  12
ENDBRANCH   1   5
BRANCH   2  19
HETATM   19  C   UNL     1       6.467  -8.291  -0.220  1.00  0.00     0.159 C 
BRANCH  19  20
HETATM   20  C   UNL     1       6.848  -7.360  -1.383  1.00  0.00     0.169 C 
BRANCH  20  21
HETATM   21  O   UNL     1       5.719  -6.549  -1.734  1.00  0.00    -0.389 OA
HETATM   22  H   UNL     1       5.844  -6.276  -2.661  1.00  0.00     0.210 HD
ENDBRANCH  20  21
BRANCH  20  23
HETATM   23  C   UNL     1       7.331  -8.134  -2.593  1.00  0.00    -0.028 A 
HETATM   24  C   UNL     1       8.681  -8.069  -2.978  1.00  0.00     0.013 A 
HETATM   25  C   UNL     1       9.141  -8.805  -4.072  1.00  0.00     0.043 A 
HETATM   26  C   UNL     1       8.256  -9.608  -4.781  1.00  0.00     0.116 A 
HETATM   27  F   UNL     1       8.702 -10.318  -5.825  1.00  0.00    -0.206 F 
HETATM   28  C   UNL     1       6.917  -9.686  -4.420  1.00  0.00     0.043 A 
HETATM   29  C   UNL     1       6.453  -8.949  -3.329  1.00  0.00     0.013 A 
ENDBRANCH  20  23
ENDBRANCH  19  20
ENDBRANCH   2  19
TORSDOF 6
