REMARK  8 active torsions:
REMARK  status: ('A' for Active; 'I' for Inactive)
REMARK    1  A    between atoms: C_2  and  C_3 
REMARK    2  A    between atoms: C_3  and  N_4 
REMARK    3  A    between atoms: N_7  and  C_8 
REMARK    4  A    between atoms: C_8  and  C_9 
REMARK       I    between atoms: C_9  and  N_10 
REMARK    5  A    between atoms: N_10  and  C_11 
REMARK    6  A    between atoms: C_24  and  C_25 
REMARK       I    between atoms: C_25  and  N_26 
REMARK    7  A    between atoms: N_26  and  C_27 
REMARK    8  A    between atoms: C_27  and  C_28 
ROOT
HETATM    1  N   UNL     1       4.728  -0.374  -1.095  1.00  0.00    -0.262 N 
HETATM    2  C   UNL     1       5.231   0.919  -1.075  1.00  0.00     0.332 C 
HETATM    3  O   UNL     1       4.540   1.903  -1.344  1.00  0.00    -0.246 OA
HETATM    4  N   UNL     1       6.572   1.067  -0.738  1.00  0.00    -0.290 N 
HETATM    5  C   UNL     1       7.445  -0.049  -0.604  1.00  0.00     0.056 A 
HETATM    6  C   UNL     1       6.932  -1.338  -0.731  1.00  0.00     0.059 A 
HETATM    7  C   UNL     1       5.493  -1.525  -0.969  1.00  0.00     0.264 C 
HETATM    8  O   UNL     1       5.046  -2.666  -1.053  1.00  0.00    -0.267 OA
HETATM    9  C   UNL     1       8.827   0.099  -0.383  1.00  0.00     0.048 A 
HETATM   10  C   UNL     1       9.679  -1.015  -0.300  1.00  0.00     0.034 A 
HETATM   11  C   UNL     1       9.133  -2.298  -0.412  1.00  0.00     0.018 A 
HETATM   12  C   UNL     1       7.765  -2.461  -0.621  1.00  0.00     0.020 A 
ENDROOT
BRANCH  10  13
HETATM   13  C   UNL     1      11.166  -0.889  -0.190  1.00  0.00     0.252 C 
HETATM   14  N   UNL     1      11.678   0.347   0.136  1.00  0.00    -0.353 N 
HETATM   15  H   UNL     1      11.090   1.088   0.486  1.00  0.00     0.163 HD
HETATM   16  O   UNL     1      11.871  -1.868  -0.409  1.00  0.00    -0.268 OA
BRANCH  14  17
HETATM   17  C   UNL     1      13.101   0.598   0.163  1.00  0.00     0.161 C 
BRANCH  17  18
HETATM   18  C   UNL     1      13.600   0.729   1.578  1.00  0.00    -0.038 A 
HETATM   19  C   UNL     1      13.672   1.989   2.194  1.00  0.00     0.048 A 
HETATM   20  C   UNL     1      14.143   2.050   3.488  1.00  0.00     0.105 A 
HETATM   21  C   UNL     1      14.525   0.923   4.177  1.00  0.00     0.105 A 
HETATM   22  O   UNL     1      14.290   3.184   4.225  1.00  0.00    -0.323 OA
HETATM   23  O   UNL     1      14.964   1.207   5.432  1.00  0.00    -0.323 OA
HETATM   24  C   UNL     1      14.451  -0.331   3.613  1.00  0.00     0.040 A 
HETATM   25  C   UNL     1      14.829   2.643   5.449  1.00  0.00     0.352 A 
HETATM   26  C   UNL     1      13.978  -0.426   2.301  1.00  0.00     0.012 A 
ENDBRANCH  17  18
ENDBRANCH  14  17
ENDBRANCH  10  13
BRANCH   4  27
HETATM   27  C   UNL     1       7.025   2.413  -0.360  1.00  0.00     0.237 C 
BRANCH  27  28
HETATM   28  C   UNL     1       8.038   3.085  -1.287  1.00  0.00     0.240 C 
HETATM   29  N   UNL     1       7.769   2.949  -2.635  1.00  0.00    -0.326 N 
HETATM   30  H   UNL     1       6.919   2.450  -2.878  1.00  0.00     0.169 HD
HETATM   31  O   UNL     1       8.958   3.735  -0.793  1.00  0.00    -0.271 OA
BRANCH  29  32
HETATM   32  C   UNL     1       8.538   3.454  -3.707  1.00  0.00     0.034 A 
HETATM   33  C   UNL     1       9.725   4.176  -3.544  1.00  0.00     0.031 A 
HETATM   34  C   UNL     1      10.437   4.646  -4.653  1.00  0.00     0.021 A 
HETATM   35  C   UNL     1       9.966   4.393  -5.936  1.00  0.00     0.011 A 
HETATM   36 BR   UNL     1      10.927   5.029  -7.433  1.00  0.00    -0.051 Br
HETATM   37  C   UNL     1       8.788   3.673  -6.119  1.00  0.00     0.021 A 
HETATM   38  C   UNL     1       8.078   3.206  -5.006  1.00  0.00     0.031 A 
ENDBRANCH  29  32
ENDBRANCH  27  28
ENDBRANCH   4  27
BRANCH   1  39
HETATM   39  C   UNL     1       3.291  -0.540  -1.258  1.00  0.00     0.163 C 
BRANCH  39  40
HETATM   40  C   UNL     1       2.558  -0.506   0.063  1.00  0.00    -0.017 C 
HETATM   41  C   UNL     1       3.062  -0.389   1.301  1.00  0.00     0.008 C 
ENDBRANCH  39  40
ENDBRANCH   1  39
TORSDOF 8
