REMARK  4 active torsions:
REMARK  status: ('A' for Active; 'I' for Inactive)
REMARK       I    between atoms: C_2  and  N_3 
REMARK    1  A    between atoms: N_7  and  N_8 
REMARK       I    between atoms: N_8  and  C_9 
REMARK    2  A    between atoms: C_9  and  C_10 
REMARK    3  A    between atoms: C_18  and  C_19 
REMARK    4  A    between atoms: C_20  and  O_21 
ROOT
HETATM    1  C   UNL     1       7.199   3.351   5.827  1.00  0.00     0.048 A 
HETATM    2  C   UNL     1       7.065   1.958   6.025  1.00  0.00     0.009 A 
HETATM    3  C   UNL     1       8.160   1.318   6.638  1.00  0.00     0.068 A 
HETATM    4  C   UNL     1       8.117  -0.056   6.826  1.00  0.00     0.032 A 
HETATM    5  C   UNL     1       7.010  -0.822   6.453  1.00  0.00     0.002 A 
HETATM    6  C   UNL     1       5.904  -0.200   5.895  1.00  0.00     0.001 A 
HETATM    7  C   UNL     1       5.924   1.178   5.691  1.00  0.00     0.015 A 
HETATM    8  N   UNL     1       9.247   1.975   7.071  1.00  0.00    -0.247 NA
HETATM    9  C   UNL     1       9.333   3.318   6.915  1.00  0.00     0.071 A 
HETATM   10  C   UNL     1       8.329   4.033   6.285  1.00  0.00     0.050 A 
ENDROOT
BRANCH   1  11
HETATM   11  C   UNL     1       6.170   4.194   5.169  1.00  0.00     0.272 C 
HETATM   12  N   UNL     1       5.686   3.713   3.960  1.00  0.00    -0.243 N 
HETATM   13  H   UNL     1       6.096   2.888   3.542  1.00  0.00     0.192 HD
HETATM   14  O   UNL     1       5.849   5.250   5.704  1.00  0.00    -0.266 OA
BRANCH  12  15
HETATM   15  N   UNL     1       4.792   4.460   3.263  1.00  0.00    -0.181 NA
HETATM   16  C   UNL     1       4.109   3.934   2.293  1.00  0.00     0.035 C 
HETATM   17  C   UNL     1       3.134   4.835   1.565  1.00  0.00     0.076 C 
HETATM   18  C   UNL     1       4.091   2.479   1.882  1.00  0.00     0.076 C 
HETATM   19  C   UNL     1       3.315   4.663   0.067  1.00  0.00     0.131 C 
HETATM   20  N   UNL     1       3.261   3.251  -0.322  1.00  0.00    -0.352 N 
HETATM   21  C   UNL     1       2.608   2.923  -1.505  1.00  0.00     0.215 C 
HETATM   22  C   UNL     1       4.209   2.373   0.367  1.00  0.00     0.131 C 
HETATM   23  C   UNL     1       2.640   1.478  -1.935  1.00  0.00     0.117 C 
HETATM   24  O   UNL     1       2.001   3.751  -2.184  1.00  0.00    -0.274 OA
ENDBRANCH  12  15
ENDBRANCH   1  11
BRANCH   9  25
HETATM   25  C   UNL     1      10.512   3.981   7.506  1.00  0.00     0.026 A 
HETATM   26  C   UNL     1      11.828   3.513   7.327  1.00  0.00     0.080 A 
HETATM   27  C   UNL     1      12.923   4.184   7.887  1.00  0.00     0.037 A 
HETATM   28  C   UNL     1      12.725   5.318   8.670  1.00  0.00     0.003 A 
HETATM   29  C   UNL     1      11.434   5.790   8.883  1.00  0.00     0.001 A 
HETATM   30  C   UNL     1      10.344   5.131   8.307  1.00  0.00     0.016 A 
BRANCH  26  31
HETATM   31  O   UNL     1      12.073   2.431   6.516  1.00  0.00    -0.355 OA
HETATM   32  C   UNL     1      12.473   1.305   7.298  1.00  0.00     0.210 C 
ENDBRANCH  26  31
ENDBRANCH   9  25
TORSDOF 4
