REMARK  6 active torsions:
REMARK  status: ('A' for Active; 'I' for Inactive)
REMARK    1  A    between atoms: C_9  and  C_10 
REMARK       I    between atoms: C_10  and  N_11 
REMARK    2  A    between atoms: N_11  and  C_12 
REMARK    3  A    between atoms: C_12  and  C_13 
REMARK    4  A    between atoms: C_13  and  O_14 
REMARK    5  A    between atoms: C_13  and  C_15 
REMARK    6  A    between atoms: C_18  and  O_19 
ROOT
HETATM    1  C   UNL     1       5.120  -3.443   0.794  1.00  0.00     0.258 C 
HETATM    2  N   UNL     1       4.020  -4.146   0.361  1.00  0.00    -0.350 N 
HETATM    3  O   UNL     1       5.233  -2.230   0.646  1.00  0.00    -0.267 OA
HETATM    4  H   UNL     1       3.981  -5.133   0.611  1.00  0.00     0.163 HD
ENDROOT
BRANCH   2   5
HETATM    5  C   UNL     1       2.834  -3.536  -0.235  1.00  0.00     0.114 C 
HETATM    6  C   UNL     1       3.168  -2.916  -1.596  1.00  0.00     0.035 C 
BRANCH   5   7
HETATM    7  C   UNL     1       2.108  -2.528   0.707  1.00  0.00     0.173 C 
BRANCH   7   8
HETATM    8  O   UNL     1       1.016  -1.897   0.025  1.00  0.00    -0.389 OA
HETATM    9  H   UNL     1       1.393  -1.136  -0.448  1.00  0.00     0.210 HD
ENDBRANCH   7   8
BRANCH   7  10
HETATM   10  C   UNL     1       1.563  -3.204   1.954  1.00  0.00    -0.028 A 
HETATM   11  C   UNL     1       2.324  -3.230   3.131  1.00  0.00     0.012 A 
HETATM   12  C   UNL     1       1.837  -3.861   4.279  1.00  0.00     0.037 A 
HETATM   13  C   UNL     1       0.578  -4.462   4.281  1.00  0.00     0.068 A 
HETATM   14  C   UNL     1      -0.181  -4.457   3.112  1.00  0.00     0.037 A 
HETATM   15  C   UNL     1       0.310  -3.835   1.957  1.00  0.00     0.012 A 
BRANCH  13  16
HETATM   16  O   UNL     1       0.211  -5.028   5.471  1.00  0.00    -0.356 OA
HETATM   17  C   UNL     1      -1.168  -5.347   5.618  1.00  0.00     0.210 C 
ENDBRANCH  13  16
ENDBRANCH   7  10
ENDBRANCH   5   7
ENDBRANCH   2   5
BRANCH   1  18
HETATM   18  C   UNL     1       6.130  -4.238   1.473  1.00  0.00     0.105 A 
HETATM   19  C   UNL     1       6.102  -5.597   1.735  1.00  0.00     0.169 A 
HETATM   20  N   UNL     1       5.166  -6.557   1.442  1.00  0.00    -0.233 NA
HETATM   21  N   UNL     1       7.282  -5.894   2.425  1.00  0.00    -0.219 N 
HETATM   22  C   UNL     1       5.435  -7.769   1.836  1.00  0.00     0.035 A 
HETATM   23  C   UNL     1       4.435  -8.858   1.544  1.00  0.00     0.070 C 
HETATM   24  C   UNL     1       6.666  -8.175   2.585  1.00  0.00     0.053 A 
HETATM   25  C   UNL     1       7.554  -7.202   2.851  1.00  0.00     0.036 A 
HETATM   26  C   UNL     1       8.830  -7.450   3.594  1.00  0.00     0.070 C 
HETATM   27  N   UNL     1       8.049  -4.790   2.596  1.00  0.00    -0.170 NA
HETATM   28  C   UNL     1       7.359  -3.796   2.028  1.00  0.00     0.071 A 
HETATM   29  C   UNL     1       7.909  -2.415   2.037  1.00  0.00     0.073 C 
ENDBRANCH   1  18
TORSDOF 6
