REMARK  8 active torsions:
REMARK  status: ('A' for Active; 'I' for Inactive)
REMARK    1  A    between atoms: N_3  and  C_4 
REMARK    2  A    between atoms: C_4  and  C_5 
REMARK    3  A    between atoms: C_5  and  O_6 
REMARK    4  A    between atoms: C_11  and  C_12 
REMARK    5  A    between atoms: C_13  and  C_14 
REMARK    6  A    between atoms: C_22  and  C_23 
REMARK       I    between atoms: C_23  and  N_24 
REMARK    7  A    between atoms: N_24  and  C_25 
REMARK    8  A    between atoms: C_26  and  O_27 
ROOT
HETATM    1  C   UNL     1       0.881   0.572  -1.055  1.00  0.00     0.069 C 
HETATM    2  C   UNL     1       2.277   0.226  -0.590  1.00  0.00     0.026 C 
HETATM    3  N   UNL     1       3.147   1.242  -0.165  1.00  0.00    -0.301 N 
HETATM    4  C   UNL     1       4.412   0.968   0.367  1.00  0.00     0.323 C 
HETATM    5  O   UNL     1       5.204   1.812   0.781  1.00  0.00    -0.247 OA
HETATM    6  N   UNL     1       4.776  -0.343   0.431  1.00  0.00    -0.330 N 
HETATM    7  C   UNL     1       4.151  -1.407  -0.314  1.00  0.00     0.161 C 
HETATM    8  C   UNL     1       2.733  -1.045  -0.602  1.00  0.00     0.059 C 
HETATM    9  H   UNL     1       5.719  -0.478   0.767  1.00  0.00     0.165 HD
ENDROOT
BRANCH   8  10
HETATM   10  C   UNL     1       1.824  -2.194  -0.853  1.00  0.00     0.256 C 
HETATM   11  N   UNL     1       0.877  -2.306   0.147  1.00  0.00    -0.321 N 
HETATM   12  H   UNL     1       1.070  -1.806   1.006  1.00  0.00     0.169 HD
HETATM   13  O   UNL     1       2.043  -2.964  -1.777  1.00  0.00    -0.267 OA
BRANCH  11  14
HETATM   14  C   UNL     1      -0.249  -3.157   0.168  1.00  0.00     0.068 A 
HETATM   15  C   UNL     1      -0.934  -3.609  -0.971  1.00  0.00     0.095 A 
HETATM   16  C   UNL     1      -2.066  -4.423  -0.829  1.00  0.00     0.039 A 
HETATM   17  C   UNL     1      -2.514  -4.799   0.437  1.00  0.00     0.003 A 
HETATM   18  C   UNL     1      -1.853  -4.337   1.570  1.00  0.00     0.002 A 
HETATM   19  C   UNL     1      -0.736  -3.509   1.436  1.00  0.00     0.032 A 
BRANCH  15  20
HETATM   20  O   UNL     1      -0.620  -3.097  -2.204  1.00  0.00    -0.354 OA
HETATM   21  C   UNL     1      -0.374  -4.118  -3.171  1.00  0.00     0.210 C 
ENDBRANCH  15  20
ENDBRANCH  11  14
ENDBRANCH   8  10
BRANCH   7  22
HETATM   22  C   UNL     1       4.987  -1.737  -1.553  1.00  0.00    -0.016 A 
HETATM   23  C   UNL     1       5.687  -2.963  -1.685  1.00  0.00     0.056 A 
HETATM   24  C   UNL     1       6.444  -3.203  -2.850  1.00  0.00     0.017 A 
HETATM   25  C   UNL     1       6.523  -2.254  -3.867  1.00  0.00     0.001 A 
HETATM   26  C   UNL     1       5.850  -1.046  -3.737  1.00  0.00     0.001 A 
HETATM   27  C   UNL     1       5.093  -0.790  -2.595  1.00  0.00     0.010 A 
BRANCH  23  28
HETATM   28  C   UNL     1       5.669  -4.018  -0.600  1.00  0.00     0.418 C 
HETATM   29  F   UNL     1       6.172  -3.544   0.576  1.00  0.00    -0.166 F 
HETATM   30  F   UNL     1       4.420  -4.471  -0.311  1.00  0.00    -0.166 F 
HETATM   31  F   UNL     1       6.407  -5.125  -0.893  1.00  0.00    -0.166 F 
ENDBRANCH  23  28
ENDBRANCH   7  22
BRANCH   3  32
HETATM   32  C   UNL     1       2.737   2.656  -0.136  1.00  0.00     0.160 C 
BRANCH  32  33
HETATM   33  C   UNL     1       1.771   3.017   1.003  1.00  0.00     0.187 C 
BRANCH  33  34
HETATM   34  O   UNL     1       2.320   2.670   2.273  1.00  0.00    -0.394 OA
HETATM   35  C   UNL     1       1.424   2.967   3.335  1.00  0.00     0.201 C 
ENDBRANCH  33  34
ENDBRANCH  32  33
ENDBRANCH   3  32
TORSDOF 8
