REMARK  4 active torsions:
REMARK  status: ('A' for Active; 'I' for Inactive)
REMARK    1  A    between atoms: C_2  and  C_3 
REMARK       I    between atoms: C_3  and  N_4 
REMARK    2  A    between atoms: N_4  and  N_5 
REMARK    3  A    between atoms: N_5  and  C_6 
REMARK    4  A    between atoms: N_7  and  C_8 
ROOT
HETATM    1  C   UNL     1      -0.177   0.621  -3.410  1.00  0.00     0.208 A 
HETATM    2  N   UNL     1      -0.473   1.907  -3.858  1.00  0.00    -0.251 N 
HETATM    3  C   UNL     1      -1.194   2.093  -5.037  1.00  0.00     0.264 A 
HETATM    4  O   UNL     1      -1.454   3.199  -5.510  1.00  0.00    -0.267 OA
HETATM    5  C   UNL     1      -1.726   0.868  -5.709  1.00  0.00     0.049 A 
HETATM    6  C   UNL     1      -1.442  -0.303  -5.105  1.00  0.00     0.083 A 
HETATM    7  C   UNL     1      -2.030  -1.558  -5.648  1.00  0.00    -0.000 A 
HETATM    8  C   UNL     1      -2.531  -1.590  -6.958  1.00  0.00    -0.044 A 
HETATM    9  C   UNL     1      -3.069  -2.773  -7.486  1.00  0.00     0.008 A 
HETATM   10  C   UNL     1      -3.133  -3.924  -6.703  1.00  0.00     0.001 A 
HETATM   11  C   UNL     1      -2.651  -3.902  -5.398  1.00  0.00     0.001 A 
HETATM   12  C   UNL     1      -2.101  -2.728  -4.876  1.00  0.00     0.014 A 
HETATM   13  C   UNL     1      -2.426  -0.352  -7.802  1.00  0.00     0.054 C 
HETATM   14  C   UNL     1      -2.607   0.949  -6.973  1.00  0.00    -0.002 C 
HETATM   15  C   UNL     1      -4.095   1.137  -6.583  1.00  0.00     0.015 C 
HETATM   16  C   UNL     1      -4.312   2.641  -6.566  1.00  0.00     0.001 C 
HETATM   17  C   UNL     1      -3.478   3.151  -7.730  1.00  0.00     0.001 C 
HETATM   18  C   UNL     1      -2.347   2.138  -7.938  1.00  0.00     0.015 C 
HETATM   19  N   UNL     1      -0.646  -0.441  -4.004  1.00  0.00    -0.217 NA
ENDROOT
BRANCH   1  20
HETATM   20  N   UNL     1       0.680   0.434  -2.333  1.00  0.00    -0.171 NA
HETATM   21  H   UNL     1       1.371   1.173  -2.166  1.00  0.00     0.156 HD
BRANCH  20  22
HETATM   22  N   UNL     1       1.251  -0.853  -2.230  1.00  0.00    -0.284 N 
HETATM   23  C   UNL     1       2.611  -0.892  -1.981  1.00  0.00     0.231 C 
HETATM   24  O   UNL     1       3.258   0.112  -1.691  1.00  0.00    -0.272 OA
HETATM   25  H   UNL     1       0.795  -1.555  -2.814  1.00  0.00     0.184 HD
BRANCH  23  26
HETATM   26  C   UNL     1       3.201  -2.278  -2.126  1.00  0.00     0.100 C 
HETATM   27  C   UNL     1       4.619  -2.354  -1.586  1.00  0.00     0.014 C 
ENDBRANCH  23  26
ENDBRANCH  20  22
ENDBRANCH   1  20
BRANCH   2  28
HETATM   28  C   UNL     1      -0.076   3.067  -3.101  1.00  0.00     0.045 A 
HETATM   29  C   UNL     1      -0.251   3.109  -1.707  1.00  0.00     0.030 A 
HETATM   30  C   UNL     1       0.149   4.223  -0.965  1.00  0.00     0.002 A 
HETATM   31  C   UNL     1       0.721   5.318  -1.605  1.00  0.00     0.000 A 
HETATM   32  C   UNL     1       0.886   5.302  -2.988  1.00  0.00     0.002 A 
HETATM   33  C   UNL     1       0.486   4.187  -3.730  1.00  0.00     0.030 A 
ENDBRANCH   2  28
TORSDOF 4
