REMARK  4 active torsions:
REMARK  status: ('A' for Active; 'I' for Inactive)
REMARK    1  A    between atoms: C_8  and  N_9 
REMARK       I    between atoms: N_9  and  C_10 
REMARK       I    between atoms: C_10  and  N_11 
REMARK    2  A    between atoms: N_11  and  C_12 
REMARK    3  A    between atoms: C_15  and  O_16 
REMARK    4  A    between atoms: O_16  and  C_17 
ROOT
HETATM    1  C   UNL     1       0.528  -0.176  -0.397  1.00  0.00     0.054 A 
HETATM    2  C   UNL     1      -0.182   1.001  -0.173  1.00  0.00     0.149 A 
HETATM    3  N   UNL     1       0.177   2.215  -0.664  1.00  0.00    -0.235 NA
HETATM    4  C   UNL     1       1.294   2.265  -1.420  1.00  0.00     0.169 A 
HETATM    5  C   UNL     1       2.064   1.151  -1.712  1.00  0.00     0.060 A 
HETATM    6  C   UNL     1       1.673  -0.084  -1.193  1.00  0.00     0.035 A 
ENDROOT
BRANCH   1   7
HETATM    7  N   UNL     1       0.191  -1.446   0.120  1.00  0.00    -0.307 N 
HETATM    8  C   UNL     1      -0.847  -1.736   0.994  1.00  0.00     0.325 C 
HETATM    9  N   UNL     1      -0.861  -3.083   1.302  1.00  0.00    -0.305 N 
HETATM   10  O   UNL     1      -1.633  -0.906   1.426  1.00  0.00    -0.247 OA
HETATM   11  H   UNL     1      -0.383  -3.705   0.670  1.00  0.00     0.171 HD
HETATM   12  H   UNL     1       0.833  -2.196  -0.083  1.00  0.00     0.170 HD
BRANCH   9  13
HETATM   13  C   UNL     1      -1.638  -3.703   2.270  1.00  0.00     0.086 A 
HETATM   14  C   UNL     1      -1.726  -5.081   2.360  1.00  0.00     0.052 A 
HETATM   15  C   UNL     1      -1.127  -6.179   1.567  1.00  0.00     0.072 C 
HETATM   16  N   UNL     1      -2.559  -5.334   3.412  1.00  0.00    -0.280 N 
HETATM   17  H   UNL     1      -2.864  -6.233   3.769  1.00  0.00     0.189 HD
HETATM   18  N   UNL     1      -2.996  -4.236   4.031  1.00  0.00    -0.177 NA
HETATM   19  C   UNL     1      -2.438  -3.223   3.350  1.00  0.00     0.079 A 
HETATM   20  C   UNL     1      -2.697  -1.840   3.825  1.00  0.00     0.075 C 
ENDBRANCH   9  13
ENDBRANCH   1   7
BRANCH   4  21
HETATM   21  O   UNL     1       1.746   3.473  -1.943  1.00  0.00    -0.292 OA
BRANCH  21  22
HETATM   22  C   UNL     1       1.029   4.596  -1.608  1.00  0.00     0.078 A 
HETATM   23  C   UNL     1       1.594   5.500  -0.707  1.00  0.00     0.040 A 
HETATM   24  C   UNL     1       0.911   6.674  -0.391  1.00  0.00     0.045 A 
HETATM   25  C   UNL     1      -0.318   6.935  -0.990  1.00  0.00     0.116 A 
HETATM   26  F   UNL     1      -0.972   8.064  -0.686  1.00  0.00    -0.206 F 
HETATM   27  C   UNL     1      -0.876   6.047  -1.906  1.00  0.00     0.045 A 
HETATM   28  C   UNL     1      -0.194   4.872  -2.226  1.00  0.00     0.040 A 
ENDBRANCH  21  22
ENDBRANCH   4  21
TORSDOF 4
