REMARK  3 active torsions:
REMARK  status: ('A' for Active; 'I' for Inactive)
REMARK       I    between atoms: C_2  and  N_3 
REMARK    1  A    between atoms: N_3  and  C_4 
REMARK    2  A    between atoms: C_9  and  N_10 
REMARK       I    between atoms: N_10  and  C_11 
REMARK    3  A    between atoms: C_11  and  C_12 
ROOT
HETATM    1  C   UNL     1       1.839  -2.097  -1.435  1.00  0.00     0.156 A 
HETATM    2  N   UNL     1       1.762  -3.455  -1.399  1.00  0.00    -0.241 NA
HETATM    3  C   UNL     1       1.316  -4.099  -2.495  1.00  0.00     0.119 A 
HETATM    4  C   UNL     1       0.936  -3.452  -3.648  1.00  0.00     0.022 A 
HETATM    5  C   UNL     1       1.015  -2.063  -3.677  1.00  0.00     0.035 A 
HETATM    6  C   UNL     1       1.464  -1.339  -2.563  1.00  0.00     0.081 A 
ENDROOT
BRANCH   6   7
HETATM    7  N   UNL     1       1.549   0.075  -2.601  1.00  0.00    -0.320 N 
HETATM    8  C   UNL     1       1.095   0.930  -3.589  1.00  0.00     0.256 C 
HETATM    9  O   UNL     1       0.438   0.619  -4.577  1.00  0.00    -0.267 OA
HETATM   10  H   UNL     1       1.927   0.508  -1.760  1.00  0.00     0.169 HD
BRANCH   8  11
HETATM   11  C   UNL     1       1.413   2.377  -3.398  1.00  0.00     0.032 A 
HETATM   12  C   UNL     1       2.581   2.810  -2.755  1.00  0.00     0.018 A 
HETATM   13  C   UNL     1       2.847   4.178  -2.628  1.00  0.00     0.025 A 
HETATM   14  C   UNL     1       1.956   5.112  -3.153  1.00  0.00     0.034 A 
HETATM   15 CL   UNL     1       2.292   6.793  -3.001  1.00  0.00    -0.084 Cl
HETATM   16  C   UNL     1       0.800   4.694  -3.810  1.00  0.00     0.025 A 
HETATM   17  C   UNL     1       0.532   3.328  -3.935  1.00  0.00     0.018 A 
ENDBRANCH   8  11
ENDBRANCH   6   7
BRANCH   1  18
HETATM   18  N   UNL     1       2.323  -1.649  -0.197  1.00  0.00    -0.310 N 
HETATM   19  C   UNL     1       2.618  -0.407   0.286  1.00  0.00     0.219 C 
HETATM   20  C   UNL     1       3.112  -0.428   1.711  1.00  0.00     0.117 C 
HETATM   21  O   UNL     1       2.544   0.649  -0.333  1.00  0.00    -0.274 OA
HETATM   22  H   UNL     1       2.480  -2.446   0.407  1.00  0.00     0.170 HD
ENDBRANCH   1  18
TORSDOF 3
