REMARK  4 active torsions:
REMARK  status: ('A' for Active; 'I' for Inactive)
REMARK    1  A    between atoms: N_4  and  C_5 
REMARK    2  A    between atoms: C_13  and  C_14 
REMARK    3  A    between atoms: N_15  and  C_17 
REMARK    4  A    between atoms: C_17  and  C_18 
ROOT
HETATM    1  C   UNL     1       9.064  -2.871   3.090  1.00  0.00     0.095 C 
HETATM    2  C   UNL     1       7.915  -2.194   2.453  1.00  0.00     0.144 A 
HETATM    3  N   UNL     1       7.561  -0.936   2.733  1.00  0.00    -0.156 NA
HETATM    4  N   UNL     1       6.551  -0.714   1.873  1.00  0.00    -0.247 N 
HETATM    5  C   UNL     1       6.286  -1.847   1.145  1.00  0.00     0.156 A 
HETATM    6  N   UNL     1       7.122  -2.800   1.519  1.00  0.00    -0.215 NA
ENDROOT
BRANCH   5   7
HETATM    7  C   UNL     1       5.268  -2.026   0.054  1.00  0.00     0.259 C 
HETATM    8  N   UNL     1       4.792  -3.483   0.028  1.00  0.00    -0.056 N 
HETATM    9  H   UNL     1       5.680  -4.010   0.046  1.00  0.00     0.281 HD
HETATM   10  C   UNL     1       4.068  -3.937  -1.210  1.00  0.00     0.236 C 
HETATM   11  C   UNL     1       4.862  -3.591  -2.454  1.00  0.00     0.028 C 
HETATM   12  C   UNL     1       5.142  -2.100  -2.505  1.00  0.00     0.004 C 
HETATM   13  C   UNL     1       5.947  -1.679  -1.286  1.00  0.00     0.041 C 
BRANCH   8  14
HETATM   14  C   UNL     1       4.094  -3.951   1.303  1.00  0.00     0.274 C 
BRANCH  14  15
HETATM   15  C   UNL     1       3.115  -3.004   1.960  1.00  0.00    -0.033 A 
HETATM   16  C   UNL     1       2.040  -2.423   1.272  1.00  0.00     0.009 A 
HETATM   17  C   UNL     1       1.132  -1.586   1.928  1.00  0.00     0.001 A 
HETATM   18  C   UNL     1       1.265  -1.342   3.290  1.00  0.00     0.000 A 
HETATM   19  C   UNL     1       2.304  -1.935   4.000  1.00  0.00     0.001 A 
HETATM   20  C   UNL     1       3.223  -2.757   3.341  1.00  0.00     0.009 A 
ENDBRANCH  14  15
ENDBRANCH   8  14
ENDBRANCH   5   7
BRANCH   4  21
HETATM   21  C   UNL     1       5.918   0.601   1.860  1.00  0.00     0.115 C 
HETATM   22  C   UNL     1       6.926   1.758   1.752  1.00  0.00     0.055 C 
HETATM   23  C   UNL     1       7.660   2.077   3.053  1.00  0.00     0.236 C 
HETATM   24  N   UNL     1       6.675   2.256   4.183  1.00  0.00    -0.075 N 
HETATM   25  H   UNL     1       6.098   3.084   3.979  1.00  0.00     0.279 HD
HETATM   26  C   UNL     1       7.396   2.578   5.475  1.00  0.00     0.269 C 
HETATM   27  C   UNL     1       5.764   1.071   4.365  1.00  0.00     0.236 C 
HETATM   28  C   UNL     1       5.003   0.803   3.073  1.00  0.00     0.055 C 
ENDBRANCH   4  21
TORSDOF 4
