REMARK  4 active torsions:
REMARK  status: ('A' for Active; 'I' for Inactive)
REMARK    1  A    between atoms: C_9  and  C_10 
REMARK    2  A    between atoms: C_13  and  O_14 
REMARK    3  A    between atoms: C_18  and  C_19 
REMARK       I    between atoms: C_19  and  N_20 
REMARK    4  A    between atoms: N_20  and  C_21 
ROOT
HETATM    1  C   UNL     1       0.914  -0.059  -1.066  1.00  0.00     0.070 C 
HETATM    2  C   UNL     1       2.329  -0.025  -0.545  1.00  0.00     0.037 C 
HETATM    3  N   UNL     1       2.856   1.249  -0.342  1.00  0.00    -0.192 N 
HETATM    4  C   UNL     1       4.178   1.476  -0.206  1.00  0.00     0.725 A 
HETATM    5  N   UNL     1       5.027   0.415  -0.044  1.00  0.00    -0.084 N 
HETATM    6  N   UNL     1       6.316   0.815  -0.032  1.00  0.00    -0.149 NA
HETATM    7  C   UNL     1       6.162   2.140  -0.136  1.00  0.00     0.275 A 
HETATM    8  N   UNL     1       4.869   2.586  -0.243  1.00  0.00    -0.054 NA
HETATM    9  C   UNL     1       4.584  -0.981   0.049  1.00  0.00     0.202 C 
HETATM   10  C   UNL     1       3.116  -1.115  -0.354  1.00  0.00     0.062 C 
HETATM   11  H   UNL     1       2.271   2.043  -0.592  1.00  0.00     0.184 HD
ENDROOT
BRANCH  10  12
HETATM   12  C   UNL     1       2.710  -2.512  -0.673  1.00  0.00     0.256 C 
HETATM   13  N   UNL     1       1.509  -2.893  -0.115  1.00  0.00    -0.323 N 
HETATM   14  H   UNL     1       1.065  -2.236   0.514  1.00  0.00     0.169 HD
HETATM   15  O   UNL     1       3.459  -3.199  -1.357  1.00  0.00    -0.267 OA
BRANCH  13  16
HETATM   16  C   UNL     1       0.785  -4.075  -0.386  1.00  0.00     0.035 A 
HETATM   17  C   UNL     1       1.246  -5.101  -1.214  1.00  0.00     0.031 A 
HETATM   18  C   UNL     1       0.446  -6.220  -1.475  1.00  0.00     0.026 A 
HETATM   19  C   UNL     1      -0.821  -6.315  -0.910  1.00  0.00     0.034 A 
HETATM   20 CL   UNL     1      -1.811  -7.681  -1.248  1.00  0.00    -0.084 Cl
HETATM   21  C   UNL     1      -1.293  -5.305  -0.078  1.00  0.00     0.026 A 
HETATM   22  C   UNL     1      -0.489  -4.191   0.188  1.00  0.00     0.031 A 
ENDBRANCH  13  16
ENDBRANCH  10  12
BRANCH   9  23
HETATM   23  C   UNL     1       4.850  -1.521   1.453  1.00  0.00    -0.028 A 
HETATM   24  C   UNL     1       4.386  -0.861   2.603  1.00  0.00     0.012 A 
HETATM   25  C   UNL     1       4.682  -1.358   3.875  1.00  0.00     0.037 A 
HETATM   26  C   UNL     1       5.439  -2.520   4.028  1.00  0.00     0.068 A 
HETATM   27  C   UNL     1       5.874  -3.203   2.893  1.00  0.00     0.037 A 
HETATM   28  C   UNL     1       5.579  -2.709   1.617  1.00  0.00     0.012 A 
BRANCH  26  29
HETATM   29  O   UNL     1       5.676  -2.883   5.325  1.00  0.00    -0.356 OA
HETATM   30  C   UNL     1       6.644  -3.904   5.533  1.00  0.00     0.210 C 
ENDBRANCH  26  29
ENDBRANCH   9  23
TORSDOF 4
