REMARK  9 active torsions:
REMARK  status: ('A' for Active; 'I' for Inactive)
REMARK    1  A    between atoms: C_2  and  C_3 
REMARK       I    between atoms: C_3  and  N_4 
REMARK    2  A    between atoms: N_4  and  N_5 
REMARK    3  A    between atoms: N_5  and  C_6 
REMARK    4  A    between atoms: C_6  and  N_7 
REMARK    5  A    between atoms: N_7  and  C_8 
REMARK    6  A    between atoms: C_18  and  N_19 
REMARK    7  A    between atoms: N_19  and  C_20 
REMARK    8  A    between atoms: C_20  and  N_21 
REMARK    9  A    between atoms: N_21  and  C_22 
ROOT
HETATM    1  C   UNL     1      -0.566   1.218   0.730  1.00  0.00     0.019 A 
HETATM    2  C   UNL     1       0.795   1.118   0.428  1.00  0.00     0.033 A 
HETATM    3  C   UNL     1       1.344  -0.147   0.185  1.00  0.00     0.019 A 
HETATM    4  C   UNL     1       0.552  -1.301   0.268  1.00  0.00     0.030 A 
HETATM    5  C   UNL     1      -0.798  -1.206   0.602  1.00  0.00     0.033 A 
HETATM    6  C   UNL     1      -1.351   0.063   0.816  1.00  0.00     0.030 A 
ENDROOT
BRANCH   2   7
HETATM    7  C   UNL     1       1.679   2.314   0.315  1.00  0.00     0.270 C 
HETATM    8  N   UNL     1       1.240   3.468   0.934  1.00  0.00    -0.264 N 
HETATM    9  H   UNL     1       0.362   3.559   1.432  1.00  0.00     0.190 HD
HETATM   10  O   UNL     1       2.746   2.256  -0.291  1.00  0.00    -0.266 OA
BRANCH   8  11
HETATM   11  N   UNL     1       1.956   4.655   0.725  1.00  0.00    -0.274 N 
HETATM   12  H   UNL     1       2.849   4.507   0.267  1.00  0.00     0.189 HD
BRANCH  11  13
HETATM   13  C   UNL     1       1.296   5.815   0.451  1.00  0.00     0.186 C 
HETATM   14  S   UNL     1      -0.370   6.003   0.492  1.00  0.00    -0.040 SA
BRANCH  13  15
HETATM   15  N   UNL     1       2.042   6.916   0.185  1.00  0.00    -0.361 N 
HETATM   16  H   UNL     1       1.456   7.727   0.018  1.00  0.00     0.162 HD
BRANCH  15  17
HETATM   17  C   UNL     1       3.472   7.216   0.340  1.00  0.00     0.083 C 
HETATM   18  C   UNL     1       3.971   7.099   1.787  1.00  0.00     0.025 C 
HETATM   19  C   UNL     1       4.754   5.831   2.104  1.00  0.00     0.002 C 
HETATM   20  C   UNL     1       5.836   5.572   1.069  1.00  0.00     0.000 C 
HETATM   21  C   UNL     1       5.245   5.419  -0.324  1.00  0.00     0.002 C 
HETATM   22  C   UNL     1       4.380   6.606  -0.739  1.00  0.00     0.025 C 
ENDBRANCH  15  17
ENDBRANCH  13  15
ENDBRANCH  11  13
ENDBRANCH   8  11
ENDBRANCH   2   7
BRANCH   5  23
HETATM   23  N   UNL     1      -1.691  -2.292   0.665  1.00  0.00    -0.338 N 
HETATM   24  H   UNL     1      -2.655  -2.040   0.826  1.00  0.00     0.168 HD
BRANCH  23  25
HETATM   25  C   UNL     1      -1.506  -3.641   0.763  1.00  0.00     0.151 C 
HETATM   26  S   UNL     1      -0.164  -4.476   1.293  1.00  0.00    -0.047 SA
BRANCH  25  27
HETATM   27  N   UNL     1      -2.637  -4.381   0.495  1.00  0.00    -0.265 NA
HETATM   28  H   UNL     1      -2.432  -5.346   0.737  1.00  0.00     0.130 HD
BRANCH  27  29
HETATM   29  C   UNL     1      -3.437  -4.305  -0.747  1.00  0.00     0.062 C 
HETATM   30  C   UNL     1      -4.524  -5.396  -0.711  1.00  0.00     0.020 C 
HETATM   31  C   UNL     1      -5.647  -5.063   0.275  1.00  0.00     0.002 C 
HETATM   32  C   UNL     1      -6.266  -3.698  -0.009  1.00  0.00     0.000 C 
HETATM   33  C   UNL     1      -5.208  -2.600  -0.073  1.00  0.00     0.002 C 
HETATM   34  C   UNL     1      -4.103  -2.956  -1.065  1.00  0.00     0.020 C 
ENDBRANCH  27  29
ENDBRANCH  25  27
ENDBRANCH  23  25
ENDBRANCH   5  23
TORSDOF 9
