REMARK  3 active torsions:
REMARK  status: ('A' for Active; 'I' for Inactive)
REMARK    1  A    between atoms: C_2  and  C_3 
REMARK    2  A    between atoms: C_6  and  C_7 
REMARK       I    between atoms: C_7  and  N_8 
REMARK    3  A    between atoms: N_8  and  N_9 
ROOT
HETATM    1  C   UNL     1       2.913   0.283  -1.389  1.00  0.00    -0.021 A 
HETATM    2  C   UNL     1       2.926   1.553  -1.996  1.00  0.00     0.011 A 
HETATM    3  C   UNL     1       3.120   1.706  -3.378  1.00  0.00     0.018 A 
HETATM    4  C   UNL     1       3.306   0.585  -4.192  1.00  0.00     0.033 A 
HETATM    5  C   UNL     1       3.275  -0.684  -3.600  1.00  0.00     0.018 A 
HETATM    6  C   UNL     1       3.073  -0.833  -2.225  1.00  0.00     0.011 A 
ENDROOT
BRANCH   4   7
HETATM    7  C   UNL     1       3.496   0.651  -5.675  1.00  0.00     0.266 C 
HETATM    8  N   UNL     1       3.718   1.906  -6.238  1.00  0.00    -0.284 N 
HETATM    9  H   UNL     1       3.850   2.726  -5.659  1.00  0.00     0.184 HD
HETATM   10  O   UNL     1       3.452  -0.394  -6.322  1.00  0.00    -0.266 OA
BRANCH   8  11
HETATM   11  N   UNL     1       3.910   2.092  -7.630  1.00  0.00    -0.220 NA
HETATM   12  C   UNL     1       5.142   1.450  -8.164  1.00  0.00     0.153 C 
HETATM   13  C   UNL     1       4.753   0.875  -9.488  1.00  0.00    -0.036 A 
HETATM   14  C   UNL     1       3.376   0.986  -9.665  1.00  0.00    -0.036 A 
HETATM   15  C   UNL     1       5.551   0.261 -10.439  1.00  0.00     0.009 A 
HETATM   16  C   UNL     1       2.765   1.654  -8.474  1.00  0.00     0.153 C 
HETATM   17  C   UNL     1       2.756   0.482 -10.795  1.00  0.00     0.009 A 
HETATM   18  C   UNL     1       3.549  -0.139 -11.763  1.00  0.00     0.001 A 
HETATM   19  C   UNL     1       4.938  -0.248 -11.586  1.00  0.00     0.001 A 
ENDBRANCH   8  11
ENDBRANCH   4   7
BRANCH   1  20
HETATM   20  C   UNL     1       2.647   0.117   0.105  1.00  0.00     0.139 A 
HETATM   21  C   UNL     1       1.159  -0.079   0.388  1.00  0.00     0.054 C 
HETATM   22  N   UNL     1       3.175   1.225   0.882  1.00  0.00    -0.321 N 
HETATM   23  C   UNL     1       4.133   0.842   1.784  1.00  0.00     0.324 A 
HETATM   24  H   UNL     1       2.854   2.181   0.849  1.00  0.00     0.165 HD
HETATM   25  O   UNL     1       4.680   1.588   2.574  1.00  0.00    -0.247 OA
HETATM   26  N   UNL     1       4.332  -0.487   1.669  1.00  0.00    -0.277 N 
HETATM   27  C   UNL     1       3.462  -1.025   0.772  1.00  0.00     0.258 A 
HETATM   28  H   UNL     1       4.947  -1.019   2.260  1.00  0.00     0.173 HD
HETATM   29  O   UNL     1       3.346  -2.226   0.571  1.00  0.00    -0.270 OA
ENDBRANCH   1  20
TORSDOF 3
