REMARK  5 active torsions:
REMARK  status: ('A' for Active; 'I' for Inactive)
REMARK    1  A    between atoms: O_2  and  C_3 
REMARK    2  A    between atoms: C_6  and  N_7 
REMARK       I    between atoms: N_7  and  C_8 
REMARK    3  A    between atoms: C_8  and  C_9 
REMARK    4  A    between atoms: C_9  and  N_10 
REMARK    5  A    between atoms: N_10  and  C_11 
ROOT
HETATM    1  C   UNL     1       5.731   0.470   5.290  1.00  0.00     0.195 C 
ENDROOT
BRANCH   1   2
HETATM    2  C   UNL     1       5.489   1.985   5.276  1.00  0.00     0.235 C 
HETATM    3  N   UNL     1       6.435   2.683   4.543  1.00  0.00    -0.326 N 
HETATM    4  H   UNL     1       7.192   2.114   4.172  1.00  0.00     0.169 HD
HETATM    5  O   UNL     1       4.542   2.468   5.894  1.00  0.00    -0.272 OA
BRANCH   3   6
HETATM    6  C   UNL     1       6.465   4.066   4.277  1.00  0.00     0.034 A 
HETATM    7  C   UNL     1       5.504   4.967   4.742  1.00  0.00     0.032 A 
HETATM    8  C   UNL     1       5.586   6.332   4.435  1.00  0.00     0.039 A 
HETATM    9  C   UNL     1       6.633   6.815   3.655  1.00  0.00     0.068 A 
HETATM   10  C   UNL     1       7.592   5.918   3.181  1.00  0.00     0.039 A 
HETATM   11  C   UNL     1       7.512   4.554   3.491  1.00  0.00     0.032 A 
BRANCH   9  12
HETATM   12  O   UNL     1       6.827   8.118   3.287  1.00  0.00    -0.356 OA
HETATM   13  C   UNL     1       5.918   9.074   3.821  1.00  0.00     0.210 C 
ENDBRANCH   9  12
ENDBRANCH   3   6
ENDBRANCH   1   2
BRANCH   1  14
HETATM   14  N   UNL     1       6.527   0.027   4.111  1.00  0.00    -0.283 NA
HETATM   15  H   UNL     1       6.168   0.491   3.275  1.00  0.00     0.128 HD
BRANCH  14  16
HETATM   16  C   UNL     1       6.355  -1.385   3.920  1.00  0.00     0.019 A 
HETATM   17  C   UNL     1       6.914  -2.352   4.803  1.00  0.00    -0.005 A 
HETATM   18  C   UNL     1       6.550  -3.714   4.644  1.00  0.00    -0.024 A 
HETATM   19  C   UNL     1       7.828  -2.037   5.835  1.00  0.00     0.014 A 
HETATM   20  C   UNL     1       7.048  -4.684   5.530  1.00  0.00     0.012 A 
HETATM   21  C   UNL     1       5.690  -4.092   3.602  1.00  0.00     0.012 A 
HETATM   22  C   UNL     1       7.919  -4.335   6.560  1.00  0.00     0.001 A 
HETATM   23  C   UNL     1       8.319  -3.013   6.706  1.00  0.00     0.001 A 
HETATM   24  C   UNL     1       5.184  -3.146   2.716  1.00  0.00     0.003 A 
HETATM   25  C   UNL     1       5.508  -1.803   2.877  1.00  0.00     0.024 A 
ENDBRANCH  14  16
ENDBRANCH   1  14
TORSDOF 5
