REMARK  5 active torsions:
REMARK  status: ('A' for Active; 'I' for Inactive)
REMARK    1  A    between atoms: C_5  and  C_6 
REMARK    2  A    between atoms: C_6  and  O_7 
REMARK    3  A    between atoms: O_7  and  C_8 
REMARK    4  A    between atoms: C_12  and  C_13 
REMARK    5  A    between atoms: C_30  and  O_31 
ROOT
HETATM    1  C   UNL     1       2.450   6.776   3.518  1.00  0.00     0.130 A 
HETATM    2  C   UNL     1       2.404   7.861   2.635  1.00  0.00     0.048 A 
HETATM    3 BR   UNL     1       1.454   9.458   3.036  1.00  0.00    -0.048 Br
HETATM    4  C   UNL     1       3.019   7.776   1.384  1.00  0.00     0.033 A 
HETATM    5  C   UNL     1       3.651   6.594   0.962  1.00  0.00    -0.012 A 
HETATM    6  C   UNL     1       3.697   5.521   1.874  1.00  0.00     0.050 A 
HETATM    7  C   UNL     1       3.079   5.590   3.131  1.00  0.00     0.104 A 
ENDROOT
BRANCH   5   8
HETATM    8  C   UNL     1       4.208   6.401  -0.448  1.00  0.00     0.219 C 
HETATM    9  N   UNL     1       3.509   5.332  -1.127  1.00  0.00    -0.332 N 
HETATM   10  C   UNL     1       2.272   5.514  -1.690  1.00  0.00     0.256 C 
HETATM   11  H   UNL     1       3.705   4.382  -0.850  1.00  0.00     0.165 HD
HETATM   12  O   UNL     1       1.515   4.578  -1.923  1.00  0.00    -0.267 OA
HETATM   13  C   UNL     1       1.938   6.894  -2.004  1.00  0.00     0.073 A 
HETATM   14  C   UNL     1       2.905   7.859  -1.836  1.00  0.00     0.088 A 
HETATM   15  C   UNL     1       0.700   7.456  -2.443  1.00  0.00    -0.023 A 
HETATM   16  S   UNL     1       2.378   9.405  -2.306  1.00  0.00    -0.074 SA
HETATM   17  N   UNL     1       4.114   7.588  -1.288  1.00  0.00    -0.358 N 
HETATM   18  C   UNL     1       0.808   8.824  -2.622  1.00  0.00     0.018 A 
HETATM   19  C   UNL     1      -0.312   9.732  -2.993  1.00  0.00     0.281 C 
HETATM   20  N   UNL     1      -1.529   8.955  -3.486  1.00  0.00    -0.070 N 
HETATM   21  C   UNL     1      -1.785   7.705  -2.646  1.00  0.00     0.239 C 
HETATM   22  H   UNL     1      -2.336   9.574  -3.340  1.00  0.00     0.279 HD
HETATM   23  C   UNL     1      -1.476   8.679  -4.960  1.00  0.00     0.270 C 
HETATM   24  C   UNL     1      -0.593   6.733  -2.671  1.00  0.00     0.068 C 
HETATM   25  H   UNL     1       4.717   8.354  -1.001  1.00  0.00     0.162 HD
ENDBRANCH   5   8
BRANCH   7  26
HETATM   26  O   UNL     1       3.191   4.448   3.874  1.00  0.00    -0.353 OA
HETATM   27  C   UNL     1       2.029   4.066   4.602  1.00  0.00     0.210 C 
ENDBRANCH   7  26
BRANCH   1  28
HETATM   28  O   UNL     1       1.809   6.871   4.755  1.00  0.00    -0.271 OA
BRANCH  28  29
HETATM   29  C   UNL     1       2.533   7.601   5.680  1.00  0.00     0.298 C 
HETATM   30  O   UNL     1       3.686   7.988   5.574  1.00  0.00    -0.259 OA
BRANCH  29  31
HETATM   31  C   UNL     1       1.635   7.964   6.809  1.00  0.00     0.040 A 
HETATM   32  C   UNL     1       1.993   9.056   7.609  1.00  0.00     0.018 A 
HETATM   33  C   UNL     1       1.148   9.481   8.637  1.00  0.00     0.007 A 
HETATM   34  C   UNL     1      -0.064   8.823   8.877  1.00  0.00    -0.062 A 
HETATM   35  C   UNL     1      -0.968   9.269   9.988  1.00  0.00     0.048 C 
HETATM   36  C   UNL     1      -0.403   7.710   8.098  1.00  0.00     0.007 A 
HETATM   37  C   UNL     1       0.438   7.283   7.067  1.00  0.00     0.018 A 
ENDBRANCH  29  31
ENDBRANCH  28  29
ENDBRANCH   1  28
TORSDOF 5
