REMARK  8 active torsions:
REMARK  status: ('A' for Active; 'I' for Inactive)
REMARK    1  A    between atoms: C_6  and  C_7 
REMARK    2  A    between atoms: C_12  and  C_13 
REMARK    3  A    between atoms: C_13  and  N_14 
REMARK    4  A    between atoms: N_14  and  C_16 
REMARK    5  A    between atoms: N_14  and  C_23 
REMARK    6  A    between atoms: C_16  and  C_17 
REMARK    7  A    between atoms: C_23  and  C_24 
REMARK    8  A    between atoms: C_24  and  O_25 
ROOT
HETATM    1  C   UNL     1       7.333  -0.537   0.973  1.00  0.00     0.069 A 
HETATM    2  N   UNL     1       7.864   0.730   0.928  1.00  0.00    -0.277 N 
HETATM    3  H   UNL     1       7.926   1.410   1.681  1.00  0.00     0.189 HD
HETATM    4  N   UNL     1       8.365   1.057  -0.272  1.00  0.00    -0.186 NA
HETATM    5  C   UNL     1       8.200  -0.042  -1.002  1.00  0.00     0.149 A 
HETATM    6  C   UNL     1       7.524  -1.065  -0.298  1.00  0.00     0.016 A 
ENDROOT
BRANCH   6   7
HETATM    7  C   UNL     1       7.142  -2.396  -0.828  1.00  0.00     0.277 C 
BRANCH   7   8
HETATM    8  N   UNL     1       5.657  -2.638  -0.872  1.00  0.00    -0.061 N 
HETATM    9  H   UNL     1       5.304  -2.394   0.074  1.00  0.00     0.280 HD
BRANCH   8  10
HETATM   10  C   UNL     1       4.885  -1.735  -1.801  1.00  0.00     0.273 C 
BRANCH  10  11
HETATM   11  C   UNL     1       5.339  -1.727  -3.238  1.00  0.00    -0.033 A 
HETATM   12  C   UNL     1       5.127  -2.827  -4.083  1.00  0.00     0.009 A 
HETATM   13  C   UNL     1       5.576  -2.806  -5.405  1.00  0.00     0.001 A 
HETATM   14  C   UNL     1       6.232  -1.683  -5.903  1.00  0.00     0.000 A 
HETATM   15  C   UNL     1       6.431  -0.576  -5.084  1.00  0.00     0.001 A 
HETATM   16  C   UNL     1       5.983  -0.594  -3.762  1.00  0.00     0.009 A 
ENDBRANCH  10  11
ENDBRANCH   8  10
BRANCH   8  17
HETATM   17  C   UNL     1       5.293  -4.108  -0.975  1.00  0.00     0.261 C 
BRANCH  17  18
HETATM   18  C   UNL     1       5.232  -4.681   0.446  1.00  0.00     0.192 C 
BRANCH  18  19
HETATM   19  O   UNL     1       4.582  -3.697   1.256  1.00  0.00    -0.399 OA
HETATM   20  H   UNL     1       4.547  -4.041   2.172  1.00  0.00     0.209 HD
ENDBRANCH  18  19
ENDBRANCH  17  18
ENDBRANCH   8  17
ENDBRANCH   7   8
ENDBRANCH   6   7
BRANCH   1  21
HETATM   21  C   UNL     1       6.764  -1.095   2.190  1.00  0.00    -0.007 A 
HETATM   22  C   UNL     1       5.690  -0.462   2.827  1.00  0.00     0.021 A 
HETATM   23  C   UNL     1       5.136  -0.984   4.008  1.00  0.00    -0.055 A 
HETATM   24  C   UNL     1       5.681  -2.157   4.567  1.00  0.00    -0.056 A 
HETATM   25  C   UNL     1       4.002  -0.250   4.674  1.00  0.00     0.049 C 
HETATM   26  C   UNL     1       5.126  -2.762   5.830  1.00  0.00     0.049 C 
HETATM   27  C   UNL     1       6.753  -2.790   3.921  1.00  0.00     0.008 A 
HETATM   28  C   UNL     1       7.293  -2.261   2.747  1.00  0.00     0.014 A 
ENDBRANCH   1  21
TORSDOF 8
