REMARK  4 active torsions:
REMARK  status: ('A' for Active; 'I' for Inactive)
REMARK    1  A    between atoms: C_3  and  N_4 
REMARK       I    between atoms: N_4  and  C_5 
REMARK       I    between atoms: C_5  and  N_6 
REMARK    2  A    between atoms: N_6  and  C_7 
REMARK    3  A    between atoms: C_7  and  C_8 
REMARK    4  A    between atoms: C_11  and  C_12 
ROOT
HETATM    1  N   UNL     1       2.438   4.348  -0.521  1.00  0.00    -0.309 N 
HETATM    2  C   UNL     1       3.355   3.522   0.095  1.00  0.00     0.321 C 
HETATM    3  N   UNL     1       4.628   3.791  -0.361  1.00  0.00    -0.335 N 
HETATM    4  O   UNL     1       3.134   2.711   0.982  1.00  0.00    -0.247 OA
HETATM    5  H   UNL     1       2.832   5.253  -0.735  1.00  0.00     0.170 HD
HETATM    6  H   UNL     1       4.704   4.088  -1.324  1.00  0.00     0.164 HD
ENDROOT
BRANCH   3   7
HETATM    7  C   UNL     1       5.773   3.133   0.240  1.00  0.00     0.213 C 
BRANCH   7   8
HETATM    8  C   UNL     1       6.252   1.958  -0.533  1.00  0.00     0.190 A 
HETATM    9  O   UNL     1       5.370   1.297  -1.336  1.00  0.00    -0.194 OA
HETATM   10  N   UNL     1       6.079   0.254  -1.931  1.00  0.00    -0.106 NA
HETATM   11  C   UNL     1       7.314   0.367  -1.415  1.00  0.00     0.189 A 
HETATM   12  N   UNL     1       7.459   1.437  -0.556  1.00  0.00    -0.202 NA
BRANCH  11  13
HETATM   13  C   UNL     1       8.419  -0.542  -1.707  1.00  0.00     0.014 A 
HETATM   14  C   UNL     1       8.275  -1.593  -2.624  1.00  0.00     0.015 A 
HETATM   15  C   UNL     1       9.339  -2.462  -2.883  1.00  0.00     0.001 A 
HETATM   16  C   UNL     1      10.558  -2.291  -2.229  1.00  0.00     0.000 A 
HETATM   17  C   UNL     1      10.716  -1.250  -1.316  1.00  0.00     0.001 A 
HETATM   18  C   UNL     1       9.653  -0.381  -1.058  1.00  0.00     0.015 A 
ENDBRANCH  11  13
ENDBRANCH   7   8
ENDBRANCH   3   7
BRANCH   1  19
HETATM   19  C   UNL     1       1.050   4.346  -0.243  1.00  0.00     0.042 A 
HETATM   20  C   UNL     1       0.257   3.189  -0.145  1.00  0.00    -0.035 A 
HETATM   21  C   UNL     1       0.760   1.798  -0.416  1.00  0.00     0.050 C 
HETATM   22  C   UNL     1      -1.101   3.328   0.204  1.00  0.00     0.009 A 
HETATM   23  C   UNL     1      -1.675   4.584   0.395  1.00  0.00     0.001 A 
HETATM   24  C   UNL     1      -0.903   5.726   0.230  1.00  0.00     0.002 A 
HETATM   25  C   UNL     1       0.448   5.607  -0.098  1.00  0.00     0.030 A 
ENDBRANCH   1  19
TORSDOF 4
