REMARK  9 active torsions:
REMARK  status: ('A' for Active; 'I' for Inactive)
REMARK    1  A    between atoms: C_4  and  C_5 
REMARK    2  A    between atoms: C_11  and  C_12 
REMARK    3  A    between atoms: C_15  and  C_16 
REMARK    4  A    between atoms: C_16  and  N_17 
REMARK    5  A    between atoms: N_17  and  C_18 
REMARK    6  A    between atoms: C_18  and  N_19 
REMARK    7  A    between atoms: N_19  and  C_20 
REMARK    8  A    between atoms: C_22  and  C_23 
REMARK    9  A    between atoms: C_23  and  O_24 
ROOT
HETATM    1  C   UNL     1       3.183  -2.528   0.769  1.00  0.00     0.067 C 
HETATM    2  C   UNL     1       2.884  -3.972   0.277  1.00  0.00     0.001 C 
HETATM    3  C   UNL     1       1.517  -4.042  -0.440  1.00  0.00     0.040 C 
HETATM    4  C   UNL     1       0.377  -3.698   0.532  1.00  0.00     0.206 C 
HETATM    5  N   UNL     1       1.014  -3.181   1.827  1.00  0.00    -0.065 N 
HETATM    6  H   UNL     1       0.262  -2.842   2.444  1.00  0.00     0.280 HD
HETATM    7  C   UNL     1       1.982  -2.031   1.604  1.00  0.00     0.246 C 
HETATM    8  C   UNL     1       2.789  -4.872   1.531  1.00  0.00     0.033 C 
HETATM    9  C   UNL     1       1.741  -4.327   2.510  1.00  0.00     0.236 C 
ENDROOT
BRANCH   4  10
HETATM   10  C   UNL     1      -0.709  -2.750  -0.017  1.00  0.00     0.155 C 
BRANCH  10  11
HETATM   11  N   UNL     1      -0.211  -1.489  -0.557  1.00  0.00    -0.365 N 
HETATM   12  H   UNL     1       0.500  -1.549  -1.277  1.00  0.00     0.161 HD
BRANCH  11  13
HETATM   13  C   UNL     1      -0.916  -0.316  -0.603  1.00  0.00     0.172 C 
HETATM   14  S   UNL     1      -1.889   0.234   0.635  1.00  0.00    -0.041 SA
BRANCH  13  15
HETATM   15  N   UNL     1      -0.687   0.489  -1.687  1.00  0.00    -0.333 N 
HETATM   16  H   UNL     1      -0.973   1.456  -1.554  1.00  0.00     0.168 HD
BRANCH  15  17
HETATM   17  C   UNL     1      -0.233   0.158  -2.985  1.00  0.00     0.035 A 
HETATM   18  C   UNL     1      -0.262  -1.141  -3.493  1.00  0.00     0.047 A 
HETATM   19  C   UNL     1       0.257  -1.435  -4.760  1.00  0.00     0.041 A 
HETATM   20  C   UNL     1       0.748  -0.406  -5.562  1.00  0.00     0.018 A 
HETATM   21  C   UNL     1       0.716   0.909  -5.089  1.00  0.00     0.003 A 
HETATM   22  C   UNL     1       0.224   1.189  -3.808  1.00  0.00     0.029 A 
BRANCH  19  23
HETATM   23  C   UNL     1       0.286  -2.864  -5.161  1.00  0.00     0.293 C 
HETATM   24  O   UNL     1       0.185  -3.773  -4.349  1.00  0.00    -0.259 OA
BRANCH  23  25
HETATM   25  O   UNL     1       0.410  -2.986  -6.501  1.00  0.00    -0.323 OA
HETATM   26  C   UNL     1       0.390  -4.337  -6.967  1.00  0.00     0.213 C 
ENDBRANCH  23  25
ENDBRANCH  19  23
ENDBRANCH  15  17
ENDBRANCH  13  15
ENDBRANCH  11  13
ENDBRANCH  10  11
ENDBRANCH   4  10
BRANCH   1  27
HETATM   27  C   UNL     1       3.584  -1.560  -0.313  1.00  0.00     0.038 A 
HETATM   28  N   UNL     1       4.067  -0.290  -0.057  1.00  0.00    -0.277 N 
HETATM   29  C   UNL     1       4.301   0.346   1.221  1.00  0.00     0.179 C 
HETATM   30  N   UNL     1       4.352   0.408  -1.163  1.00  0.00    -0.170 NA
HETATM   31  C   UNL     1       4.166  -0.455  -2.164  1.00  0.00     0.112 A 
HETATM   32  C   UNL     1       3.669  -1.687  -1.689  1.00  0.00     0.063 A 
BRANCH  31  33
HETATM   33  C   UNL     1       4.483  -0.135  -3.584  1.00  0.00     0.105 A 
HETATM   34  O   UNL     1       4.297  -0.993  -4.635  1.00  0.00    -0.320 OA
HETATM   35  C   UNL     1       4.743  -0.361  -5.752  1.00  0.00     0.142 A 
HETATM   36  C   UNL     1       5.207   0.895  -5.445  1.00  0.00     0.027 A 
HETATM   37  C   UNL     1       5.034   1.045  -4.048  1.00  0.00     0.041 A 
ENDBRANCH  31  33
ENDBRANCH   1  27
TORSDOF 9
