REMARK  6 active torsions:
REMARK  status: ('A' for Active; 'I' for Inactive)
REMARK    1  A    between atoms: C_2  and  S_3 
REMARK    2  A    between atoms: S_3  and  C_4 
REMARK    3  A    between atoms: C_5  and  C_6 
REMARK       I    between atoms: C_6  and  N_7 
REMARK    4  A    between atoms: N_7  and  C_8 
REMARK    5  A    between atoms: N_9  and  C_10 
REMARK    6  A    between atoms: C_22  and  C_23 
ROOT
HETATM    1  C   UNL     1       2.883  -0.176  -1.857  1.00  0.00     0.152 A 
HETATM    2  N   UNL     1       3.434  -1.449  -1.913  1.00  0.00    -0.044 N 
HETATM    3  N   UNL     1       2.485  -2.434  -1.856  1.00  0.00    -0.148 NA
HETATM    4  C   UNL     1       1.332  -1.763  -1.743  1.00  0.00     0.115 A 
HETATM    5  C   UNL     1       1.522  -0.367  -1.773  1.00  0.00     0.087 A 
ENDROOT
BRANCH   1   6
HETATM    6  N   UNL     1       3.658   0.976  -1.845  1.00  0.00    -0.307 N 
HETATM    7  C   UNL     1       3.121   2.237  -1.683  1.00  0.00     0.258 C 
HETATM    8  O   UNL     1       1.932   2.537  -1.671  1.00  0.00    -0.267 OA
HETATM    9  H   UNL     1       4.674   0.862  -1.876  1.00  0.00     0.170 HD
BRANCH   7  10
HETATM   10  C   UNL     1       4.112   3.296  -1.383  1.00  0.00     0.049 A 
HETATM   11  C   UNL     1       5.190   3.623  -2.218  1.00  0.00     0.016 A 
HETATM   12  C   UNL     1       6.090   4.614  -1.796  1.00  0.00     0.019 A 
HETATM   13  C   UNL     1       5.906   5.281  -0.581  1.00  0.00     0.001 A 
HETATM   14  C   UNL     1       4.818   4.970   0.228  1.00  0.00     0.001 A 
HETATM   15  C   UNL     1       3.921   3.982  -0.172  1.00  0.00     0.018 A 
BRANCH  11  16
HETATM   16  S   UNL     1       5.474   2.900  -3.828  1.00  0.00    -0.129 SA
BRANCH  16  17
HETATM   17  C   UNL     1       4.326   3.940  -4.793  1.00  0.00     0.075 C 
HETATM   18  C   UNL     1       4.648   3.841  -6.273  1.00  0.00     0.016 C 
ENDBRANCH  16  17
ENDBRANCH  11  16
ENDBRANCH   7  10
ENDBRANCH   1   6
BRANCH   2  19
HETATM   19  C   UNL     1       4.795  -1.811  -1.966  1.00  0.00     0.732 A 
HETATM   20  N   UNL     1       5.765  -0.952  -1.969  1.00  0.00    -0.067 NA
HETATM   21  C   UNL     1       7.039  -1.478  -2.010  1.00  0.00     0.065 A 
HETATM   22  C   UNL     1       7.316  -2.796  -2.043  1.00  0.00     0.036 A 
HETATM   23  C   UNL     1       8.152  -0.454  -1.993  1.00  0.00     0.060 C 
HETATM   24  C   UNL     1       8.699  -3.377  -2.095  1.00  0.00     0.046 C 
HETATM   25  C   UNL     1       6.178  -3.748  -2.030  1.00  0.00     0.268 A 
HETATM   26  C   UNL     1       9.773  -2.334  -2.408  1.00  0.00     0.005 C 
HETATM   27  C   UNL     1       9.521  -1.041  -1.643  1.00  0.00     0.006 C 
HETATM   28  O   UNL     1       6.336  -4.962  -2.037  1.00  0.00    -0.267 OA
HETATM   29  N   UNL     1       4.950  -3.168  -2.002  1.00  0.00    -0.152 N 
HETATM   30  H   UNL     1       4.126  -3.761  -1.983  1.00  0.00     0.188 HD
ENDBRANCH   2  19
BRANCH   4  31
HETATM   31  C   UNL     1       0.014  -2.441  -1.572  1.00  0.00     0.105 A 
HETATM   32  O   UNL     1      -1.181  -1.787  -1.440  1.00  0.00    -0.320 OA
HETATM   33  C   UNL     1      -2.143  -2.730  -1.274  1.00  0.00     0.142 A 
HETATM   34  C   UNL     1      -1.592  -3.989  -1.299  1.00  0.00     0.027 A 
HETATM   35  C   UNL     1      -0.201  -3.804  -1.495  1.00  0.00     0.041 A 
ENDBRANCH   4  31
TORSDOF 6
