REMARK  7 active torsions:
REMARK  status: ('A' for Active; 'I' for Inactive)
REMARK    1  A    between atoms: C_5  and  O_6 
REMARK    2  A    between atoms: O_6  and  C_7 
REMARK    3  A    between atoms: C_7  and  C_8 
REMARK    4  A    between atoms: C_8  and  N_9 
REMARK       I    between atoms: N_9  and  C_10 
REMARK       I    between atoms: C_10  and  N_11 
REMARK    5  A    between atoms: N_11  and  C_12 
REMARK    6  A    between atoms: N_15  and  S_16 
REMARK    7  A    between atoms: S_16  and  C_17 
ROOT
HETATM    1  C   UNL     1      11.250   0.337  -1.712  1.00  0.00     0.103 A 
HETATM    2  S   UNL     1      12.495   1.163  -2.630  1.00  0.00    -0.032 SA
HETATM    3  C   UNL     1      11.474   2.606  -2.825  1.00  0.00     0.185 A 
HETATM    4  N   UNL     1      11.763   3.718  -3.409  1.00  0.00    -0.134 NA
HETATM    5  N   UNL     1      10.276   2.333  -2.207  1.00  0.00    -0.336 N 
HETATM    6  C   UNL     1      10.155   1.107  -1.559  1.00  0.00     0.041 A 
HETATM    7  C   UNL     1       8.954   0.869  -0.703  1.00  0.00     0.071 C 
HETATM    8  H   UNL     1       9.581   3.057  -2.087  1.00  0.00     0.168 HD
ENDROOT
BRANCH   1   9
HETATM    9  N   UNL     1      11.603  -0.891  -1.256  1.00  0.00    -0.301 N 
HETATM   10  C   UNL     1      10.943  -2.008  -0.864  1.00  0.00     0.321 C 
HETATM   11  N   UNL     1       9.617  -2.108  -1.176  1.00  0.00    -0.341 N 
HETATM   12  O   UNL     1      11.581  -2.916  -0.336  1.00  0.00    -0.247 OA
HETATM   13  H   UNL     1       9.328  -1.502  -1.929  1.00  0.00     0.164 HD
HETATM   14  H   UNL     1      12.603  -1.063  -1.271  1.00  0.00     0.171 HD
BRANCH  11  15
HETATM   15  C   UNL     1       8.991  -3.423  -1.165  1.00  0.00     0.151 C 
BRANCH  15  16
HETATM   16  C   UNL     1       7.566  -3.447  -0.614  1.00  0.00     0.195 C 
BRANCH  16  17
HETATM   17  O   UNL     1       7.027  -4.727  -0.951  1.00  0.00    -0.350 OA
BRANCH  17  18
HETATM   18  C   UNL     1       5.837  -5.106  -0.403  1.00  0.00     0.068 A 
HETATM   19  C   UNL     1       5.397  -6.369  -0.807  1.00  0.00     0.037 A 
HETATM   20  C   UNL     1       4.201  -6.901  -0.320  1.00  0.00     0.009 A 
HETATM   21  C   UNL     1       3.424  -6.169   0.580  1.00  0.00    -0.062 A 
HETATM   22  C   UNL     1       2.153  -6.741   1.135  1.00  0.00     0.048 C 
HETATM   23  C   UNL     1       3.870  -4.906   0.988  1.00  0.00     0.009 A 
HETATM   24  C   UNL     1       5.068  -4.372   0.495  1.00  0.00     0.037 A 
ENDBRANCH  17  18
ENDBRANCH  16  17
ENDBRANCH  15  16
ENDBRANCH  11  15
ENDBRANCH   1   9
BRANCH   4  25
HETATM   25  S   UNL     1      13.212   3.912  -4.106  1.00  0.00     0.285 S 
HETATM   26  O   UNL     1      14.237   3.879  -3.079  1.00  0.00    -0.198 OA
HETATM   27  O   UNL     1      13.300   3.070  -5.283  1.00  0.00    -0.198 OA
BRANCH  25  28
HETATM   28  C   UNL     1      13.187   5.585  -4.726  1.00  0.00     0.081 A 
HETATM   29  C   UNL     1      14.295   6.414  -4.521  1.00  0.00     0.025 A 
HETATM   30  C   UNL     1      14.283   7.714  -5.024  1.00  0.00     0.002 A 
HETATM   31  C   UNL     1      13.168   8.181  -5.723  1.00  0.00     0.000 A 
HETATM   32  C   UNL     1      12.062   7.350  -5.921  1.00  0.00     0.002 A 
HETATM   33  C   UNL     1      12.067   6.047  -5.422  1.00  0.00     0.025 A 
ENDBRANCH  25  28
ENDBRANCH   4  25
TORSDOF 7
