REMARK  10 active torsions:
REMARK  status: ('A' for Active; 'I' for Inactive)
REMARK    1  A    between atoms: C_3  and  N_4 
REMARK    2  A    between atoms: C_5  and  S_6 
REMARK    3  A    between atoms: S_6  and  C_7 
REMARK    4  A    between atoms: C_7  and  C_8 
REMARK       I    between atoms: C_8  and  N_9 
REMARK    5  A    between atoms: N_9  and  C_10 
REMARK    6  A    between atoms: C_10  and  C_11 
REMARK    7  A    between atoms: C_11  and  C_12 
REMARK    8  A    between atoms: C_15  and  S_16 
REMARK    9  A    between atoms: S_16  and  N_17 
REMARK   10  A    between atoms: C_26  and  N_27 
ROOT
HETATM    1  N   UNL     1       2.244   2.033  -0.036  1.00  0.00    -0.275 N 
HETATM    2  C   UNL     1       2.900   3.042   0.605  1.00  0.00     0.177 A 
HETATM    3  N   UNL     1       2.483   4.327   0.658  1.00  0.00    -0.204 NA
HETATM    4  C   UNL     1       1.277   4.481   0.112  1.00  0.00     0.162 A 
HETATM    5  C   UNL     1       0.516   3.510  -0.504  1.00  0.00     0.081 A 
HETATM    6  C   UNL     1       1.029   2.208  -0.628  1.00  0.00     0.124 A 
HETATM    7  N   UNL     1       0.555   5.639   0.068  1.00  0.00    -0.260 N 
HETATM    8  H   UNL     1       0.815   6.551   0.429  1.00  0.00     0.191 HD
HETATM    9  N   UNL     1      -0.636   5.494  -0.529  1.00  0.00    -0.177 NA
HETATM   10  C   UNL     1      -0.678   4.201  -0.874  1.00  0.00     0.068 A 
HETATM   11  C   UNL     1      -1.890   3.673  -1.554  1.00  0.00     0.073 C 
ENDROOT
BRANCH   2  12
HETATM   12  S   UNL     1       4.463   2.745   1.455  1.00  0.00    -0.082 SA
BRANCH  12  13
HETATM   13  C   UNL     1       4.333   3.959   2.807  1.00  0.00     0.185 C 
BRANCH  13  14
HETATM   14  C   UNL     1       3.039   3.827   3.605  1.00  0.00     0.227 C 
HETATM   15  N   UNL     1       2.796   4.784   4.561  1.00  0.00    -0.360 N 
HETATM   16  H   UNL     1       1.895   4.692   5.022  1.00  0.00     0.162 HD
HETATM   17  O   UNL     1       2.219   2.926   3.421  1.00  0.00    -0.273 OA
BRANCH  15  18
HETATM   18  C   UNL     1       3.532   6.031   4.699  1.00  0.00     0.127 C 
BRANCH  18  19
HETATM   19  C   UNL     1       3.188   6.818   5.964  1.00  0.00     0.058 C 
BRANCH  19  20
HETATM   20  C   UNL     1       3.985   8.102   5.994  1.00  0.00    -0.057 A 
HETATM   21  C   UNL     1       3.471   9.269   5.409  1.00  0.00     0.009 A 
HETATM   22  C   UNL     1       4.252  10.424   5.332  1.00  0.00     0.025 A 
HETATM   23  C   UNL     1       5.550  10.416   5.848  1.00  0.00     0.074 A 
HETATM   24  C   UNL     1       6.071   9.265   6.443  1.00  0.00     0.025 A 
HETATM   25  C   UNL     1       5.287   8.113   6.519  1.00  0.00     0.009 A 
BRANCH  23  26
HETATM   26  S   UNL     1       6.580  11.842   5.643  1.00  0.00     0.239 S 
HETATM   27  O   UNL     1       7.962  11.444   5.774  1.00  0.00    -0.206 OA
HETATM   28  O   UNL     1       6.098  12.603   4.514  1.00  0.00    -0.206 OA
BRANCH  26  29
HETATM   29  N   UNL     1       6.217  12.742   7.010  1.00  0.00    -0.225 NA
HETATM   30  H   UNL     1       7.050  12.843   7.592  1.00  0.00     0.136 HD
HETATM   31  H   UNL     1       5.800  13.634   6.740  1.00  0.00     0.136 HD
ENDBRANCH  26  29
ENDBRANCH  23  26
ENDBRANCH  19  20
ENDBRANCH  18  19
ENDBRANCH  15  18
ENDBRANCH  13  14
ENDBRANCH  12  13
ENDBRANCH   2  12
BRANCH   1  32
HETATM   32  C   UNL     1       2.837   0.723  -0.083  1.00  0.00     0.051 A 
HETATM   33  C   UNL     1       3.821   0.431  -1.046  1.00  0.00    -0.035 A 
HETATM   34  C   UNL     1       4.379   1.445  -2.004  1.00  0.00     0.050 C 
HETATM   35  C   UNL     1       4.339  -0.871  -1.064  1.00  0.00     0.011 A 
HETATM   36  C   UNL     1       3.854  -1.845  -0.185  1.00  0.00     0.024 A 
HETATM   37  C   UNL     1       2.856  -1.528   0.736  1.00  0.00     0.036 A 
HETATM   38  C   UNL     1       2.337  -0.239   0.799  1.00  0.00     0.054 A 
HETATM   39 CL   UNL     1       2.250  -2.739   1.791  1.00  0.00    -0.084 Cl
ENDBRANCH   1  32
BRANCH   6  40
HETATM   40  N   UNL     1       0.358   1.195  -1.301  1.00  0.00    -0.384 N 
HETATM   41  H   UNL     1      -0.465   1.429  -1.846  1.00  0.00     0.157 HD
HETATM   42  H   UNL     1       0.810   0.331  -1.572  1.00  0.00     0.157 HD
ENDBRANCH   6  40
TORSDOF 10
