REMARK  4 active torsions:
REMARK  status: ('A' for Active; 'I' for Inactive)
REMARK    1  A    between atoms: C_9  and  C_10 
REMARK    2  A    between atoms: C_10  and  C_11 
REMARK       I    between atoms: C_11  and  N_12 
REMARK    3  A    between atoms: N_12  and  C_13 
REMARK    4  A    between atoms: C_15  and  C_16 
ROOT
HETATM    1  C   UNL     1       2.682   3.373   0.293  1.00  0.00     0.227 C 
HETATM    2  N   UNL     1       3.716   2.470   0.343  1.00  0.00    -0.327 N 
HETATM    3  O   UNL     1       2.814   4.593   0.190  1.00  0.00    -0.273 OA
HETATM    4  H   UNL     1       3.437   1.490   0.416  1.00  0.00     0.169 HD
ENDROOT
BRANCH   1   5
HETATM    5  C   UNL     1       1.274   2.809   0.355  1.00  0.00     0.165 C 
BRANCH   5   6
HETATM    6  C   UNL     1       1.011   1.331   0.581  1.00  0.00     0.074 A 
HETATM    7  C   UNL     1      -0.399   0.892   0.773  1.00  0.00     0.006 A 
HETATM    8  C   UNL     1      -1.489   1.771   0.739  1.00  0.00     0.014 A 
HETATM    9  C   UNL     1      -0.625  -0.466   0.992  1.00  0.00     0.046 A 
HETATM   10  C   UNL     1      -2.786   1.287   0.933  1.00  0.00     0.001 A 
HETATM   11  C   UNL     1      -3.004  -0.072   1.158  1.00  0.00     0.001 A 
HETATM   12  C   UNL     1      -1.923  -0.952   1.186  1.00  0.00     0.018 A 
HETATM   13  C   UNL     1       0.519  -1.388   1.008  1.00  0.00     0.272 A 
HETATM   14  O   UNL     1       0.375  -2.590   1.198  1.00  0.00    -0.266 OA
HETATM   15  N   UNL     1       1.753  -0.824   0.794  1.00  0.00    -0.243 N 
HETATM   16  N   UNL     1       2.009   0.495   0.587  1.00  0.00    -0.175 NA
HETATM   17  H   UNL     1       2.547  -1.458   0.800  1.00  0.00     0.192 HD
ENDBRANCH   5   6
ENDBRANCH   1   5
BRANCH   2  18
HETATM   18  C   UNL     1       5.101   2.720   0.318  1.00  0.00     0.035 A 
HETATM   19  C   UNL     1       5.669   3.994   0.242  1.00  0.00     0.047 A 
HETATM   20  C   UNL     1       7.070   4.175   0.226  1.00  0.00     0.071 A 
HETATM   21  C   UNL     1       7.893   3.046   0.286  1.00  0.00     0.049 A 
HETATM   22 CL   UNL     1       9.615   3.160   0.273  1.00  0.00    -0.083 Cl
HETATM   23  C   UNL     1       7.333   1.769   0.361  1.00  0.00     0.027 A 
HETATM   24  C   UNL     1       5.946   1.608   0.378  1.00  0.00     0.031 A 
BRANCH  20  25
HETATM   25  C   UNL     1       7.646   5.562   0.147  1.00  0.00     0.419 C 
HETATM   26  F   UNL     1       6.699   6.543   0.097  1.00  0.00    -0.166 F 
HETATM   27  F   UNL     1       8.426   5.875   1.220  1.00  0.00    -0.166 F 
HETATM   28  F   UNL     1       8.419   5.755  -0.958  1.00  0.00    -0.166 F 
ENDBRANCH  20  25
ENDBRANCH   2  18
TORSDOF 4
