REMARK  7 active torsions:
REMARK  status: ('A' for Active; 'I' for Inactive)
REMARK    1  A    between atoms: C_3  and  C_4 
REMARK       I    between atoms: C_4  and  N_5 
REMARK    2  A    between atoms: N_5  and  C_6 
REMARK    3  A    between atoms: C_6  and  C_7 
REMARK    4  A    between atoms: N_23  and  C_24 
REMARK    5  A    between atoms: C_24  and  C_25 
REMARK       I    between atoms: C_25  and  N_26 
REMARK    6  A    between atoms: N_26  and  C_27 
REMARK    7  A    between atoms: C_29  and  C_30 
ROOT
HETATM    1  C   UNL     1      -3.139  -3.635  -2.552  1.00  0.00     0.051 C 
HETATM    2  C   UNL     1      -2.768  -3.033  -3.875  1.00  0.00    -0.021 A 
HETATM    3  C   UNL     1      -2.260  -1.745  -4.043  1.00  0.00     0.081 A 
HETATM    4  S   UNL     1      -1.888  -1.428  -5.691  1.00  0.00    -0.063 SA
HETATM    5  C   UNL     1      -2.410  -2.960  -6.194  1.00  0.00     0.116 A 
HETATM    6  C   UNL     1      -2.902  -3.706  -5.147  1.00  0.00     0.075 A 
HETATM    7  C   UNL     1      -3.443  -5.021  -5.463  1.00  0.00     0.262 A 
HETATM    8  O   UNL     1      -4.011  -5.728  -4.637  1.00  0.00    -0.267 OA
HETATM    9  N   UNL     1      -3.299  -5.389  -6.801  1.00  0.00    -0.299 N 
HETATM   10  C   UNL     1      -2.738  -4.535  -7.734  1.00  0.00     0.214 A 
HETATM   11  N   UNL     1      -2.321  -3.336  -7.494  1.00  0.00    -0.235 NA
ENDROOT
BRANCH   3  12
HETATM   12  C   UNL     1      -2.031  -0.717  -3.022  1.00  0.00     0.259 C 
HETATM   13  N   UNL     1      -1.547   0.488  -3.486  1.00  0.00    -0.354 N 
HETATM   14  H   UNL     1      -1.506   0.605  -4.492  1.00  0.00     0.162 HD
HETATM   15  O   UNL     1      -2.265  -0.880  -1.826  1.00  0.00    -0.267 OA
BRANCH  13  16
HETATM   16  C   UNL     1      -1.417   1.652  -2.635  1.00  0.00     0.157 C 
BRANCH  16  17
HETATM   17  C   UNL     1      -0.745   2.879  -3.282  1.00  0.00     0.171 C 
HETATM   18  O   UNL     1      -1.565   3.418  -4.332  1.00  0.00    -0.339 OA
HETATM   19  C   UNL     1      -1.221   2.984  -5.585  1.00  0.00     0.102 A 
HETATM   20  C   UNL     1      -0.087   2.215  -5.854  1.00  0.00     0.102 A 
HETATM   21  C   UNL     1      -2.098   3.313  -6.617  1.00  0.00     0.039 A 
HETATM   22  O   UNL     1       0.799   1.827  -4.885  1.00  0.00    -0.346 OA
HETATM   23  C   UNL     1       0.150   1.743  -7.144  1.00  0.00     0.039 A 
HETATM   24  C   UNL     1       0.699   2.664  -3.732  1.00  0.00     0.209 C 
HETATM   25  C   UNL     1      -0.735   2.063  -8.174  1.00  0.00     0.003 A 
HETATM   26  C   UNL     1      -1.855   2.852  -7.912  1.00  0.00     0.003 A 
ENDBRANCH  16  17
ENDBRANCH  13  16
ENDBRANCH   3  12
BRANCH   9  27
HETATM   27  C   UNL     1      -3.703  -6.727  -7.212  1.00  0.00     0.236 C 
BRANCH  27  28
HETATM   28  C   UNL     1      -5.068  -6.820  -7.907  1.00  0.00     0.240 C 
HETATM   29  N   UNL     1      -5.770  -5.632  -7.996  1.00  0.00    -0.326 N 
HETATM   30  H   UNL     1      -5.425  -4.855  -7.445  1.00  0.00     0.169 HD
HETATM   31  O   UNL     1      -5.435  -7.903  -8.360  1.00  0.00    -0.271 OA
BRANCH  29  32
HETATM   32  C   UNL     1      -6.937  -5.379  -8.748  1.00  0.00     0.035 A 
HETATM   33  C   UNL     1      -7.547  -6.316  -9.587  1.00  0.00     0.045 A 
HETATM   34  C   UNL     1      -8.687  -5.982 -10.340  1.00  0.00     0.050 A 
HETATM   35  C   UNL     1      -9.213  -4.685 -10.243  1.00  0.00     0.016 A 
HETATM   36  C   UNL     1      -8.613  -3.746  -9.408  1.00  0.00     0.003 A 
HETATM   37  C   UNL     1      -7.482  -4.091  -8.665  1.00  0.00     0.029 A 
BRANCH  34  38
HETATM   38  C   UNL     1      -9.339  -6.989 -11.256  1.00  0.00     0.417 C 
HETATM   39  F   UNL     1      -8.774  -8.227 -11.212  1.00  0.00    -0.166 F 
HETATM   40  F   UNL     1     -10.660  -7.171 -10.974  1.00  0.00    -0.166 F 
HETATM   41  F   UNL     1      -9.289  -6.604 -12.563  1.00  0.00    -0.166 F 
ENDBRANCH  34  38
ENDBRANCH  29  32
ENDBRANCH  27  28
ENDBRANCH   9  27
TORSDOF 7
