REMARK  8 active torsions:
REMARK  status: ('A' for Active; 'I' for Inactive)
REMARK    1  A    between atoms: C_3  and  C_4 
REMARK    2  A    between atoms: C_4  and  C_5 
REMARK       I    between atoms: C_5  and  N_6 
REMARK    3  A    between atoms: N_6  and  C_7 
REMARK    4  A    between atoms: C_14  and  N_15 
REMARK       I    between atoms: N_15  and  C_16 
REMARK    5  A    between atoms: C_16  and  C_17 
REMARK    6  A    between atoms: C_26  and  C_27 
REMARK    7  A    between atoms: C_27  and  O_28 
REMARK    8  A    between atoms: C_30  and  O_31 
ROOT
HETATM    1  C   UNL     1      -0.972   2.259   5.836  1.00  0.00     0.216 C 
HETATM    2  C   UNL     1      -1.732   2.156   7.149  1.00  0.00    -0.098 C 
HETATM    3  C   UNL     1      -2.384   2.067   8.274  1.00  0.00     0.014 C 
ENDROOT
BRANCH   1   4
HETATM    4  N   UNL     1      -1.439   1.318   4.847  1.00  0.00    -0.351 N 
HETATM    5  C   UNL     1      -0.584   0.897   3.844  1.00  0.00     0.219 C 
HETATM    6  O   UNL     1       0.622   1.118   3.879  1.00  0.00    -0.274 OA
HETATM    7  H   UNL     1      -2.435   1.172   4.755  1.00  0.00     0.163 HD
BRANCH   5   8
HETATM    8  C   UNL     1      -1.251   0.098   2.739  1.00  0.00     0.114 C 
BRANCH   8   9
HETATM    9  C   UNL     1      -0.563   0.197   1.344  1.00  0.00     0.056 C 
HETATM   10  C   UNL     1      -0.771   1.579   0.545  1.00  0.00    -0.030 C 
HETATM   11  C   UNL     1      -2.251   2.046   0.700  1.00  0.00     0.016 C 
HETATM   12  C   UNL     1      -0.467   1.410  -1.014  1.00  0.00     0.012 C 
HETATM   13  C   UNL     1       0.101   2.744   1.114  1.00  0.00     0.013 C 
HETATM   14  C   UNL     1      -1.411   0.364  -1.658  1.00  0.00     0.055 C 
HETATM   15  C   UNL     1       1.077   1.274  -1.415  1.00  0.00     0.008 C 
HETATM   16  C   UNL     1      -1.421  -0.869  -0.835  1.00  0.00     0.012 C 
HETATM   17  C   UNL     1      -1.017  -0.977   0.482  1.00  0.00     0.056 C 
HETATM   18  S   UNL     1      -1.846  -2.392  -1.461  1.00  0.00    -0.055 SA
HETATM   19  N   UNL     1      -0.875  -2.286   0.922  1.00  0.00    -0.227 NA
HETATM   20  C   UNL     1      -1.199  -3.103  -0.049  1.00  0.00     0.174 C 
HETATM   21  C   UNL     1       1.229   1.901  -2.833  1.00  0.00     0.020 C 
HETATM   22  C   UNL     1       1.971   2.106  -0.445  1.00  0.00     0.128 C 
HETATM   23  C   UNL     1       1.201   3.257   0.186  1.00  0.00     0.033 C 
BRANCH  20  24
HETATM   24  N   UNL     1      -1.004  -4.443  -0.191  1.00  0.00    -0.300 N 
HETATM   25  C   UNL     1      -0.157  -5.159   0.620  1.00  0.00     0.281 C 
HETATM   26  O   UNL     1       0.219  -4.842   1.742  1.00  0.00    -0.265 OA
HETATM   27  H   UNL     1      -1.222  -4.831  -1.098  1.00  0.00     0.171 HD
BRANCH  25  28
HETATM   28  C   UNL     1       0.310  -6.368  -0.043  1.00  0.00     0.142 A 
HETATM   29  O   UNL     1      -0.158  -6.663  -1.302  1.00  0.00    -0.317 OA
HETATM   30  C   UNL     1       0.476  -7.791  -1.712  1.00  0.00     0.143 A 
HETATM   31  C   UNL     1       1.346  -8.233  -0.744  1.00  0.00     0.027 A 
HETATM   32  C   UNL     1       1.236  -7.322   0.334  1.00  0.00     0.045 A 
ENDBRANCH  25  28
ENDBRANCH  20  24
BRANCH  15  33
HETATM   33  C   UNL     1       1.652  -0.167  -1.491  1.00  0.00     0.176 C 
BRANCH  33  34
HETATM   34  O   UNL     1       1.127  -0.911  -2.586  1.00  0.00    -0.400 OA
HETATM   35  H   UNL     1       1.481  -1.812  -2.492  1.00  0.00     0.209 HD
ENDBRANCH  33  34
ENDBRANCH  15  33
BRANCH  22  36
HETATM   36  O   UNL     1       2.506   1.277   0.585  1.00  0.00    -0.395 OA
HETATM   37  H   UNL     1       2.872   1.840   1.290  1.00  0.00     0.210 HD
ENDBRANCH  22  36
ENDBRANCH   8   9
ENDBRANCH   5   8
ENDBRANCH   1   4
TORSDOF 8
