REMARK  5 active torsions:
REMARK  status: ('A' for Active; 'I' for Inactive)
REMARK    1  A    between atoms: C_2  and  C_3 
REMARK    2  A    between atoms: C_8  and  N_9 
REMARK       I    between atoms: N_9  and  C_10 
REMARK       I    between atoms: C_10  and  N_11 
REMARK    3  A    between atoms: N_11  and  C_12 
REMARK    4  A    between atoms: C_12  and  C_13 
REMARK    5  A    between atoms: C_13  and  C_14 
ROOT
HETATM    1  N   UNL     1       1.474  -2.275  -3.610  1.00  0.00    -0.305 N 
HETATM    2  C   UNL     1       2.485  -1.586  -2.986  1.00  0.00     0.320 C 
HETATM    3  N   UNL     1       2.099  -1.164  -1.729  1.00  0.00    -0.343 N 
HETATM    4  O   UNL     1       3.608  -1.377  -3.422  1.00  0.00    -0.247 OA
HETATM    5  H   UNL     1       0.667  -2.481  -3.044  1.00  0.00     0.171 HD
HETATM    6  H   UNL     1       1.116  -1.000  -1.566  1.00  0.00     0.164 HD
ENDROOT
BRANCH   3   7
HETATM    7  C   UNL     1       3.022  -0.425  -0.881  1.00  0.00     0.129 C 
BRANCH   7   8
HETATM    8  C   UNL     1       3.063   1.073  -1.204  1.00  0.00     0.059 C 
BRANCH   8   9
HETATM    9  C   UNL     1       1.806   1.797  -0.752  1.00  0.00    -0.045 A 
HETATM   10  C   UNL     1       1.594   2.188   0.602  1.00  0.00    -0.020 A 
HETATM   11  C   UNL     1       0.379   2.837   0.941  1.00  0.00    -0.025 A 
HETATM   12  C   UNL     1       2.529   1.974   1.643  1.00  0.00     0.013 A 
HETATM   13  C   UNL     1       0.139   3.237   2.267  1.00  0.00     0.012 A 
HETATM   14  C   UNL     1      -0.583   3.083  -0.049  1.00  0.00     0.012 A 
HETATM   15  C   UNL     1       1.080   3.008   3.268  1.00  0.00     0.001 A 
HETATM   16  C   UNL     1       2.275   2.377   2.957  1.00  0.00     0.001 A 
HETATM   17  C   UNL     1      -0.365   2.700  -1.370  1.00  0.00     0.001 A 
HETATM   18  C   UNL     1       0.819   2.061  -1.719  1.00  0.00     0.008 A 
ENDBRANCH   8   9
ENDBRANCH   7   8
ENDBRANCH   3   7
BRANCH   1  19
HETATM   19  C   UNL     1       1.517  -2.866  -4.866  1.00  0.00     0.095 A 
HETATM   20  C   UNL     1       0.491  -3.654  -5.355  1.00  0.00     0.107 A 
HETATM   21  O   UNL     1       0.812  -4.106  -6.594  1.00  0.00    -0.215 OA
HETATM   22  N   UNL     1       2.044  -3.619  -6.958  1.00  0.00    -0.131 NA
HETATM   23  C   UNL     1       2.472  -2.873  -5.928  1.00  0.00     0.087 A 
HETATM   24  C   UNL     1       3.790  -2.209  -6.062  1.00  0.00     0.075 C 
BRANCH  20  25
HETATM   25  C   UNL     1      -0.826  -4.104  -4.843  1.00  0.00     0.065 C 
HETATM   26  C   UNL     1      -1.971  -3.375  -5.526  1.00  0.00     0.012 C 
ENDBRANCH  20  25
ENDBRANCH   1  19
TORSDOF 5
