REMARK  2 active torsions:
REMARK  status: ('A' for Active; 'I' for Inactive)
REMARK    1  A    between atoms: N_4  and  C_5 
REMARK    2  A    between atoms: C_15  and  C_16 
REMARK       I    between atoms: C_16  and  N_17 
ROOT
HETATM    1  C   UNL     1       1.097  -0.589   0.958  1.00  0.00     0.073 C 
HETATM    2  C   UNL     1       2.519  -0.320   0.633  1.00  0.00     0.069 C 
HETATM    3  N   UNL     1       3.316  -1.308   0.198  1.00  0.00    -0.170 NA
HETATM    4  N   UNL     1       4.552  -0.737   0.061  1.00  0.00    -0.216 N 
HETATM    5  C   UNL     1       4.452   0.638   0.186  1.00  0.00     0.145 C 
HETATM    6  C   UNL     1       3.189   0.916   0.656  1.00  0.00     0.087 C 
HETATM    7  N   UNL     1       5.352   1.607  -0.103  1.00  0.00    -0.349 N 
HETATM    8  C   UNL     1       4.955   2.924   0.056  1.00  0.00     0.111 C 
HETATM    9  C   UNL     1       3.757   3.315   0.549  1.00  0.00     0.099 C 
HETATM   10  C   UNL     1       2.785   2.268   0.997  1.00  0.00     0.205 C 
HETATM   11  O   UNL     1       1.748   2.513   1.601  1.00  0.00    -0.286 OA
HETATM   12  H   UNL     1       6.210   1.445  -0.629  1.00  0.00     0.167 HD
ENDROOT
BRANCH   9  13
HETATM   13  C   UNL     1       3.565   4.782   0.681  1.00  0.00     0.264 C 
HETATM   14  N   UNL     1       2.443   5.373   0.126  1.00  0.00    -0.309 N 
HETATM   15  C   UNL     1       1.269   4.736  -0.542  1.00  0.00     0.093 C 
HETATM   16  C   UNL     1       2.255   6.778   0.036  1.00  0.00     0.044 A 
HETATM   17  C   UNL     1       0.179   5.826  -0.640  1.00  0.00     0.066 C 
HETATM   18  C   UNL     1       1.626   4.197  -1.929  1.00  0.00     0.033 C 
HETATM   19  C   UNL     1       0.980   7.071  -0.451  1.00  0.00    -0.029 A 
HETATM   20  C   UNL     1       0.554   8.378  -0.643  1.00  0.00     0.009 A 
HETATM   21  C   UNL     1       1.446   9.412  -0.360  1.00  0.00     0.001 A 
HETATM   22  C   UNL     1       2.730   9.127   0.122  1.00  0.00     0.002 A 
HETATM   23  C   UNL     1       3.139   7.805   0.328  1.00  0.00     0.030 A 
HETATM   24  O   UNL     1       4.481   5.410   1.221  1.00  0.00    -0.267 OA
ENDBRANCH   9  13
BRANCH   4  25
HETATM   25  C   UNL     1       5.702  -1.553  -0.134  1.00  0.00     0.060 A 
HETATM   26  C   UNL     1       5.536  -2.883  -0.550  1.00  0.00     0.031 A 
HETATM   27  C   UNL     1       6.647  -3.712  -0.720  1.00  0.00     0.002 A 
HETATM   28  C   UNL     1       7.926  -3.228  -0.459  1.00  0.00     0.000 A 
HETATM   29  C   UNL     1       8.098  -1.915  -0.023  1.00  0.00     0.002 A 
HETATM   30  C   UNL     1       6.991  -1.078   0.143  1.00  0.00     0.031 A 
ENDBRANCH   4  25
TORSDOF 2
