REMARK  2 active torsions:
REMARK  status: ('A' for Active; 'I' for Inactive)
REMARK    1  A    between atoms: C_2  and  C_3 
REMARK    2  A    between atoms: C_6  and  C_7 
ROOT
HETATM    1  C   UNL     1       4.351   4.525   3.048  1.00  0.00     0.119 C 
HETATM    2  S   UNL     1       3.079   5.701   3.586  1.00  0.00    -0.141 SA
HETATM    3  C   UNL     1       3.703   7.281   2.948  1.00  0.00     0.136 C 
HETATM    4  C   UNL     1       2.913   8.414   3.601  1.00  0.00     0.031 C 
HETATM    5  C   UNL     1       3.545   7.332   1.439  1.00  0.00     0.236 C 
HETATM    6  O   UNL     1       2.705   7.973   0.828  1.00  0.00    -0.272 OA
HETATM    7  N   UNL     1       4.503   6.672   0.610  1.00  0.00    -0.311 N 
HETATM    8  C   UNL     1       5.498   5.848   1.083  1.00  0.00     0.134 C 
HETATM    9  C   UNL     1       5.472   4.986   2.164  1.00  0.00     0.032 C 
HETATM   10  N   UNL     1       6.723   5.699   0.493  1.00  0.00    -0.262 N 
HETATM   11  H   UNL     1       7.075   6.136  -0.351  1.00  0.00     0.191 HD
HETATM   12  N   UNL     1       7.567   4.950   1.206  1.00  0.00    -0.178 NA
HETATM   13  C   UNL     1       6.818   4.479   2.208  1.00  0.00     0.062 C 
HETATM   14  C   UNL     1       7.417   3.509   3.165  1.00  0.00     0.073 C 
HETATM   15  H   UNL     1       4.472   6.938  -0.368  1.00  0.00     0.170 HD
ENDROOT
BRANCH   1  16
HETATM   16  C   UNL     1       3.754   3.328   2.316  1.00  0.00    -0.040 A 
HETATM   17  C   UNL     1       2.944   3.466   1.174  1.00  0.00     0.009 A 
HETATM   18  C   UNL     1       2.481   2.344   0.481  1.00  0.00     0.007 A 
HETATM   19  C   UNL     1       2.808   1.056   0.913  1.00  0.00    -0.059 A 
HETATM   20  C   UNL     1       3.588   0.906   2.064  1.00  0.00     0.007 A 
HETATM   21  C   UNL     1       4.049   2.027   2.760  1.00  0.00     0.009 A 
BRANCH  19  22
HETATM   22  C   UNL     1       2.367  -0.150   0.124  1.00  0.00     0.034 C 
HETATM   23  C   UNL     1       3.385  -0.514  -0.947  1.00  0.00     0.010 C 
ENDBRANCH  19  22
ENDBRANCH   1  16
TORSDOF 2
