REMARK  6 active torsions:
REMARK  status: ('A' for Active; 'I' for Inactive)
REMARK    1  A    between atoms: C_2  and  C_3 
REMARK    2  A    between atoms: C_6  and  N_7 
REMARK    3  A    between atoms: C_8  and  O_9 
REMARK    4  A    between atoms: C_8  and  C_10 
REMARK       I    between atoms: C_10  and  N_11 
REMARK    5  A    between atoms: N_11  and  C_12 
REMARK    6  A    between atoms: C_12  and  C_13 
ROOT
HETATM    1  N   UNL     1       3.390   4.667  -3.427  1.00  0.00    -0.254 N 
HETATM    2  C   UNL     1       4.538   5.528  -3.763  1.00  0.00     0.256 C 
HETATM    3  C   UNL     1       4.162   6.993  -3.694  1.00  0.00     0.034 A 
HETATM    4  C   UNL     1       2.857   7.333  -4.033  1.00  0.00     0.048 A 
HETATM    5  N   UNL     1       1.950   6.309  -4.294  1.00  0.00    -0.308 N 
HETATM    6  C   UNL     1       2.144   4.995  -3.955  1.00  0.00     0.330 C 
HETATM    7  O   UNL     1       1.202   4.218  -4.102  1.00  0.00    -0.246 OA
HETATM    8  C   UNL     1       5.076   8.017  -3.401  1.00  0.00     0.015 A 
HETATM    9  C   UNL     1       4.673   9.352  -3.437  1.00  0.00     0.001 A 
HETATM   10  C   UNL     1       3.363   9.676  -3.786  1.00  0.00     0.002 A 
HETATM   11  C   UNL     1       2.452   8.665  -4.095  1.00  0.00     0.030 A 
HETATM   12  H   UNL     1       1.001   6.538  -4.561  1.00  0.00     0.170 HD
ENDROOT
BRANCH   2  13
HETATM   13  O   UNL     1       5.627   5.330  -2.855  1.00  0.00    -0.359 OA
HETATM   14  H   UNL     1       6.103   4.547  -3.179  1.00  0.00     0.213 HD
ENDBRANCH   2  13
BRANCH   2  15
HETATM   15  C   UNL     1       5.090   5.217  -5.233  1.00  0.00     0.279 C 
HETATM   16  N   UNL     1       4.248   4.545  -6.104  1.00  0.00    -0.352 N 
HETATM   17  H   UNL     1       3.551   3.937  -5.695  1.00  0.00     0.162 HD
HETATM   18  O   UNL     1       6.209   5.591  -5.594  1.00  0.00    -0.268 OA
BRANCH  16  19
HETATM   19  C   UNL     1       4.681   4.253  -7.452  1.00  0.00     0.161 C 
BRANCH  19  20
HETATM   20  C   UNL     1       3.571   3.898  -8.417  1.00  0.00    -0.038 A 
HETATM   21  C   UNL     1       3.940   3.470  -9.708  1.00  0.00     0.048 A 
HETATM   22  C   UNL     1       2.947   3.181 -10.620  1.00  0.00     0.105 A 
HETATM   23  C   UNL     1       1.617   3.296 -10.301  1.00  0.00     0.105 A 
HETATM   24  O   UNL     1       3.140   2.773 -11.903  1.00  0.00    -0.323 OA
HETATM   25  O   UNL     1       0.803   2.972 -11.340  1.00  0.00    -0.323 OA
HETATM   26  C   UNL     1       1.209   3.709  -9.053  1.00  0.00     0.040 A 
HETATM   27  C   UNL     1       1.776   2.663 -12.360  1.00  0.00     0.352 A 
HETATM   28  C   UNL     1       2.196   4.021  -8.108  1.00  0.00     0.012 A 
ENDBRANCH  19  20
ENDBRANCH  16  19
ENDBRANCH   2  15
BRANCH   1  29
HETATM   29  C   UNL     1       3.577   3.439  -2.721  1.00  0.00     0.043 A 
HETATM   30  C   UNL     1       3.078   2.224  -3.200  1.00  0.00     0.030 A 
HETATM   31  C   UNL     1       3.246   1.042  -2.466  1.00  0.00     0.009 A 
HETATM   32  C   UNL     1       3.892   1.055  -1.225  1.00  0.00    -0.058 A 
HETATM   33  C   UNL     1       4.359   2.274  -0.727  1.00  0.00     0.009 A 
HETATM   34  C   UNL     1       4.200   3.448  -1.465  1.00  0.00     0.030 A 
BRANCH  32  35
HETATM   35  C   UNL     1       4.057  -0.209  -0.420  1.00  0.00     0.034 C 
HETATM   36  C   UNL     1       5.513  -0.642  -0.315  1.00  0.00     0.010 C 
ENDBRANCH  32  35
ENDBRANCH   1  29
TORSDOF 6
