REMARK  4 active torsions:
REMARK  status: ('A' for Active; 'I' for Inactive)
REMARK    1  A    between atoms: C_9  and  C_10 
REMARK       I    between atoms: C_10  and  N_11 
REMARK    2  A    between atoms: N_11  and  C_12 
REMARK    3  A    between atoms: C_12  and  C_13 
REMARK    4  A    between atoms: C_14  and  O_15 
ROOT
HETATM    1  C   UNL     1       5.913   5.790  -0.244  1.00  0.00     0.273 C 
HETATM    2  N   UNL     1       6.452   4.564   0.069  1.00  0.00    -0.347 N 
HETATM    3  O   UNL     1       6.563   6.756  -0.630  1.00  0.00    -0.266 OA
HETATM    4  H   UNL     1       5.760   3.849   0.276  1.00  0.00     0.163 HD
ENDROOT
BRANCH   1   5
HETATM    5  C   UNL     1       4.448   5.826  -0.090  1.00  0.00     0.157 A 
HETATM    6  C   UNL     1       3.583   6.938  -0.314  1.00  0.00     0.029 A 
HETATM    7  C   UNL     1       3.738   8.281  -0.711  1.00  0.00     0.023 A 
HETATM    8  C   UNL     1       2.306   6.463  -0.045  1.00  0.00     0.063 A 
HETATM    9  C   UNL     1       2.606   9.105  -0.826  1.00  0.00    -0.061 A 
HETATM   10  C   UNL     1       2.749  10.540  -1.245  1.00  0.00     0.048 C 
HETATM   11  C   UNL     1       1.335   8.585  -0.546  1.00  0.00     0.009 A 
HETATM   12  C   UNL     1       1.158   7.254  -0.150  1.00  0.00     0.032 A 
HETATM   13  N   UNL     1       2.475   5.153   0.309  1.00  0.00    -0.277 N 
HETATM   14  H   UNL     1       1.754   4.492   0.572  1.00  0.00     0.189 HD
HETATM   15  N   UNL     1       3.752   4.731   0.293  1.00  0.00    -0.168 NA
ENDBRANCH   1   5
BRANCH   2  16
HETATM   16  C   UNL     1       7.839   4.144  -0.083  1.00  0.00     0.116 C 
HETATM   17  C   UNL     1       8.868   5.215   0.281  1.00  0.00     0.037 C 
BRANCH  16  18
HETATM   18  C   UNL     1       8.137   3.518  -1.440  1.00  0.00    -0.002 A 
HETATM   19  C   UNL     1       9.040   2.438  -1.546  1.00  0.00     0.076 A 
HETATM   20  C   UNL     1       9.314   1.880  -2.800  1.00  0.00     0.038 A 
HETATM   21  C   UNL     1       8.717   2.393  -3.954  1.00  0.00     0.009 A 
HETATM   22  C   UNL     1       7.842   3.475  -3.874  1.00  0.00    -0.061 A 
HETATM   23  C   UNL     1       7.203   4.049  -5.104  1.00  0.00     0.048 C 
HETATM   24  C   UNL     1       7.567   4.035  -2.620  1.00  0.00     0.018 A 
BRANCH  19  25
HETATM   25  O   UNL     1       9.596   2.000  -0.371  1.00  0.00    -0.355 OA
HETATM   26  C   UNL     1      10.637   1.035  -0.458  1.00  0.00     0.210 C 
ENDBRANCH  19  25
ENDBRANCH  16  18
ENDBRANCH   2  16
TORSDOF 4
