REMARK  7 active torsions:
REMARK  status: ('A' for Active; 'I' for Inactive)
REMARK    1  A    between atoms: C_3  and  O_4 
REMARK    2  A    between atoms: C_9  and  N_10 
REMARK    3  A    between atoms: C_13  and  C_14 
REMARK       I    between atoms: C_14  and  N_15 
REMARK    4  A    between atoms: N_15  and  C_16 
REMARK    5  A    between atoms: C_16  and  C_17 
REMARK    6  A    between atoms: C_17  and  N_18 
REMARK       I    between atoms: N_18  and  C_19 
REMARK    7  A    between atoms: C_19  and  C_20 
ROOT
HETATM    1  N   UNL     1      -3.416  -1.606  -0.488  1.00  0.00    -0.268 NA
HETATM    2  C   UNL     1      -4.616  -0.791  -0.729  1.00  0.00     0.098 C 
HETATM    3  C   UNL     1      -5.620  -1.591  -1.557  1.00  0.00     0.029 C 
HETATM    4  C   UNL     1      -5.971  -2.928  -0.895  1.00  0.00     0.080 C 
HETATM    5  C   UNL     1      -4.689  -3.701  -0.558  1.00  0.00     0.029 C 
HETATM    6  C   UNL     1      -3.688  -2.858   0.237  1.00  0.00     0.098 C 
ENDROOT
BRANCH   4   7
HETATM    7  C   UNL     1      -6.858  -2.758   0.338  1.00  0.00     0.221 C 
HETATM    8  N   UNL     1      -8.076  -2.174   0.083  1.00  0.00    -0.359 N 
HETATM    9  H   UNL     1      -8.298  -1.823  -0.838  1.00  0.00     0.162 HD
HETATM   10  O   UNL     1      -6.536  -3.142   1.458  1.00  0.00    -0.273 OA
BRANCH   8  11
HETATM   11  C   UNL     1      -9.043  -1.934   1.142  1.00  0.00     0.142 C 
BRANCH  11  12
HETATM   12  C   UNL     1      -8.677  -0.731   2.022  1.00  0.00     0.142 C 
BRANCH  12  13
HETATM   13  N   UNL     1      -8.566   0.523   1.289  1.00  0.00    -0.355 N 
HETATM   14  C   UNL     1      -9.681   1.134   0.754  1.00  0.00     0.251 C 
HETATM   15  O   UNL     1     -10.793   0.616   0.763  1.00  0.00    -0.268 OA
HETATM   16  H   UNL     1      -7.720   1.057   1.435  1.00  0.00     0.162 HD
BRANCH  14  17
HETATM   17  C   UNL     1      -9.502   2.496   0.173  1.00  0.00     0.033 A 
HETATM   18  C   UNL     1      -8.257   2.985  -0.240  1.00  0.00     0.036 A 
HETATM   19  C   UNL     1      -8.166   4.273  -0.772  1.00  0.00     0.012 A 
HETATM   20 BR   UNL     1      -6.482   4.940  -1.319  1.00  0.00    -0.051 Br
HETATM   21  C   UNL     1      -9.299   5.074  -0.907  1.00  0.00     0.019 A 
HETATM   22  C   UNL     1     -10.542   4.585  -0.511  1.00  0.00     0.002 A 
HETATM   23  C   UNL     1     -10.643   3.300   0.024  1.00  0.00     0.017 A 
ENDBRANCH  14  17
ENDBRANCH  12  13
ENDBRANCH  11  12
ENDBRANCH   8  11
ENDBRANCH   4   7
BRANCH   1  24
HETATM   24  C   UNL     1      -2.371  -0.849   0.093  1.00  0.00     0.106 A 
HETATM   25  N   UNL     1      -2.595   0.433   0.457  1.00  0.00    -0.233 NA
HETATM   26  C   UNL     1      -1.602   1.185   0.986  1.00  0.00     0.102 A 
HETATM   27  C   UNL     1      -1.810   2.520   1.363  1.00  0.00     0.095 A 
HETATM   28  C   UNL     1      -0.308   0.661   1.176  1.00  0.00    -0.004 A 
HETATM   29  C   UNL     1      -0.794   3.311   1.911  1.00  0.00     0.039 A 
HETATM   30  C   UNL     1       0.473   2.770   2.097  1.00  0.00     0.004 A 
HETATM   31  C   UNL     1       0.717   1.449   1.730  1.00  0.00     0.014 A 
HETATM   32  C   UNL     1      -0.072  -0.658   0.788  1.00  0.00     0.017 A 
HETATM   33  C   UNL     1      -1.105  -1.409   0.234  1.00  0.00     0.045 A 
BRANCH  27  34
HETATM   34  O   UNL     1      -3.057   3.078   1.186  1.00  0.00    -0.358 OA
HETATM   35  H   UNL     1      -3.010   4.026   1.380  1.00  0.00     0.218 HD
ENDBRANCH  27  34
ENDBRANCH   1  24
TORSDOF 7
