REMARK  5 active torsions:
REMARK  status: ('A' for Active; 'I' for Inactive)
REMARK    1  A    between atoms: C_2  and  C_3 
REMARK    2  A    between atoms: C_7  and  N_8 
REMARK    3  A    between atoms: N_8  and  C_9 
REMARK    4  A    between atoms: C_11  and  N_12 
REMARK    5  A    between atoms: C_14  and  N_15 
ROOT
HETATM    1  C   UNL     1       5.686  -0.571  -6.383  1.00  0.00     0.111 A 
HETATM    2  N   UNL     1       4.862  -0.360  -7.422  1.00  0.00    -0.206 NA
HETATM    3  C   UNL     1       5.138  -0.974  -8.574  1.00  0.00     0.202 A 
HETATM    4  N   UNL     1       6.203  -1.737  -8.797  1.00  0.00    -0.199 NA
HETATM    5  C   UNL     1       7.037  -1.917  -7.749  1.00  0.00     0.156 A 
HETATM    6  C   UNL     1       6.813  -1.354  -6.509  1.00  0.00     0.096 A 
ENDROOT
BRANCH   1   7
HETATM    7  N   UNL     1       5.458   0.060  -5.151  1.00  0.00    -0.265 NA
HETATM    8  H   UNL     1       5.472  -0.636  -4.404  1.00  0.00     0.130 HD
BRANCH   7   9
HETATM    9  C   UNL     1       4.239   0.871  -5.043  1.00  0.00     0.133 C 
HETATM   10  C   UNL     1       3.755   0.964  -3.622  1.00  0.00     0.142 A 
HETATM   11  N   UNL     1       3.260   2.121  -3.099  1.00  0.00    -0.253 N 
HETATM   12  N   UNL     1       3.682   0.016  -2.708  1.00  0.00    -0.215 NA
HETATM   13  N   UNL     1       2.847   1.961  -1.835  1.00  0.00    -0.155 NA
HETATM   14  C   UNL     1       3.227   3.407  -3.758  1.00  0.00     0.153 C 
HETATM   15  C   UNL     1       3.115   0.663  -1.633  1.00  0.00     0.151 A 
HETATM   16  C   UNL     1       3.391   3.263  -5.269  1.00  0.00     0.024 C 
HETATM   17  C   UNL     1       4.521   2.285  -5.605  1.00  0.00     0.029 C 
BRANCH  15  18
HETATM   18  C   UNL     1       2.800  -0.032  -0.348  1.00  0.00     0.051 C 
HETATM   19  C   UNL     1       4.052  -0.644   0.279  1.00  0.00     0.018 C 
HETATM   20  C   UNL     1       1.723  -1.099  -0.549  1.00  0.00     0.018 C 
ENDBRANCH  15  18
ENDBRANCH   7   9
ENDBRANCH   1   7
BRANCH   3  21
HETATM   21  N   UNL     1       4.277  -0.762  -9.630  1.00  0.00    -0.271 NA
HETATM   22  H   UNL     1       3.783   0.110  -9.503  1.00  0.00     0.127 HD
HETATM   23  H   UNL     1       4.762  -0.898 -10.506  1.00  0.00     0.127 HD
ENDBRANCH   3  21
BRANCH   5  24
HETATM   24  N   UNL     1       8.205  -2.709  -7.949  1.00  0.00    -0.227 N 
HETATM   25  N   UNL     1       9.119  -2.928  -6.963  1.00  0.00    -0.179 NA
HETATM   26  C   UNL     1      10.056  -3.681  -7.542  1.00  0.00     0.141 A 
HETATM   27  C   UNL     1       9.771  -3.965  -8.886  1.00  0.00     0.040 A 
HETATM   28  C   UNL     1       8.576  -3.331  -9.124  1.00  0.00     0.122 A 
ENDBRANCH   5  24
TORSDOF 5
