REMARK  6 active torsions:
REMARK  status: ('A' for Active; 'I' for Inactive)
REMARK    1  A    between atoms: C_2  and  N_3 
REMARK    2  A    between atoms: C_2  and  C_16 
REMARK    3  A    between atoms: N_3  and  C_6 
REMARK    4  A    between atoms: C_16  and  C_17 
REMARK       I    between atoms: C_17  and  N_18 
REMARK    5  A    between atoms: N_18  and  C_19 
REMARK    6  A    between atoms: C_21  and  O_22 
ROOT
HETATM    1  C   UNL     1       0.795   0.639   0.335  1.00  0.00     0.040 C 
HETATM    2  C   UNL     1       2.298   0.608   0.087  1.00  0.00     0.191 C 
ENDROOT
BRANCH   2   3
HETATM    3  N   UNL     1       2.592   0.100  -1.306  1.00  0.00    -0.063 N 
HETATM    4  H   UNL     1       3.630   0.121  -1.409  1.00  0.00     0.278 HD
HETATM    5  H   UNL     1       2.372  -0.904  -1.312  1.00  0.00     0.278 HD
BRANCH   3   6
HETATM    6  C   UNL     1       1.980   0.738  -2.526  1.00  0.00     0.221 C 
HETATM    7  C   UNL     1       2.570   2.076  -2.881  1.00  0.00    -0.011 A 
HETATM    8  C   UNL     1       3.864   2.151  -3.418  1.00  0.00     0.009 A 
HETATM    9  C   UNL     1       1.835   3.260  -2.692  1.00  0.00     0.011 A 
HETATM   10  C   UNL     1       4.431   3.397  -3.697  1.00  0.00     0.019 A 
HETATM   11  S   UNL     1       4.835   0.687  -3.704  1.00  0.00    -0.129 SA
HETATM   12  C   UNL     1       3.703   4.567  -3.484  1.00  0.00     0.001 A 
HETATM   13  C   UNL     1       2.403   4.499  -2.990  1.00  0.00     0.001 A 
HETATM   14  C   UNL     1       3.557  -0.539  -4.135  1.00  0.00     0.082 C 
HETATM   15  C   UNL     1       2.124  -0.205  -3.726  1.00  0.00     0.048 C 
ENDBRANCH   3   6
ENDBRANCH   2   3
BRANCH   2  16
HETATM   16  C   UNL     1       2.969   1.950   0.404  1.00  0.00     0.135 C 
BRANCH  16  17
HETATM   17  C   UNL     1       4.461   1.881   0.165  1.00  0.00     0.224 C 
HETATM   18  N   UNL     1       5.074   3.112   0.225  1.00  0.00    -0.327 N 
HETATM   19  H   UNL     1       4.482   3.935   0.238  1.00  0.00     0.169 HD
HETATM   20  O   UNL     1       4.980   0.800  -0.102  1.00  0.00    -0.273 OA
BRANCH  18  21
HETATM   21  C   UNL     1       6.458   3.375   0.124  1.00  0.00     0.037 A 
HETATM   22  C   UNL     1       7.445   2.392   0.246  1.00  0.00     0.066 A 
HETATM   23  C   UNL     1       8.798   2.741   0.173  1.00  0.00     0.070 A 
HETATM   24  C   UNL     1       9.163   4.064  -0.075  1.00  0.00     0.037 A 
HETATM   25  C   UNL     1       8.187   5.050  -0.194  1.00  0.00     0.005 A 
HETATM   26  C   UNL     1       6.839   4.708  -0.079  1.00  0.00     0.029 A 
BRANCH  23  27
HETATM   27  O   UNL     1       9.841   1.864   0.301  1.00  0.00    -0.356 OA
HETATM   28  C   UNL     1       9.608   0.762   1.172  1.00  0.00     0.210 C 
ENDBRANCH  23  27
ENDBRANCH  18  21
ENDBRANCH  16  17
ENDBRANCH   2  16
TORSDOF 6
