REMARK  6 active torsions:
REMARK  status: ('A' for Active; 'I' for Inactive)
REMARK    1  A    between atoms: C_3  and  N_4 
REMARK    2  A    between atoms: N_4  and  C_5 
REMARK    3  A    between atoms: C_5  and  C_6 
REMARK    4  A    between atoms: N_8  and  C_10 
REMARK    5  A    between atoms: C_10  and  C_11 
REMARK    6  A    between atoms: C_16  and  O_17 
ROOT
HETATM    1  C   UNL     1       5.097  -0.660  -0.360  1.00  0.00     0.031 C 
HETATM    2  C   UNL     1       6.198  -1.484   0.312  1.00  0.00     0.241 C 
HETATM    3  N   UNL     1       7.382  -0.550   0.452  1.00  0.00    -0.067 N 
HETATM    4  H   UNL     1       7.596  -0.488   1.461  1.00  0.00     0.280 HD
HETATM    5  C   UNL     1       6.953   0.829   0.014  1.00  0.00     0.235 C 
HETATM    6  C   UNL     1       5.437   0.766   0.073  1.00  0.00     0.035 C 
ENDROOT
BRANCH   3   7
HETATM    7  C   UNL     1       8.656  -1.057  -0.180  1.00  0.00     0.274 C 
BRANCH   7   8
HETATM    8  C   UNL     1       9.849  -0.181   0.080  1.00  0.00    -0.013 A 
HETATM    9  C   UNL     1      10.479  -0.098   1.333  1.00  0.00     0.019 A 
HETATM   10 BR   UNL     1       9.849  -1.080   2.832  1.00  0.00    -0.051 Br
HETATM   11  C   UNL     1      11.589   0.732   1.522  1.00  0.00     0.022 A 
HETATM   12  C   UNL     1      12.081   1.500   0.466  1.00  0.00     0.038 A 
HETATM   13  C   UNL     1      11.456   1.430  -0.770  1.00  0.00     0.066 A 
HETATM   14  C   UNL     1      10.356   0.601  -0.971  1.00  0.00     0.046 A 
BRANCH  13  15
HETATM   15  O   UNL     1      11.880   2.163  -1.835  1.00  0.00    -0.361 OA
HETATM   16  H   UNL     1      12.695   2.641  -1.596  1.00  0.00     0.217 HD
ENDBRANCH  13  15
ENDBRANCH   7   8
ENDBRANCH   3   7
BRANCH   1  17
HETATM   17  C   UNL     1       5.058  -0.821  -1.893  1.00  0.00     0.127 C 
BRANCH  17  18
HETATM   18  N   UNL     1       4.665  -2.182  -2.239  1.00  0.00    -0.376 N 
HETATM   19  H   UNL     1       5.440  -2.735  -2.621  1.00  0.00     0.161 HD
BRANCH  18  20
HETATM   20  C   UNL     1       3.482  -2.561  -2.870  1.00  0.00     0.100 A 
HETATM   21  C   UNL     1       3.239  -3.930  -3.075  1.00  0.00     0.048 A 
HETATM   22  C   UNL     1       2.056  -4.357  -3.674  1.00  0.00     0.005 A 
HETATM   23  C   UNL     1       1.112  -3.419  -4.060  1.00  0.00     0.017 A 
HETATM   24  C   UNL     1       1.370  -2.079  -3.824  1.00  0.00     0.089 A 
HETATM   25  N   UNL     1       2.519  -1.699  -3.237  1.00  0.00    -0.353 N 
HETATM   26  H   UNL     1       2.653  -0.707  -3.084  1.00  0.00     0.166 HD
ENDBRANCH  18  20
ENDBRANCH  17  18
ENDBRANCH   1  17
TORSDOF 6
