REMARK  5 active torsions:
REMARK  status: ('A' for Active; 'I' for Inactive)
REMARK    1  A    between atoms: C_5  and  C_6 
REMARK    2  A    between atoms: C_6  and  C_7 
REMARK       I    between atoms: C_7  and  N_8 
REMARK    3  A    between atoms: N_8  and  C_9 
REMARK    4  A    between atoms: N_10  and  C_11 
REMARK    5  A    between atoms: C_23  and  C_24 
ROOT
HETATM    1  C   UNL     1       3.641  -1.178   0.140  1.00  0.00     0.152 C 
HETATM    2  N   UNL     1       2.406  -0.666   0.531  1.00  0.00    -0.044 N 
HETATM    3  N   UNL     1       2.487   0.686   0.779  1.00  0.00    -0.148 NA
HETATM    4  C   UNL     1       3.792   0.961   0.672  1.00  0.00     0.115 C 
HETATM    5  C   UNL     1       4.560  -0.179   0.363  1.00  0.00     0.087 C 
ENDROOT
BRANCH   1   6
HETATM    6  N   UNL     1       3.888  -2.444  -0.373  1.00  0.00    -0.311 N 
HETATM    7  C   UNL     1       3.069  -2.931  -1.386  1.00  0.00     0.227 C 
HETATM    8  O   UNL     1       2.118  -2.312  -1.868  1.00  0.00    -0.273 OA
HETATM    9  H   UNL     1       4.856  -2.749  -0.400  1.00  0.00     0.170 HD
BRANCH   7  10
HETATM   10  C   UNL     1       3.426  -4.316  -1.903  1.00  0.00     0.142 C 
BRANCH  10  11
HETATM   11  C   UNL     1       4.907  -4.652  -1.934  1.00  0.00    -0.038 A 
HETATM   12  C   UNL     1       5.848  -3.897  -2.692  1.00  0.00    -0.019 A 
HETATM   13  C   UNL     1       7.219  -4.251  -2.619  1.00  0.00    -0.025 A 
HETATM   14  C   UNL     1       5.501  -2.796  -3.511  1.00  0.00     0.013 A 
HETATM   15  C   UNL     1       8.178  -3.504  -3.323  1.00  0.00     0.012 A 
HETATM   16  C   UNL     1       7.620  -5.346  -1.842  1.00  0.00     0.012 A 
HETATM   17  C   UNL     1       7.806  -2.410  -4.102  1.00  0.00     0.001 A 
HETATM   18  C   UNL     1       6.468  -2.058  -4.198  1.00  0.00     0.001 A 
HETATM   19  C   UNL     1       6.689  -6.094  -1.126  1.00  0.00     0.001 A 
HETATM   20  C   UNL     1       5.344  -5.748  -1.168  1.00  0.00     0.008 A 
ENDBRANCH  10  11
ENDBRANCH   7  10
ENDBRANCH   1   6
BRANCH   2  21
HETATM   21  C   UNL     1       1.189  -1.330   0.807  1.00  0.00     0.732 A 
HETATM   22  N   UNL     1       1.035  -2.616   0.818  1.00  0.00    -0.067 NA
HETATM   23  C   UNL     1      -0.238  -3.080   1.063  1.00  0.00     0.065 A 
HETATM   24  C   UNL     1      -1.284  -2.293   1.377  1.00  0.00     0.036 A 
HETATM   25  C   UNL     1      -0.403  -4.577   0.921  1.00  0.00     0.060 C 
HETATM   26  C   UNL     1      -2.682  -2.788   1.594  1.00  0.00     0.046 C 
HETATM   27  C   UNL     1      -1.047  -0.833   1.468  1.00  0.00     0.268 A 
HETATM   28  C   UNL     1      -2.892  -4.205   1.058  1.00  0.00     0.005 C 
HETATM   29  C   UNL     1      -1.734  -5.113   1.453  1.00  0.00     0.006 C 
HETATM   30  O   UNL     1      -1.913  -0.049   1.838  1.00  0.00    -0.267 OA
HETATM   31  N   UNL     1       0.200  -0.432   1.108  1.00  0.00    -0.152 N 
HETATM   32  H   UNL     1       0.430   0.555   1.142  1.00  0.00     0.188 HD
ENDBRANCH   2  21
BRANCH   4  33
HETATM   33  C   UNL     1       4.343   2.340   0.820  1.00  0.00     0.105 A 
HETATM   34  O   UNL     1       5.665   2.663   0.677  1.00  0.00    -0.320 OA
HETATM   35  C   UNL     1       5.772   4.007   0.840  1.00  0.00     0.142 A 
HETATM   36  C   UNL     1       4.541   4.561   1.095  1.00  0.00     0.027 A 
HETATM   37  C   UNL     1       3.619   3.486   1.087  1.00  0.00     0.041 A 
ENDBRANCH   4  33
TORSDOF 5
