REMARK  2 active torsions:
REMARK  status: ('A' for Active; 'I' for Inactive)
REMARK    1  A    between atoms: C_11  and  N_12 
REMARK       I    between atoms: N_12  and  C_13 
REMARK    2  A    between atoms: C_13  and  C_14 
ROOT
HETATM    1  N   UNL     1       0.987   2.034  -1.757  1.00  0.00    -0.351 N 
HETATM    2  C   UNL     1       0.390   2.514  -2.914  1.00  0.00     0.273 C 
HETATM    3  O   UNL     1       0.968   2.568  -3.993  1.00  0.00    -0.266 OA
HETATM    4  H   UNL     1       0.434   2.289  -0.936  1.00  0.00     0.163 HD
ENDROOT
BRANCH   1   5
HETATM    5  C   UNL     1       2.409   1.780  -1.651  1.00  0.00     0.089 C 
HETATM    6  C   UNL     1       2.940   0.704  -2.607  1.00  0.00     0.063 C 
HETATM    7  C   UNL     1       2.532  -0.732  -2.260  1.00  0.00     0.121 C 
HETATM    8  N   UNL     1       2.826  -1.001  -0.798  1.00  0.00    -0.059 N 
HETATM    9  C   UNL     1       1.073  -1.070  -2.581  1.00  0.00     0.046 C 
HETATM   10  C   UNL     1       3.417  -1.714  -3.058  1.00  0.00     0.046 C 
HETATM   11  C   UNL     1       2.459   0.020   0.258  1.00  0.00     0.121 C 
HETATM   12  H   UNL     1       3.841  -1.162  -0.724  1.00  0.00     0.279 HD
HETATM   13  H   UNL     1       2.409  -1.908  -0.542  1.00  0.00     0.279 HD
HETATM   14  C   UNL     1       0.988  -0.140   0.659  1.00  0.00     0.046 C 
HETATM   15  C   UNL     1       3.312  -0.327   1.497  1.00  0.00     0.046 C 
HETATM   16  C   UNL     1       2.823   1.438  -0.216  1.00  0.00     0.063 C 
ENDBRANCH   1   5
BRANCH   2  17
HETATM   17  C   UNL     1      -1.002   2.932  -2.701  1.00  0.00     0.157 A 
HETATM   18  N   UNL     1      -1.576   2.818  -1.481  1.00  0.00    -0.168 NA
HETATM   19  N   UNL     1      -2.829   3.279  -1.678  1.00  0.00    -0.277 N 
HETATM   20  H   UNL     1      -3.471   3.295  -0.893  1.00  0.00     0.189 HD
HETATM   21  C   UNL     1      -3.088   3.682  -2.958  1.00  0.00     0.063 A 
HETATM   22  C   UNL     1      -1.905   3.476  -3.658  1.00  0.00     0.028 A 
HETATM   23  C   UNL     1      -4.243   4.205  -3.548  1.00  0.00     0.032 A 
HETATM   24  C   UNL     1      -1.856   3.812  -5.025  1.00  0.00     0.016 A 
HETATM   25  C   UNL     1      -3.000   4.340  -5.635  1.00  0.00     0.001 A 
HETATM   26  C   UNL     1      -4.173   4.530  -4.907  1.00  0.00     0.002 A 
ENDBRANCH   2  17
TORSDOF 2
