REMARK  8 active torsions:
REMARK  status: ('A' for Active; 'I' for Inactive)
REMARK    1  A    between atoms: C_4  and  C_5 
REMARK    2  A    between atoms: C_5  and  C_6 
REMARK    3  A    between atoms: C_6  and  N_7 
REMARK    4  A    between atoms: C_8  and  S_9 
REMARK    5  A    between atoms: S_9  and  C_10 
REMARK    6  A    between atoms: C_10  and  C_11 
REMARK    7  A    between atoms: C_24  and  C_25 
REMARK    8  A    between atoms: C_26  and  O_27 
ROOT
HETATM    1  N   UNL     1       5.001  -0.987  -0.815  1.00  0.00    -0.307 N 
HETATM    2  C   UNL     1       5.904   0.037  -0.955  1.00  0.00     0.192 C 
HETATM    3  N   UNL     1       7.113  -0.395  -0.691  1.00  0.00    -0.122 NA
HETATM    4  N   UNL     1       7.036  -1.734  -0.453  1.00  0.00    -0.128 NA
HETATM    5  C   UNL     1       5.780  -2.121  -0.612  1.00  0.00     0.167 C 
ENDROOT
BRANCH   2   6
HETATM    6  S   UNL     1       5.534   1.656  -1.435  1.00  0.00    -0.083 SA
BRANCH   6   7
HETATM    7  C   UNL     1       7.200   2.388  -1.384  1.00  0.00     0.161 C 
BRANCH   7   8
HETATM    8  C   UNL     1       7.218   3.895  -1.563  1.00  0.00     0.117 A 
HETATM    9  N   UNL     1       8.359   4.508  -1.578  1.00  0.00    -0.234 NA
HETATM   10  C   UNL     1       8.367   5.906  -1.721  1.00  0.00     0.074 A 
HETATM   11  C   UNL     1       7.194   6.655  -1.847  1.00  0.00     0.061 A 
HETATM   12  C   UNL     1       9.590   6.576  -1.727  1.00  0.00     0.032 A 
HETATM   13  C   UNL     1       5.921   5.918  -1.833  1.00  0.00     0.259 A 
HETATM   14  C   UNL     1       7.228   8.046  -1.979  1.00  0.00     0.019 A 
HETATM   15  O   UNL     1       4.837   6.480  -1.940  1.00  0.00    -0.267 OA
HETATM   16  N   UNL     1       6.028   4.559  -1.686  1.00  0.00    -0.310 N 
HETATM   17  H   UNL     1       5.159   4.041  -1.675  1.00  0.00     0.170 HD
HETATM   18  C   UNL     1       8.459   8.702  -1.983  1.00  0.00     0.001 A 
HETATM   19  C   UNL     1       9.639   7.968  -1.857  1.00  0.00     0.002 A 
ENDBRANCH   7   8
ENDBRANCH   6   7
ENDBRANCH   2   6
BRANCH   1  20
HETATM   20  C   UNL     1       3.551  -0.946  -0.878  1.00  0.00     0.137 C 
BRANCH  20  21
HETATM   21  C   UNL     1       2.844   0.131  -0.042  1.00  0.00     0.059 C 
BRANCH  21  22
HETATM   22  C   UNL     1       1.339  -0.004   0.098  1.00  0.00    -0.057 A 
HETATM   23  C   UNL     1       0.668   0.935   0.900  1.00  0.00     0.007 A 
HETATM   24  C   UNL     1      -0.717   0.880   1.068  1.00  0.00     0.001 A 
HETATM   25  C   UNL     1      -1.456  -0.116   0.437  1.00  0.00     0.000 A 
HETATM   26  C   UNL     1      -0.810  -1.051  -0.366  1.00  0.00     0.001 A 
HETATM   27  C   UNL     1       0.577  -0.994  -0.540  1.00  0.00     0.007 A 
ENDBRANCH  21  22
ENDBRANCH  20  21
ENDBRANCH   1  20
BRANCH   5  28
HETATM   28  C   UNL     1       5.361  -3.524  -0.520  1.00  0.00     0.045 A 
HETATM   29  C   UNL     1       5.989  -4.390   0.394  1.00  0.00     0.079 A 
HETATM   30  C   UNL     1       5.611  -5.727   0.504  1.00  0.00     0.037 A 
HETATM   31  C   UNL     1       4.612  -6.235  -0.322  1.00  0.00     0.003 A 
HETATM   32  C   UNL     1       4.006  -5.408  -1.265  1.00  0.00     0.001 A 
HETATM   33  C   UNL     1       4.387  -4.066  -1.372  1.00  0.00     0.018 A 
BRANCH  29  34
HETATM   34  O   UNL     1       7.011  -3.983   1.214  1.00  0.00    -0.360 OA
HETATM   35  H   UNL     1       7.354  -3.132   0.870  1.00  0.00     0.217 HD
ENDBRANCH  29  34
ENDBRANCH   5  28
TORSDOF 8
