REMARK  7 active torsions:
REMARK  status: ('A' for Active; 'I' for Inactive)
REMARK    1  A    between atoms: C_2  and  O_3 
REMARK    2  A    between atoms: O_3  and  C_4 
REMARK    3  A    between atoms: C_5  and  O_6 
REMARK    4  A    between atoms: C_10  and  C_11 
REMARK    5  A    between atoms: C_12  and  C_13 
REMARK       I    between atoms: C_13  and  N_14 
REMARK    6  A    between atoms: N_14  and  N_15 
REMARK       I    between atoms: N_15  and  C_16 
REMARK    7  A    between atoms: C_16  and  C_17 
ROOT
HETATM    1  C   UNL     1       6.243  -6.870  -1.847  1.00  0.00     0.259 C 
HETATM    2  N   UNL     1       7.514  -6.856  -2.368  1.00  0.00    -0.264 N 
HETATM    3  O   UNL     1       5.445  -7.781  -2.048  1.00  0.00    -0.267 OA
HETATM    4  H   UNL     1       8.230  -6.168  -2.145  1.00  0.00     0.190 HD
ENDROOT
BRANCH   2   5
HETATM    5  N   UNL     1       7.928  -7.975  -3.103  1.00  0.00    -0.263 N 
HETATM    6  C   UNL     1       9.282  -8.211  -3.258  1.00  0.00     0.272 C 
HETATM    7  O   UNL     1      10.121  -7.394  -2.880  1.00  0.00    -0.266 OA
HETATM    8  H   UNL     1       7.229  -8.699  -3.242  1.00  0.00     0.190 HD
BRANCH   6   9
HETATM    9  C   UNL     1       9.623  -9.489  -3.884  1.00  0.00     0.061 A 
HETATM   10  C   UNL     1      10.941 -10.033  -4.073  1.00  0.00     0.008 A 
HETATM   11  C   UNL     1      10.811 -11.275  -4.708  1.00  0.00     0.045 A 
HETATM   12  C   UNL     1      12.240  -9.576  -3.755  1.00  0.00     0.015 A 
HETATM   13  C   UNL     1      11.927 -12.068  -5.026  1.00  0.00     0.030 A 
HETATM   14  N   UNL     1       9.465 -11.480  -4.907  1.00  0.00    -0.359 N 
HETATM   15  C   UNL     1      13.198 -11.587  -4.699  1.00  0.00     0.002 A 
HETATM   16  C   UNL     1      13.355 -10.357  -4.072  1.00  0.00     0.001 A 
HETATM   17  C   UNL     1       8.851 -12.630  -5.534  1.00  0.00     0.156 C 
HETATM   18  C   UNL     1       8.745 -10.418  -4.420  1.00  0.00     0.108 A 
ENDBRANCH   6   9
ENDBRANCH   2   5
BRANCH   1  19
HETATM   19  C   UNL     1       5.929  -5.681  -1.016  1.00  0.00     0.076 C 
HETATM   20  C   UNL     1       4.734  -5.608  -0.410  1.00  0.00     0.017 C 
BRANCH  20  21
HETATM   21  C   UNL     1       4.268  -4.482   0.412  1.00  0.00    -0.033 A 
HETATM   22  C   UNL     1       2.899  -4.197   0.426  1.00  0.00     0.014 A 
HETATM   23  C   UNL     1       2.389  -3.165   1.217  1.00  0.00     0.040 A 
HETATM   24  C   UNL     1       3.242  -2.404   2.019  1.00  0.00     0.101 A 
HETATM   25  C   UNL     1       4.624  -2.683   2.019  1.00  0.00     0.102 A 
HETATM   26  C   UNL     1       5.124  -3.724   1.223  1.00  0.00     0.051 A 
BRANCH  24  27
HETATM   27  O   UNL     1       2.831  -1.373   2.827  1.00  0.00    -0.353 OA
HETATM   28  C   UNL     1       1.433  -1.183   2.987  1.00  0.00     0.210 C 
ENDBRANCH  24  27
BRANCH  25  29
HETATM   29  O   UNL     1       5.391  -1.892   2.838  1.00  0.00    -0.349 OA
BRANCH  29  30
HETATM   30  C   UNL     1       6.799  -2.105   2.853  1.00  0.00     0.171 C 
HETATM   31  C   UNL     1       7.414  -1.093   3.803  1.00  0.00     0.034 C 
ENDBRANCH  29  30
ENDBRANCH  25  29
ENDBRANCH  20  21
ENDBRANCH   1  19
TORSDOF 7
