REMARK  5 active torsions:
REMARK  status: ('A' for Active; 'I' for Inactive)
REMARK    1  A    between atoms: C_2  and  C_3 
REMARK    2  A    between atoms: C_8  and  C_9 
REMARK       I    between atoms: C_9  and  N_10 
REMARK    3  A    between atoms: N_10  and  C_11 
REMARK    4  A    between atoms: C_11  and  C_12 
REMARK    5  A    between atoms: C_19  and  C_20 
ROOT
HETATM    1  C   UNL     1      -2.972   0.100  -0.037  1.00  0.00     0.118 C 
HETATM    2  N   UNL     1      -3.545   1.133  -0.892  1.00  0.00    -0.366 N 
HETATM    3  C   UNL     1      -4.133   0.837  -2.072  1.00  0.00     0.123 A 
HETATM    4  N   UNL     1      -4.326  -0.458  -2.474  1.00  0.00    -0.240 N 
HETATM    5  N   UNL     1      -4.854  -0.565  -3.704  1.00  0.00    -0.165 NA
HETATM    6  C   UNL     1      -5.095   0.715  -4.067  1.00  0.00     0.148 A 
HETATM    7  C   UNL     1      -4.635   1.623  -3.076  1.00  0.00     0.088 A 
HETATM    8  C   UNL     1      -3.866  -1.610  -1.720  1.00  0.00     0.221 C 
HETATM    9  C   UNL     1      -3.706  -1.234  -0.234  1.00  0.00     0.066 C 
HETATM   10  H   UNL     1      -3.280   2.092  -0.667  1.00  0.00     0.161 HD
ENDROOT
BRANCH   6  11
HETATM   11  C   UNL     1      -5.759   1.057  -5.336  1.00  0.00     0.272 C 
HETATM   12  N   UNL     1      -6.175  -0.045  -6.047  1.00  0.00    -0.353 N 
HETATM   13  H   UNL     1      -5.854  -0.945  -5.699  1.00  0.00     0.162 HD
HETATM   14  O   UNL     1      -5.934   2.213  -5.710  1.00  0.00    -0.266 OA
BRANCH  12  15
HETATM   15  C   UNL     1      -6.828   0.039  -7.335  1.00  0.00     0.155 C 
BRANCH  15  16
HETATM   16  C   UNL     1      -5.835   0.143  -8.494  1.00  0.00     0.139 C 
HETATM   17  O   UNL     1      -5.054  -1.065  -8.605  1.00  0.00    -0.384 OA
HETATM   18  C   UNL     1      -4.805  -1.317  -9.996  1.00  0.00     0.168 C 
HETATM   19  C   UNL     1      -5.462  -0.203 -10.786  1.00  0.00     0.029 C 
HETATM   20  C   UNL     1      -6.524   0.294  -9.839  1.00  0.00     0.035 C 
ENDBRANCH  15  16
ENDBRANCH  12  15
ENDBRANCH   6  11
BRANCH   8  21
HETATM   21  C   UNL     1      -4.809  -2.788  -1.844  1.00  0.00     0.409 C 
HETATM   22  F   UNL     1      -4.884  -3.290  -3.094  1.00  0.00    -0.169 F 
HETATM   23  F   UNL     1      -4.368  -3.807  -1.056  1.00  0.00    -0.169 F 
HETATM   24  F   UNL     1      -6.061  -2.496  -1.425  1.00  0.00    -0.169 F 
ENDBRANCH   8  21
BRANCH   1  25
HETATM   25  C   UNL     1      -1.463  -0.016  -0.196  1.00  0.00    -0.034 A 
HETATM   26  C   UNL     1      -0.792   0.291  -1.390  1.00  0.00     0.011 A 
HETATM   27  C   UNL     1       0.599   0.172  -1.482  1.00  0.00     0.026 A 
HETATM   28  C   UNL     1       1.346  -0.260  -0.385  1.00  0.00     0.055 A 
HETATM   29  C   UNL     1       0.696  -0.579   0.809  1.00  0.00     0.056 A 
HETATM   30 CL   UNL     1       3.059  -0.374  -0.570  1.00  0.00    -0.083 Cl
HETATM   31  C   UNL     1      -0.697  -0.460   0.898  1.00  0.00     0.034 A 
HETATM   32 CL   UNL     1       1.545  -1.122   2.212  1.00  0.00    -0.083 Cl
ENDBRANCH   1  25
TORSDOF 5
