REMARK  8 active torsions:
REMARK  status: ('A' for Active; 'I' for Inactive)
REMARK    1  A    between atoms: N_4  and  C_5 
REMARK    2  A    between atoms: C_5  and  C_6 
REMARK    3  A    between atoms: C_11  and  C_12 
REMARK    4  A    between atoms: C_12  and  C_13 
REMARK       I    between atoms: C_13  and  N_14 
REMARK    5  A    between atoms: N_14  and  N_15 
REMARK       I    between atoms: N_15  and  C_16 
REMARK    6  A    between atoms: C_16  and  C_17 
REMARK    7  A    between atoms: C_21  and  C_22 
REMARK    8  A    between atoms: C_25  and  O_26 
ROOT
HETATM    1  N   UNL     1      -0.649  -1.257   1.227  1.00  0.00    -0.262 N 
HETATM    2  C   UNL     1      -1.195  -0.142   1.825  1.00  0.00     0.288 C 
HETATM    3  O   UNL     1      -0.534   0.877   2.020  1.00  0.00    -0.264 OA
HETATM    4  H   UNL     1      -1.156  -2.121   1.057  1.00  0.00     0.190 HD
ENDROOT
BRANCH   1   5
HETATM    5  N   UNL     1       0.709  -1.254   0.902  1.00  0.00    -0.267 N 
HETATM    6  C   UNL     1       1.277  -2.417   0.427  1.00  0.00     0.240 C 
HETATM    7  O   UNL     1       0.620  -3.444   0.243  1.00  0.00    -0.272 OA
HETATM    8  H   UNL     1       1.217  -0.383   1.045  1.00  0.00     0.190 HD
BRANCH   6   9
HETATM    9  C   UNL     1       2.773  -2.336   0.202  1.00  0.00     0.147 C 
BRANCH   9  10
HETATM   10  C   UNL     1       3.122  -1.691  -1.097  1.00  0.00     0.001 A 
HETATM   11  C   UNL     1       3.450  -0.329  -1.335  1.00  0.00     0.059 A 
HETATM   12  C   UNL     1       3.500   0.801  -0.373  1.00  0.00     0.073 C 
HETATM   13  N   UNL     1       3.738  -0.108  -2.618  1.00  0.00    -0.177 NA
HETATM   14  N   UNL     1       3.644  -1.315  -3.203  1.00  0.00    -0.273 N 
HETATM   15  C   UNL     1       3.231  -2.300  -2.339  1.00  0.00     0.035 A 
HETATM   16  C   UNL     1       3.012  -3.718  -2.729  1.00  0.00     0.070 C 
BRANCH  14  17
HETATM   17  C   UNL     1       3.998  -1.421  -4.609  1.00  0.00     0.155 C 
BRANCH  17  18
HETATM   18  C   UNL     1       5.510  -1.296  -4.870  1.00  0.00    -0.003 C 
HETATM   19  C   UNL     1       6.296  -2.453  -4.250  1.00  0.00     0.011 C 
HETATM   20  C   UNL     1       5.774  -1.238  -6.376  1.00  0.00     0.011 C 
ENDBRANCH  17  18
ENDBRANCH  14  17
ENDBRANCH   9  10
ENDBRANCH   6   9
ENDBRANCH   1   5
BRANCH   2  21
HETATM   21  C   UNL     1      -2.574  -0.257   2.209  1.00  0.00     0.121 A 
HETATM   22  N   UNL     1      -3.259   0.791   2.755  1.00  0.00    -0.272 N 
HETATM   23  H   UNL     1      -2.901   1.723   2.940  1.00  0.00     0.189 HD
HETATM   24  N   UNL     1      -4.533   0.514   3.063  1.00  0.00    -0.174 NA
HETATM   25  C   UNL     1      -4.699  -0.773   2.718  1.00  0.00     0.089 A 
HETATM   26  C   UNL     1      -3.490  -1.289   2.169  1.00  0.00     0.071 A 
BRANCH  25  27
HETATM   27  C   UNL     1      -5.979  -1.466   2.915  1.00  0.00    -0.005 A 
HETATM   28  C   UNL     1      -7.131  -0.747   3.264  1.00  0.00     0.016 A 
HETATM   29  C   UNL     1      -8.354  -1.399   3.447  1.00  0.00     0.037 A 
HETATM   30  C   UNL     1      -8.456  -2.781   3.286  1.00  0.00     0.068 A 
HETATM   31  C   UNL     1      -7.316  -3.508   2.949  1.00  0.00     0.037 A 
HETATM   32  C   UNL     1      -6.088  -2.855   2.765  1.00  0.00     0.016 A 
BRANCH  30  33
HETATM   33  O   UNL     1      -9.707  -3.292   3.489  1.00  0.00    -0.356 OA
HETATM   34  C   UNL     1      -9.878  -4.684   3.255  1.00  0.00     0.210 C 
ENDBRANCH  30  33
ENDBRANCH  25  27
ENDBRANCH   2  21
TORSDOF 8
