REMARK  7 active torsions:
REMARK  status: ('A' for Active; 'I' for Inactive)
REMARK    1  A    between atoms: C_4  and  C_5 
REMARK    2  A    between atoms: C_5  and  N_6 
REMARK    3  A    between atoms: N_6  and  C_7 
REMARK    4  A    between atoms: C_11  and  N_12 
REMARK       I    between atoms: N_12  and  C_13 
REMARK    5  A    between atoms: C_13  and  C_14 
REMARK    6  A    between atoms: C_17  and  C_18 
REMARK    7  A    between atoms: C_18  and  C_19 
ROOT
HETATM    1  N   UNL     1       9.569  -0.957  -3.843  1.00  0.00    -0.323 N 
HETATM    2  C   UNL     1       9.834   0.120  -4.672  1.00  0.00     0.256 C 
HETATM    3  O   UNL     1      10.152   1.246  -4.306  1.00  0.00    -0.267 OA
HETATM    4  H   UNL     1       9.313  -1.831  -4.278  1.00  0.00     0.169 HD
ENDROOT
BRANCH   1   5
HETATM    5  C   UNL     1       9.505  -0.957  -2.432  1.00  0.00     0.036 A 
HETATM    6  C   UNL     1       9.642   0.179  -1.637  1.00  0.00     0.055 A 
HETATM    7  C   UNL     1       9.473   0.090  -0.249  1.00  0.00     0.057 A 
HETATM    8  C   UNL     1       9.152  -1.130   0.380  1.00  0.00     0.030 A 
HETATM    9 CL   UNL     1       9.599   1.546   0.684  1.00  0.00    -0.082 Cl
HETATM   10  C   UNL     1       9.096  -2.273  -0.424  1.00  0.00     0.027 A 
HETATM   11  C   UNL     1       9.251  -2.186  -1.812  1.00  0.00     0.031 A 
BRANCH   8  12
HETATM   12  N   UNL     1       8.979  -1.204   1.777  1.00  0.00    -0.287 NA
HETATM   13  H   UNL     1       8.900  -0.266   2.175  1.00  0.00     0.128 HD
BRANCH  12  14
HETATM   14  C   UNL     1       7.946  -2.109   2.269  1.00  0.00     0.131 C 
BRANCH  14  15
HETATM   15  C   UNL     1       7.283  -1.528   3.495  1.00  0.00    -0.045 A 
HETATM   16  C   UNL     1       6.343  -0.493   3.361  1.00  0.00     0.008 A 
HETATM   17  C   UNL     1       5.711   0.041   4.484  1.00  0.00     0.001 A 
HETATM   18  C   UNL     1       6.014  -0.450   5.752  1.00  0.00     0.000 A 
HETATM   19  C   UNL     1       6.955  -1.468   5.899  1.00  0.00     0.001 A 
HETATM   20  C   UNL     1       7.592  -2.002   4.777  1.00  0.00     0.008 A 
ENDBRANCH  14  15
ENDBRANCH  12  14
ENDBRANCH   8  12
ENDBRANCH   1   5
BRANCH   2  21
HETATM   21  C   UNL     1       9.669  -0.127  -6.142  1.00  0.00     0.032 A 
HETATM   22  C   UNL     1       9.727  -1.399  -6.723  1.00  0.00     0.017 A 
HETATM   23  C   UNL     1       9.499  -1.560  -8.095  1.00  0.00     0.008 A 
HETATM   24  C   UNL     1       9.224  -0.455  -8.911  1.00  0.00    -0.057 A 
HETATM   25  C   UNL     1       9.222   0.821  -8.337  1.00  0.00     0.008 A 
HETATM   26  C   UNL     1       9.437   0.983  -6.966  1.00  0.00     0.017 A 
BRANCH  24  27
HETATM   27  C   UNL     1       8.931  -0.634 -10.385  1.00  0.00     0.053 C 
BRANCH  27  28
HETATM   28  C   UNL     1       7.446  -0.634 -10.776  1.00  0.00     0.091 C 
HETATM   29  C   UNL     1       6.775   0.672 -10.434  1.00  0.00     0.229 C 
HETATM   30  O   UNL     1       7.067   1.764 -10.894  1.00  0.00    -0.273 OA
HETATM   31  N   UNL     1       5.820   0.445  -9.498  1.00  0.00    -0.297 N 
HETATM   32  C   UNL     1       5.696  -0.862  -9.165  1.00  0.00     0.225 C 
HETATM   33  H   UNL     1       5.289   1.181  -9.060  1.00  0.00     0.171 HD
HETATM   34  O   UNL     1       4.951  -1.311  -8.311  1.00  0.00    -0.273 OA
HETATM   35  C   UNL     1       6.584  -1.676 -10.062  1.00  0.00     0.117 C 
ENDBRANCH  27  28
ENDBRANCH  24  27
ENDBRANCH   2  21
TORSDOF 7
