REMARK  4 active torsions:
REMARK  status: ('A' for Active; 'I' for Inactive)
REMARK    1  A    between atoms: C_4  and  C_5 
REMARK    2  A    between atoms: C_5  and  C_6 
REMARK       I    between atoms: C_6  and  N_7 
REMARK    3  A    between atoms: N_7  and  N_8 
REMARK       I    between atoms: N_8  and  C_9 
REMARK    4  A    between atoms: C_9  and  C_10 
ROOT
HETATM    1  N   UNL     1       6.692  -1.466   0.952  1.00  0.00    -0.263 N 
HETATM    2  C   UNL     1       6.349  -2.702   0.435  1.00  0.00     0.272 C 
HETATM    3  O   UNL     1       6.857  -3.124  -0.604  1.00  0.00    -0.266 OA
HETATM    4  H   UNL     1       6.223  -1.048   1.750  1.00  0.00     0.190 HD
ENDROOT
BRANCH   1   5
HETATM    5  N   UNL     1       7.493  -0.609   0.186  1.00  0.00    -0.267 N 
HETATM    6  C   UNL     1       7.438   0.741   0.461  1.00  0.00     0.240 C 
HETATM    7  O   UNL     1       6.826   1.185   1.435  1.00  0.00    -0.271 OA
HETATM    8  H   UNL     1       7.882  -0.991  -0.677  1.00  0.00     0.190 HD
BRANCH   6   9
HETATM    9  C   UNL     1       8.088   1.645  -0.568  1.00  0.00     0.150 C 
BRANCH   9  10
HETATM   10  C   UNL     1       9.512   1.262  -0.832  1.00  0.00    -0.008 A 
HETATM   11  S   UNL     1       9.926   0.426  -2.268  1.00  0.00    -0.099 SA
HETATM   12  C   UNL     1      11.589   0.425  -1.875  1.00  0.00    -0.021 A 
HETATM   13  C   UNL     1      12.583  -0.191  -2.799  1.00  0.00     0.056 C 
HETATM   14  C   UNL     1      11.823   1.033  -0.659  1.00  0.00     0.015 A 
HETATM   15  C   UNL     1      10.626   1.519  -0.059  1.00  0.00     0.016 A 
ENDBRANCH   9  10
ENDBRANCH   6   9
ENDBRANCH   1   5
BRANCH   2  16
HETATM   16  C   UNL     1       5.346  -3.446   1.198  1.00  0.00     0.061 A 
HETATM   17  C   UNL     1       4.927  -4.803   0.969  1.00  0.00     0.008 A 
HETATM   18  C   UNL     1       3.940  -5.110   1.908  1.00  0.00     0.043 A 
HETATM   19  C   UNL     1       5.299  -5.806   0.048  1.00  0.00     0.015 A 
HETATM   20  C   UNL     1       3.307  -6.357   1.969  1.00  0.00     0.030 A 
HETATM   21  N   UNL     1       3.758  -3.990   2.682  1.00  0.00    -0.364 N 
HETATM   22  C   UNL     1       3.697  -7.329   1.044  1.00  0.00     0.002 A 
HETATM   23  C   UNL     1       4.680  -7.061   0.096  1.00  0.00     0.001 A 
HETATM   24  H   UNL     1       3.095  -3.924   3.442  1.00  0.00     0.165 HD
HETATM   25  C   UNL     1       4.595  -2.986   2.271  1.00  0.00     0.106 A 
ENDBRANCH   2  16
TORSDOF 4
