REMARK  8 active torsions:
REMARK  status: ('A' for Active; 'I' for Inactive)
REMARK    1  A    between atoms: O_2  and  C_3 
REMARK    2  A    between atoms: C_3  and  C_4 
REMARK    3  A    between atoms: C_7  and  C_8 
REMARK    4  A    between atoms: C_8  and  O_9 
REMARK    5  A    between atoms: O_9  and  C_10 
REMARK    6  A    between atoms: C_11  and  C_12 
REMARK    7  A    between atoms: C_13  and  C_14 
REMARK    8  A    between atoms: C_13  and  C_22 
REMARK       I    between atoms: C_14  and  N_15 
ROOT
HETATM    1  C   UNL     1      -1.152   8.226  -1.904  1.00  0.00     0.035 C 
HETATM    2  C   UNL     1      -2.251   8.440  -2.656  1.00  0.00     0.079 C 
ENDROOT
BRANCH   1   3
HETATM    3  C   UNL     1      -0.558   9.087  -0.866  1.00  0.00    -0.002 A 
HETATM    4  C   UNL     1       0.759   9.550  -0.986  1.00  0.00     0.079 A 
HETATM    5  C   UNL     1       1.355  10.282   0.048  1.00  0.00     0.037 A 
HETATM    6  C   UNL     1       0.623  10.592   1.193  1.00  0.00     0.003 A 
HETATM    7  C   UNL     1      -0.692  10.151   1.317  1.00  0.00     0.001 A 
HETATM    8  C   UNL     1      -1.275   9.391   0.300  1.00  0.00     0.014 A 
BRANCH   4   9
HETATM    9  O   UNL     1       1.487   9.188  -2.090  1.00  0.00    -0.346 OA
BRANCH   9  10
HETATM   10  C   UNL     1       1.936  10.315  -2.854  1.00  0.00     0.214 C 
BRANCH  10  11
HETATM   11  C   UNL     1       3.387  10.149  -3.257  1.00  0.00    -0.034 A 
HETATM   12  C   UNL     1       3.919  10.969  -4.263  1.00  0.00     0.010 A 
HETATM   13  C   UNL     1       5.258  10.850  -4.646  1.00  0.00     0.018 A 
HETATM   14  C   UNL     1       6.091   9.910  -4.027  1.00  0.00     0.039 A 
HETATM   15  C   UNL     1       5.571   9.099  -3.012  1.00  0.00     0.018 A 
HETATM   16  C   UNL     1       4.232   9.222  -2.629  1.00  0.00     0.010 A 
BRANCH  14  17
HETATM   17  C   UNL     1       7.506   9.813  -4.478  1.00  0.00     0.292 C 
HETATM   18  O   UNL     1       7.994  10.538  -5.329  1.00  0.00    -0.259 OA
BRANCH  17  19
HETATM   19  O   UNL     1       8.150   8.814  -3.823  1.00  0.00    -0.323 OA
HETATM   20  C   UNL     1       9.512   8.644  -4.216  1.00  0.00     0.213 C 
ENDBRANCH  17  19
ENDBRANCH  14  17
ENDBRANCH  10  11
ENDBRANCH   9  10
ENDBRANCH   4   9
ENDBRANCH   1   3
BRANCH   2  21
HETATM   21  C   UNL     1      -2.635   7.380  -3.656  1.00  0.00     0.257 C 
HETATM   22  N   UNL     1      -2.868   6.081  -3.244  1.00  0.00    -0.344 N 
HETATM   23  C   UNL     1      -3.180   5.059  -4.248  1.00  0.00     0.152 C 
HETATM   24  C   UNL     1      -2.718   5.508  -1.900  1.00  0.00     0.152 C 
HETATM   25  C   UNL     1      -2.104   3.969  -4.225  1.00  0.00     0.187 C 
HETATM   26  O   UNL     1      -1.966   3.405  -2.908  1.00  0.00    -0.388 OA
HETATM   27  C   UNL     1      -1.638   4.417  -1.938  1.00  0.00     0.187 C 
HETATM   28  O   UNL     1      -2.800   7.724  -4.832  1.00  0.00    -0.267 OA
ENDBRANCH   2  21
BRANCH   2  29
HETATM   29  C   UNL     1      -2.925   9.703  -2.689  1.00  0.00     0.144 A 
HETATM   30  N   UNL     1      -2.978  10.701  -1.823  1.00  0.00    -0.228 NA
HETATM   31  C   UNL     1      -3.672  11.713  -2.438  1.00  0.00     0.086 A 
HETATM   32  C   UNL     1      -4.095  11.326  -3.700  1.00  0.00     0.062 A 
HETATM   33  C   UNL     1      -3.970  13.005  -1.983  1.00  0.00     0.034 A 
HETATM   34  N   UNL     1      -3.625  10.047  -3.830  1.00  0.00    -0.338 N 
HETATM   35  C   UNL     1      -4.817  12.155  -4.560  1.00  0.00     0.032 A 
HETATM   36  H   UNL     1      -3.700   9.463  -4.655  1.00  0.00     0.167 HD
HETATM   37  C   UNL     1      -5.104  13.442  -4.091  1.00  0.00     0.002 A 
HETATM   38  C   UNL     1      -4.687  13.864  -2.826  1.00  0.00     0.002 A 
ENDBRANCH   2  29
TORSDOF 8
