REMARK  3 active torsions:
REMARK  status: ('A' for Active; 'I' for Inactive)
REMARK    1  A    between atoms: N_7  and  N_8 
REMARK       I    between atoms: N_8  and  C_9 
REMARK    2  A    between atoms: C_9  and  C_10 
REMARK    3  A    between atoms: C_14  and  C_15 
ROOT
HETATM    1  C   UNL     1      -3.941   4.295  -0.021  1.00  0.00     0.121 A 
HETATM    2  N   UNL     1      -4.500   5.543  -0.036  1.00  0.00    -0.272 N 
HETATM    3  H   UNL     1      -5.491   5.764  -0.067  1.00  0.00     0.189 HD
HETATM    4  N   UNL     1      -3.607   6.546  -0.003  1.00  0.00    -0.178 NA
HETATM    5  C   UNL     1      -2.418   5.931   0.036  1.00  0.00     0.066 A 
HETATM    6  C   UNL     1      -2.580   4.520   0.024  1.00  0.00     0.066 A 
ENDROOT
BRANCH   1   7
HETATM    7  C   UNL     1      -4.751   3.101  -0.046  1.00  0.00     0.289 C 
HETATM    8  N   UNL     1      -4.023   1.924  -0.033  1.00  0.00    -0.241 N 
HETATM    9  H   UNL     1      -3.004   1.956  -0.014  1.00  0.00     0.192 HD
HETATM   10  O   UNL     1      -5.978   3.160  -0.076  1.00  0.00    -0.264 OA
BRANCH   8  11
HETATM   11  N   UNL     1      -4.640   0.703  -0.040  1.00  0.00    -0.165 NA
HETATM   12  C   UNL     1      -3.856  -0.328  -0.025  1.00  0.00     0.157 A 
HETATM   13  C   UNL     1      -4.276  -1.724  -0.024  1.00  0.00     0.027 A 
HETATM   14  C   UNL     1      -2.322  -0.354  -0.005  1.00  0.00     0.277 A 
HETATM   15  C   UNL     1      -5.534  -2.287  -0.035  1.00  0.00     0.016 A 
HETATM   16  C   UNL     1      -3.110  -2.490  -0.007  1.00  0.00     0.048 A 
HETATM   17  C   UNL     1      -5.601  -3.683  -0.027  1.00  0.00     0.001 A 
HETATM   18  C   UNL     1      -4.426  -4.464  -0.010  1.00  0.00     0.002 A 
HETATM   19  C   UNL     1      -3.159  -3.867   0.000  1.00  0.00     0.030 A 
HETATM   20  N   UNL     1      -1.973  -1.686   0.004  1.00  0.00    -0.321 N 
HETATM   21  H   UNL     1      -1.018  -2.011   0.017  1.00  0.00     0.169 HD
HETATM   22  O   UNL     1      -1.615   0.632   0.003  1.00  0.00    -0.266 OA
ENDBRANCH   8  11
ENDBRANCH   1   7
BRANCH   5  23
HETATM   23  C   UNL     1      -1.114   6.705   0.090  1.00  0.00     0.007 C 
HETATM   24  C   UNL     1      -1.330   8.246   0.075  1.00  0.00     0.020 C 
HETATM   25  C   UNL     1       0.013   8.995   0.133  1.00  0.00    -0.013 C 
HETATM   26  C   UNL     1       0.866   8.600  -1.083  1.00  0.00     0.009 C 
HETATM   27  C   UNL     1       0.754   8.608   1.422  1.00  0.00     0.009 C 
HETATM   28  C   UNL     1       1.123   7.085  -1.072  1.00  0.00    -0.013 C 
HETATM   29  C   UNL     1      -0.222   6.341  -1.131  1.00  0.00     0.020 C 
HETATM   30  C   UNL     1       1.858   6.703   0.223  1.00  0.00     0.009 C 
HETATM   31  C   UNL     1       1.011   7.094   1.444  1.00  0.00    -0.013 C 
HETATM   32  C   UNL     1      -0.334   6.350   1.387  1.00  0.00     0.020 C 
ENDBRANCH   5  23
TORSDOF 3
