REMARK  4 active torsions:
REMARK  status: ('A' for Active; 'I' for Inactive)
REMARK    1  A    between atoms: C_9  and  C_10 
REMARK    2  A    between atoms: C_17  and  C_18 
REMARK       I    between atoms: C_18  and  N_19 
REMARK    3  A    between atoms: N_19  and  C_20 
REMARK    4  A    between atoms: C_23  and  O_24 
ROOT
HETATM    1  C   UNL     1       1.186   0.105   0.934  1.00  0.00     0.070 C 
HETATM    2  C   UNL     1       2.498   0.014   0.196  1.00  0.00     0.037 C 
HETATM    3  N   UNL     1       3.062   1.230  -0.178  1.00  0.00    -0.192 N 
HETATM    4  C   UNL     1       4.333   1.348  -0.609  1.00  0.00     0.725 A 
HETATM    5  N   UNL     1       5.069   0.219  -0.849  1.00  0.00    -0.084 N 
HETATM    6  N   UNL     1       6.339   0.524  -1.189  1.00  0.00    -0.149 NA
HETATM    7  C   UNL     1       6.282   1.861  -1.178  1.00  0.00     0.275 A 
HETATM    8  N   UNL     1       5.071   2.405  -0.832  1.00  0.00    -0.054 NA
HETATM    9  C   UNL     1       4.550  -1.146  -0.700  1.00  0.00     0.202 C 
HETATM   10  C   UNL     1       3.169  -1.139  -0.052  1.00  0.00     0.062 C 
HETATM   11  H   UNL     1       2.578   2.079   0.105  1.00  0.00     0.184 HD
ENDROOT
BRANCH  10  12
HETATM   12  C   UNL     1       2.707  -2.488   0.372  1.00  0.00     0.256 C 
HETATM   13  N   UNL     1       1.454  -2.814  -0.096  1.00  0.00    -0.323 N 
HETATM   14  H   UNL     1       0.987  -2.132  -0.680  1.00  0.00     0.169 HD
HETATM   15  O   UNL     1       3.468  -3.186   1.030  1.00  0.00    -0.267 OA
BRANCH  13  16
HETATM   16  C   UNL     1       0.733  -4.001   0.156  1.00  0.00     0.035 A 
HETATM   17  C   UNL     1       1.236  -5.080   0.882  1.00  0.00     0.032 A 
HETATM   18  C   UNL     1       0.448  -6.217   1.095  1.00  0.00     0.039 A 
HETATM   19  C   UNL     1      -0.852  -6.294   0.597  1.00  0.00     0.068 A 
HETATM   20  C   UNL     1      -1.360  -5.220  -0.130  1.00  0.00     0.039 A 
HETATM   21  C   UNL     1      -0.569  -4.084  -0.352  1.00  0.00     0.032 A 
BRANCH  19  22
HETATM   22  O   UNL     1      -1.508  -7.457   0.886  1.00  0.00    -0.356 OA
HETATM   23  C   UNL     1      -2.853  -7.569   0.437  1.00  0.00     0.210 C 
ENDBRANCH  19  22
ENDBRANCH  13  16
ENDBRANCH  10  12
BRANCH   9  24
HETATM   24  C   UNL     1       4.540  -1.864  -2.050  1.00  0.00    -0.028 A 
HETATM   25  C   UNL     1       5.119  -3.141  -2.158  1.00  0.00     0.011 A 
HETATM   26  C   UNL     1       5.113  -3.826  -3.376  1.00  0.00     0.024 A 
HETATM   27  C   UNL     1       4.524  -3.244  -4.495  1.00  0.00     0.034 A 
HETATM   28 CL   UNL     1       4.522  -4.084  -5.997  1.00  0.00    -0.084 Cl
HETATM   29  C   UNL     1       3.934  -1.985  -4.406  1.00  0.00     0.024 A 
HETATM   30  C   UNL     1       3.936  -1.300  -3.189  1.00  0.00     0.011 A 
ENDBRANCH   9  24
TORSDOF 4
