REMARK  8 active torsions:
REMARK  status: ('A' for Active; 'I' for Inactive)
REMARK    1  A    between atoms: C_5  and  C_6 
REMARK       I    between atoms: C_6  and  N_7 
REMARK    2  A    between atoms: N_7  and  N_8 
REMARK       I    between atoms: N_8  and  C_9 
REMARK    3  A    between atoms: C_9  and  C_10 
REMARK    4  A    between atoms: C_10  and  C_11 
REMARK    5  A    between atoms: C_11  and  N_12 
REMARK    6  A    between atoms: N_12  and  C_13 
REMARK    7  A    between atoms: C_14  and  N_15 
REMARK    8  A    between atoms: C_19  and  C_20 
ROOT
HETATM    1  C   UNL     1       5.810  -1.176  -0.165  1.00  0.00     0.102 C 
ENDROOT
BRANCH   1   2
HETATM    2  C   UNL     1       6.251   0.248   0.146  1.00  0.00     0.119 C 
BRANCH   2   3
HETATM    3  C   UNL     1       5.031   1.130   0.163  1.00  0.00     0.237 C 
HETATM    4  N   UNL     1       4.501   1.345   1.416  1.00  0.00    -0.267 N 
HETATM    5  H   UNL     1       4.941   1.060   2.290  1.00  0.00     0.190 HD
HETATM    6  O   UNL     1       4.509   1.561  -0.863  1.00  0.00    -0.272 OA
BRANCH   4   7
HETATM    7  N   UNL     1       3.342   2.117   1.519  1.00  0.00    -0.262 N 
HETATM    8  C   UNL     1       2.808   2.366   2.765  1.00  0.00     0.286 C 
HETATM    9  O   UNL     1       3.343   1.946   3.791  1.00  0.00    -0.264 OA
HETATM   10  H   UNL     1       2.936   2.459   0.652  1.00  0.00     0.190 HD
BRANCH   8  11
HETATM   11  C   UNL     1       1.591   3.145   2.779  1.00  0.00     0.102 A 
HETATM   12  N   UNL     1       0.974   3.493   3.964  1.00  0.00    -0.361 N 
HETATM   13  C   UNL     1      -0.157   4.221   3.716  1.00  0.00     0.088 A 
HETATM   14  H   UNL     1       1.327   3.233   4.878  1.00  0.00     0.165 HD
HETATM   15  C   UNL     1      -0.284   4.351   2.354  1.00  0.00     0.019 A 
HETATM   16  C   UNL     1       0.813   3.677   1.762  1.00  0.00     0.036 A 
ENDBRANCH   8  11
ENDBRANCH   4   7
ENDBRANCH   2   3
ENDBRANCH   1   2
BRANCH   1  17
HETATM   17  N   UNL     1       6.967  -2.073  -0.164  1.00  0.00    -0.290 NA
HETATM   18  H   UNL     1       7.608  -1.886   0.617  1.00  0.00     0.127 HD
BRANCH  17  19
HETATM   19  C   UNL     1       6.785  -3.455  -0.349  1.00  0.00     0.041 A 
HETATM   20  C   UNL     1       7.769  -4.404   0.020  1.00  0.00     0.124 A 
HETATM   21  C   UNL     1       7.625  -5.780  -0.252  1.00  0.00     0.054 A 
HETATM   22  C   UNL     1       6.496  -6.252  -0.931  1.00  0.00     0.050 A 
HETATM   23  C   UNL     1       5.530  -5.324  -1.335  1.00  0.00     0.018 A 
HETATM   24  C   UNL     1       5.682  -3.956  -1.061  1.00  0.00     0.027 A 
BRANCH  20  25
HETATM   25  N   UNL     1       8.981  -3.988   0.733  1.00  0.00    -0.114 N 
HETATM   26  O   UNL     1       8.900  -3.011   1.496  1.00  0.00    -0.532 OA
HETATM   27  O   UNL     1      10.009  -4.656   0.552  1.00  0.00    -0.532 OA
ENDBRANCH  20  25
BRANCH  22  28
HETATM   28  C   UNL     1       6.310  -7.719  -1.236  1.00  0.00     0.417 C 
HETATM   29  F   UNL     1       7.352  -8.493  -0.829  1.00  0.00    -0.166 F 
HETATM   30  F   UNL     1       5.203  -8.233  -0.633  1.00  0.00    -0.166 F 
HETATM   31  F   UNL     1       6.160  -7.959  -2.567  1.00  0.00    -0.166 F 
ENDBRANCH  22  28
ENDBRANCH  17  19
ENDBRANCH   1  17
TORSDOF 8
