REMARK  2 active torsions:
REMARK  status: ('A' for Active; 'I' for Inactive)
REMARK    1  A    between atoms: C_15  and  C_16 
REMARK    2  A    between atoms: C_19  and  O_20 
ROOT
HETATM    1  C   UNL     1       1.458   1.236  -0.232  1.00  0.00     0.048 C 
HETATM    2  C   UNL     1       2.873   0.783  -0.020  1.00  0.00    -0.061 A 
HETATM    3  C   UNL     1       3.934   1.707  -0.037  1.00  0.00     0.021 A 
HETATM    4  C   UNL     1       5.258   1.259   0.149  1.00  0.00    -0.000 A 
HETATM    5  C   UNL     1       5.475  -0.110   0.356  1.00  0.00     0.043 A 
HETATM    6  N   UNL     1       6.830  -0.295   0.526  1.00  0.00    -0.353 N 
HETATM    7  H   UNL     1       7.284  -1.178   0.718  1.00  0.00     0.166 HD
HETATM    8  C   UNL     1       7.471   0.894   0.363  1.00  0.00     0.066 A 
HETATM    9  C   UNL     1       6.534   1.892   0.185  1.00  0.00    -0.017 A 
HETATM   10  C   UNL     1       6.939   3.337   0.069  1.00  0.00     0.043 C 
HETATM   11  C   UNL     1       8.441   3.555   0.467  1.00  0.00     0.018 C 
HETATM   12  C   UNL     1       9.327   2.472  -0.180  1.00  0.00     0.065 C 
HETATM   13  C   UNL     1       8.862   1.178   0.438  1.00  0.00     0.082 C 
HETATM   14  N   UNL     1       9.716   0.502   1.133  1.00  0.00    -0.203 NA
HETATM   15  C   UNL     1      10.827   2.301   0.091  1.00  0.00     0.121 C 
HETATM   16  N   UNL     1      10.866   1.233   1.118  1.00  0.00    -0.207 NA
HETATM   17  C   UNL     1       4.437  -1.046   0.378  1.00  0.00     0.031 A 
HETATM   18  C   UNL     1       3.136  -0.576   0.182  1.00  0.00     0.009 A 
HETATM   19  H   UNL     1      11.010   1.648   2.043  1.00  0.00     0.149 HD
ENDROOT
BRANCH  15  20
HETATM   20  C   UNL     1      11.756   3.469   0.340  1.00  0.00    -0.038 A 
HETATM   21  C   UNL     1      11.549   4.723  -0.246  1.00  0.00     0.011 A 
HETATM   22  C   UNL     1      12.499   5.745  -0.116  1.00  0.00     0.037 A 
HETATM   23  C   UNL     1      13.697   5.528   0.566  1.00  0.00     0.068 A 
HETATM   24  C   UNL     1      13.923   4.287   1.151  1.00  0.00     0.037 A 
HETATM   25  C   UNL     1      12.969   3.271   1.030  1.00  0.00     0.011 A 
BRANCH  23  26
HETATM   26  O   UNL     1      14.560   6.588   0.581  1.00  0.00    -0.356 OA
HETATM   27  C   UNL     1      15.899   6.307   0.976  1.00  0.00     0.210 C 
ENDBRANCH  23  26
ENDBRANCH  15  20
TORSDOF 2
