REMARK  3 active torsions:
REMARK  status: ('A' for Active; 'I' for Inactive)
REMARK    1  A    between atoms: C_7  and  C_8 
REMARK       I    between atoms: C_8  and  N_9 
REMARK    2  A    between atoms: N_9  and  N_10 
REMARK    3  A    between atoms: C_11  and  C_12 
ROOT
HETATM    1  N   UNL     1       5.166  -3.565  -0.379  1.00  0.00    -0.184 NA
HETATM    2  C   UNL     1       5.817  -4.682  -0.319  1.00  0.00     0.148 C 
ENDROOT
BRANCH   1   3
HETATM    3  N   UNL     1       3.814  -3.594  -0.206  1.00  0.00    -0.243 N 
HETATM    4  C   UNL     1       3.025  -2.480  -0.476  1.00  0.00     0.280 C 
HETATM    5  O   UNL     1       3.491  -1.404  -0.843  1.00  0.00    -0.265 OA
HETATM    6  H   UNL     1       3.365  -4.443   0.115  1.00  0.00     0.192 HD
BRANCH   4   7
HETATM    7  C   UNL     1       1.595  -2.702  -0.321  1.00  0.00     0.102 A 
HETATM    8  C   UNL     1       0.553  -1.837  -0.622  1.00  0.00     0.056 A 
HETATM    9  C   UNL     1       0.663  -0.459  -1.173  1.00  0.00     0.072 C 
HETATM   10  N   UNL     1      -0.717  -2.346  -0.386  1.00  0.00    -0.228 NA
HETATM   11  C   UNL     1      -0.642  -3.566   0.077  1.00  0.00     0.165 A 
HETATM   12  N   UNL     1      -1.722  -4.299   0.386  1.00  0.00    -0.378 N 
HETATM   13  S   UNL     1       0.944  -4.176   0.283  1.00  0.00    -0.045 SA
HETATM   14  H   UNL     1      -2.588  -3.778   0.467  1.00  0.00     0.158 HD
HETATM   15  H   UNL     1      -1.622  -5.046   1.061  1.00  0.00     0.158 HD
ENDBRANCH   4   7
ENDBRANCH   1   3
BRANCH   2  16
HETATM   16  C   UNL     1       5.314  -6.072  -0.176  1.00  0.00    -0.014 C 
HETATM   17  C   UNL     1       6.006  -6.950   0.820  1.00  0.00     0.216 C 
HETATM   18  O   UNL     1       5.813  -8.361   0.630  1.00  0.00    -0.344 OA
HETATM   19  C   UNL     1       4.649  -8.758   0.024  1.00  0.00     0.101 A 
HETATM   20  C   UNL     1       3.894  -7.890  -0.778  1.00  0.00     0.001 A 
HETATM   21  C   UNL     1       4.239 -10.090   0.177  1.00  0.00     0.069 A 
HETATM   22  C   UNL     1       2.727  -8.350  -1.397  1.00  0.00     0.038 A 
HETATM   23  C   UNL     1       4.341  -6.517  -0.978  1.00  0.00     0.025 C 
HETATM   24  C   UNL     1       2.321  -9.672  -1.216  1.00  0.00     0.036 A 
HETATM   25  C   UNL     1       3.072 -10.546  -0.436  1.00  0.00     0.050 A 
HETATM   26 CL   UNL     1       0.876 -10.226  -1.968  1.00  0.00    -0.084 Cl
HETATM   27 CL   UNL     1       5.148 -11.203   1.135  1.00  0.00    -0.081 Cl
ENDBRANCH   2  16
TORSDOF 3
