REMARK  7 active torsions:
REMARK  status: ('A' for Active; 'I' for Inactive)
REMARK    1  A    between atoms: C_2  and  O_3 
REMARK    2  A    between atoms: O_3  and  C_4 
REMARK    3  A    between atoms: C_4  and  C_5 
REMARK    4  A    between atoms: C_6  and  C_7 
REMARK    5  A    between atoms: C_18  and  S_19 
REMARK    6  A    between atoms: S_19  and  C_20 
REMARK    7  A    between atoms: C_20  and  C_21 
ROOT
HETATM    1  C   UNL     1       5.381   0.295  -0.346  1.00  0.00     0.070 C 
HETATM    2  C   UNL     1       6.646   0.839   0.323  1.00  0.00     0.203 C 
HETATM    3  N   UNL     1       7.296  -0.195   1.132  1.00  0.00    -0.082 N 
HETATM    4  C   UNL     1       7.025  -1.529   1.022  1.00  0.00     0.726 A 
HETATM    5  N   UNL     1       6.082  -1.933   0.147  1.00  0.00    -0.192 N 
HETATM    6  N   UNL     1       8.161   0.052   2.130  1.00  0.00    -0.128 NA
HETATM    7  C   UNL     1       8.423  -1.192   2.549  1.00  0.00     0.226 A 
HETATM    8  N   UNL     1       7.755  -2.193   1.882  1.00  0.00    -0.035 NA
HETATM    9  C   UNL     1       5.187  -1.047  -0.460  1.00  0.00     0.037 C 
HETATM   10  C   UNL     1       4.058  -1.699  -1.218  1.00  0.00     0.070 C 
HETATM   11  H   UNL     1       5.823  -2.917   0.148  1.00  0.00     0.184 HD
ENDROOT
BRANCH   7  12
HETATM   12  S   UNL     1       9.507  -1.461   3.882  1.00  0.00    -0.083 SA
BRANCH  12  13
HETATM   13  C   UNL     1       9.524  -3.273   3.939  1.00  0.00     0.123 C 
BRANCH  13  14
HETATM   14  C   UNL     1      10.404  -3.772   5.062  1.00  0.00    -0.027 A 
HETATM   15  C   UNL     1       9.911  -4.067   6.344  1.00  0.00     0.041 A 
HETATM   16 CL   UNL     1       8.236  -3.919   6.742  1.00  0.00    -0.084 Cl
HETATM   17  C   UNL     1      10.777  -4.493   7.358  1.00  0.00     0.024 A 
HETATM   18  C   UNL     1      12.143  -4.622   7.110  1.00  0.00     0.002 A 
HETATM   19  C   UNL     1      12.648  -4.327   5.848  1.00  0.00     0.001 A 
HETATM   20  C   UNL     1      11.787  -3.904   4.833  1.00  0.00     0.009 A 
ENDBRANCH  13  14
ENDBRANCH  12  13
ENDBRANCH   7  12
BRANCH   2  21
HETATM   21  C   UNL     1       7.648   1.397  -0.692  1.00  0.00    -0.028 A 
HETATM   22  C   UNL     1       8.035   2.746  -0.620  1.00  0.00     0.011 A 
HETATM   23  C   UNL     1       8.925   3.285  -1.553  1.00  0.00     0.024 A 
HETATM   24  C   UNL     1       9.437   2.481  -2.568  1.00  0.00     0.034 A 
HETATM   25 CL   UNL     1      10.522   3.147  -3.724  1.00  0.00    -0.084 Cl
HETATM   26  C   UNL     1       9.071   1.140  -2.655  1.00  0.00     0.024 A 
HETATM   27  C   UNL     1       8.182   0.600  -1.722  1.00  0.00     0.011 A 
ENDBRANCH   2  21
BRANCH   1  28
HETATM   28  C   UNL     1       4.450   1.380  -0.755  1.00  0.00     0.293 C 
HETATM   29  O   UNL     1       4.777   2.558  -0.779  1.00  0.00    -0.259 OA
BRANCH  28  30
HETATM   30  O   UNL     1       3.196   0.923  -0.977  1.00  0.00    -0.318 OA
BRANCH  30  31
HETATM   31  C   UNL     1       2.203   1.922  -1.258  1.00  0.00     0.174 C 
HETATM   32  C   UNL     1       2.256   2.339  -2.717  1.00  0.00     0.034 C 
ENDBRANCH  30  31
ENDBRANCH  28  30
ENDBRANCH   1  28
TORSDOF 7
