REMARK  10 active torsions:
REMARK  status: ('A' for Active; 'I' for Inactive)
REMARK    1  A    between atoms: C_2  and  C_3 
REMARK    2  A    between atoms: C_3  and  N_4 
REMARK    3  A    between atoms: C_7  and  C_8 
REMARK       I    between atoms: C_8  and  N_9 
REMARK    4  A    between atoms: N_9  and  C_10 
REMARK    5  A    between atoms: C_10  and  C_11 
REMARK    6  A    between atoms: C_11  and  O_12 
REMARK    7  A    between atoms: C_11  and  C_13 
REMARK    8  A    between atoms: C_13  and  O_14 
REMARK    9  A    between atoms: O_14  and  C_15 
REMARK   10  A    between atoms: C_23  and  C_24 
ROOT
HETATM    1  C   UNL     1       1.835   4.244  -8.083  1.00  0.00     0.255 C 
HETATM    2  N   UNL     1       1.374   3.262  -7.246  1.00  0.00    -0.354 N 
HETATM    3  O   UNL     1       1.148   4.753  -8.962  1.00  0.00    -0.268 OA
HETATM    4  H   UNL     1       2.039   2.749  -6.680  1.00  0.00     0.162 HD
ENDROOT
BRANCH   2   5
HETATM    5  C   UNL     1      -0.007   2.818  -7.242  1.00  0.00     0.156 C 
BRANCH   5   6
HETATM    6  C   UNL     1      -0.224   1.507  -8.002  1.00  0.00     0.160 C 
BRANCH   6   7
HETATM    7  O   UNL     1       0.612   0.487  -7.427  1.00  0.00    -0.392 OA
HETATM    8  H   UNL     1       0.531  -0.283  -8.022  1.00  0.00     0.210 HD
ENDBRANCH   6   7
BRANCH   6   9
HETATM    9  C   UNL     1       0.052   1.619  -9.506  1.00  0.00     0.209 C 
BRANCH   9  10
HETATM   10  O   UNL     1      -0.355   0.370 -10.086  1.00  0.00    -0.349 OA
BRANCH  10  11
HETATM   11  C   UNL     1      -0.301   0.270 -11.449  1.00  0.00     0.069 A 
HETATM   12  C   UNL     1      -0.881  -0.891 -11.970  1.00  0.00     0.043 A 
HETATM   13  C   UNL     1      -0.901  -1.132 -13.350  1.00  0.00    -0.059 A 
HETATM   14  C   UNL     1      -1.524  -2.377 -13.907  1.00  0.00     0.048 C 
HETATM   15  C   UNL     1      -0.314  -0.197 -14.208  1.00  0.00     0.007 A 
HETATM   16  C   UNL     1       0.272   0.960 -13.693  1.00  0.00     0.003 A 
HETATM   17  C   UNL     1       0.278   1.196 -12.315  1.00  0.00     0.037 A 
ENDBRANCH  10  11
ENDBRANCH   9  10
ENDBRANCH   6   9
ENDBRANCH   5   6
ENDBRANCH   2   5
BRANCH   1  18
HETATM   18  C   UNL     1       3.230   4.573  -7.901  1.00  0.00     0.075 A 
HETATM   19  C   UNL     1       4.253   4.249  -8.818  1.00  0.00     0.158 A 
HETATM   20  N   UNL     1       5.451   4.681  -8.431  1.00  0.00    -0.183 NA
HETATM   21  N   UNL     1       5.194   5.381  -7.308  1.00  0.00    -0.268 N 
HETATM   22  C   UNL     1       3.873   5.297  -6.903  1.00  0.00     0.052 A 
BRANCH  21  23
HETATM   23  C   UNL     1       6.292   6.093  -6.654  1.00  0.00     0.106 C 
HETATM   24  C   UNL     1       7.081   5.132  -5.763  1.00  0.00     0.034 C 
BRANCH  23  25
HETATM   25  C   UNL     1       7.233   6.824  -7.634  1.00  0.00     0.022 C 
HETATM   26  C   UNL     1       6.532   7.922  -8.424  1.00  0.00     0.007 C 
ENDBRANCH  23  25
ENDBRANCH  21  23
BRANCH  22  27
HETATM   27  C   UNL     1       3.315   5.958  -5.640  1.00  0.00     0.038 A 
HETATM   28  C   UNL     1       1.873   6.409  -5.587  1.00  0.00     0.011 A 
HETATM   29  C   UNL     1       2.312   5.246  -4.765  1.00  0.00     0.011 A 
ENDBRANCH  22  27
ENDBRANCH   1  18
TORSDOF 10
