REMARK  3 active torsions:
REMARK  status: ('A' for Active; 'I' for Inactive)
REMARK    1  A    between atoms: C_9  and  C_10 
REMARK       I    between atoms: C_10  and  N_11 
REMARK    2  A    between atoms: N_11  and  C_12 
REMARK    3  A    between atoms: C_19  and  C_20 
REMARK       I    between atoms: C_20  and  N_21 
ROOT
HETATM    1  C   UNL     1       6.554  -5.922  -1.465  1.00  0.00     0.035 A 
HETATM    2  C   UNL     1       5.995  -7.187  -1.238  1.00  0.00     0.046 A 
HETATM    3  C   UNL     1       6.593  -8.329  -1.807  1.00  0.00     0.030 A 
HETATM    4  C   UNL     1       7.751  -8.175  -2.556  1.00  0.00     0.063 A 
HETATM    5  N   UNL     1       8.084  -9.437  -2.963  1.00  0.00    -0.277 N 
HETATM    6  H   UNL     1       8.880  -9.710  -3.528  1.00  0.00     0.189 HD
HETATM    7  N   UNL     1       7.226 -10.396  -2.570  1.00  0.00    -0.168 NA
HETATM    8  C   UNL     1       6.295  -9.723  -1.856  1.00  0.00     0.156 A 
HETATM    9  C   UNL     1       8.350  -6.933  -2.783  1.00  0.00     0.034 A 
HETATM   10  C   UNL     1       7.718  -5.807  -2.234  1.00  0.00     0.032 A 
ENDROOT
BRANCH   1  11
HETATM   11  N   UNL     1       5.933  -4.734  -1.028  1.00  0.00    -0.325 N 
HETATM   12  C   UNL     1       4.868  -4.648  -0.145  1.00  0.00     0.252 C 
HETATM   13  O   UNL     1       4.531  -5.515   0.657  1.00  0.00    -0.270 OA
HETATM   14  H   UNL     1       6.283  -3.853  -1.391  1.00  0.00     0.169 HD
BRANCH  12  15
HETATM   15  C   UNL     1       4.036  -3.385  -0.366  1.00  0.00     0.225 C 
HETATM   16  C   UNL     1       2.977  -3.199   0.723  1.00  0.00     0.083 C 
HETATM   17  C   UNL     1       2.794  -1.739   0.567  1.00  0.00    -0.021 A 
HETATM   18  C   UNL     1       3.895  -1.213  -0.088  1.00  0.00     0.076 A 
HETATM   19  C   UNL     1       1.758  -0.930   0.992  1.00  0.00     0.017 A 
HETATM   20  C   UNL     1       4.014   0.137  -0.335  1.00  0.00     0.044 A 
HETATM   21  O   UNL     1       4.812  -2.169  -0.462  1.00  0.00    -0.336 OA
HETATM   22  C   UNL     1       2.962   0.986   0.059  1.00  0.00    -0.053 A 
HETATM   23  C   UNL     1       1.830   0.448   0.734  1.00  0.00    -0.055 A 
HETATM   24  C   UNL     1       3.068   2.460  -0.224  1.00  0.00     0.049 C 
HETATM   25  C   UNL     1       0.677   1.322   1.149  1.00  0.00     0.049 C 
ENDBRANCH  12  15
ENDBRANCH   1  11
BRANCH   8  26
HETATM   26  C   UNL     1       5.136 -10.407  -1.263  1.00  0.00     0.270 C 
HETATM   27  N   UNL     1       5.107 -11.757  -1.486  1.00  0.00    -0.365 N 
HETATM   28  H   UNL     1       5.845 -12.174  -2.042  1.00  0.00     0.159 HD
HETATM   29  H   UNL     1       4.329 -12.300  -1.146  1.00  0.00     0.159 HD
HETATM   30  O   UNL     1       4.242  -9.851  -0.635  1.00  0.00    -0.266 OA
ENDBRANCH   8  26
TORSDOF 3
