REMARK  8 active torsions:
REMARK  status: ('A' for Active; 'I' for Inactive)
REMARK    1  A    between atoms: C_3  and  C_4 
REMARK    2  A    between atoms: C_4  and  C_5 
REMARK       I    between atoms: C_5  and  N_6 
REMARK    3  A    between atoms: N_6  and  C_7 
REMARK    4  A    between atoms: C_14  and  N_15 
REMARK       I    between atoms: N_15  and  C_16 
REMARK    5  A    between atoms: C_16  and  C_17 
REMARK    6  A    between atoms: C_26  and  C_27 
REMARK    7  A    between atoms: C_27  and  O_28 
REMARK    8  A    between atoms: C_30  and  O_31 
ROOT
HETATM    1  C   UNL     1       1.016  -3.139   3.902  1.00  0.00     0.216 C 
HETATM    2  C   UNL     1      -0.408  -3.426   4.103  1.00  0.00    -0.098 C 
HETATM    3  C   UNL     1      -1.571  -3.667   4.279  1.00  0.00     0.014 C 
ENDROOT
BRANCH   1   4
HETATM    4  N   UNL     1       1.194  -2.105   2.917  1.00  0.00    -0.351 N 
HETATM    5  C   UNL     1       1.323  -0.785   3.253  1.00  0.00     0.219 C 
HETATM    6  O   UNL     1       1.326  -0.370   4.409  1.00  0.00    -0.274 OA
HETATM    7  H   UNL     1       0.965  -2.348   1.951  1.00  0.00     0.163 HD
BRANCH   5   8
HETATM    8  C   UNL     1       1.505   0.162   2.078  1.00  0.00     0.114 C 
BRANCH   8   9
HETATM    9  C   UNL     1       0.161   0.537   1.418  1.00  0.00     0.056 C 
HETATM   10  C   UNL     1      -0.075   2.075   0.992  1.00  0.00    -0.030 C 
HETATM   11  C   UNL     1      -1.519   2.413   1.507  1.00  0.00     0.016 C 
HETATM   12  C   UNL     1      -0.072   2.366  -0.579  1.00  0.00     0.012 C 
HETATM   13  C   UNL     1       0.846   3.100   1.709  1.00  0.00     0.013 C 
HETATM   14  C   UNL     1      -0.982   1.377  -1.353  1.00  0.00     0.055 C 
HETATM   15  C   UNL     1       1.351   2.608  -1.237  1.00  0.00     0.008 C 
HETATM   16  C   UNL     1      -0.698  -0.015  -0.935  1.00  0.00     0.012 A 
HETATM   17  C   UNL     1      -0.168  -0.404   0.276  1.00  0.00     0.056 A 
HETATM   18  S   UNL     1      -0.977  -1.366  -1.934  1.00  0.00    -0.055 SA
HETATM   19  N   UNL     1       0.099  -1.759   0.370  1.00  0.00    -0.227 NA
HETATM   20  C   UNL     1      -0.278  -2.356  -0.732  1.00  0.00     0.174 A 
HETATM   21  C   UNL     1       1.171   3.166  -2.679  1.00  0.00     0.020 C 
HETATM   22  C   UNL     1       2.115   3.681  -0.408  1.00  0.00     0.128 C 
HETATM   23  C   UNL     1       2.218   3.309   1.068  1.00  0.00     0.033 C 
BRANCH  20  24
HETATM   24  N   UNL     1      -0.166  -3.663  -1.095  1.00  0.00    -0.301 N 
HETATM   25  C   UNL     1       0.494  -4.598  -0.331  1.00  0.00     0.264 C 
HETATM   26  O   UNL     1       1.009  -4.365   0.760  1.00  0.00    -0.267 OA
HETATM   27  H   UNL     1      -0.528  -3.926  -1.999  1.00  0.00     0.171 HD
BRANCH  25  28
HETATM   28  C   UNL     1       0.573  -5.925  -0.944  1.00  0.00     0.072 A 
HETATM   29  S   UNL     1      -0.125  -6.278  -2.474  1.00  0.00    -0.097 SA
HETATM   30  C   UNL     1       0.423  -7.895  -2.434  1.00  0.00     0.050 A 
HETATM   31  C   UNL     1       1.120  -8.175  -1.280  1.00  0.00     0.009 A 
HETATM   32  C   UNL     1       1.203  -7.041  -0.421  1.00  0.00     0.025 A 
ENDBRANCH  25  28
ENDBRANCH  20  24
BRANCH  15  33
HETATM   33  C   UNL     1       2.210   1.327  -1.358  1.00  0.00     0.176 C 
BRANCH  33  34
HETATM   34  O   UNL     1       3.487   1.623  -1.917  1.00  0.00    -0.400 OA
HETATM   35  H   UNL     1       3.984   0.786  -1.950  1.00  0.00     0.209 HD
ENDBRANCH  33  34
ENDBRANCH  15  33
BRANCH  22  36
HETATM   36  O   UNL     1       1.447   4.946  -0.483  1.00  0.00    -0.395 OA
HETATM   37  H   UNL     1       1.728   5.368  -1.313  1.00  0.00     0.210 HD
ENDBRANCH  22  36
ENDBRANCH   8   9
ENDBRANCH   5   8
ENDBRANCH   1   4
TORSDOF 8
