REMARK  6 active torsions:
REMARK  status: ('A' for Active; 'I' for Inactive)
REMARK    1  A    between atoms: C_5  and  N_6 
REMARK    2  A    between atoms: N_6  and  C_7 
REMARK    3  A    between atoms: C_7  and  C_8 
REMARK    4  A    between atoms: N_10  and  C_12 
REMARK    5  A    between atoms: C_12  and  C_13 
REMARK    6  A    between atoms: C_14  and  C_15 
ROOT
HETATM    1  C   UNL     1       5.552   4.952  -0.846  1.00  0.00     0.031 C 
HETATM    2  C   UNL     1       6.757   4.930   0.101  1.00  0.00     0.241 C 
HETATM    3  N   UNL     1       7.260   6.361   0.155  1.00  0.00    -0.067 N 
HETATM    4  H   UNL     1       7.190   6.680   1.132  1.00  0.00     0.280 HD
HETATM    5  C   UNL     1       6.303   7.220  -0.643  1.00  0.00     0.235 C 
HETATM    6  C   UNL     1       5.040   6.383  -0.694  1.00  0.00     0.035 C 
ENDROOT
BRANCH   3   7
HETATM    7  C   UNL     1       8.724   6.516  -0.197  1.00  0.00     0.277 C 
BRANCH   7   8
HETATM    8  C   UNL     1       9.179   7.922  -0.309  1.00  0.00     0.016 A 
HETATM    9  C   UNL     1      10.007   8.491  -1.329  1.00  0.00     0.102 A 
HETATM   10  N   UNL     1      10.163   9.804  -1.129  1.00  0.00    -0.174 NA
HETATM   11  N   UNL     1       9.570  10.062   0.039  1.00  0.00    -0.288 N 
HETATM   12  H   UNL     1       9.631  11.007   0.412  1.00  0.00     0.188 HD
HETATM   13  C   UNL     1       8.939   8.970   0.564  1.00  0.00     0.120 A 
BRANCH   9  14
HETATM   14  C   UNL     1      10.641   7.853  -2.474  1.00  0.00     0.072 A 
HETATM   15  C   UNL     1       9.897   7.179  -3.445  1.00  0.00     0.132 A 
HETATM   16  F   UNL     1       8.564   7.053  -3.317  1.00  0.00    -0.205 F 
HETATM   17  C   UNL     1      10.512   6.587  -4.551  1.00  0.00     0.043 A 
HETATM   18  C   UNL     1      11.896   6.664  -4.698  1.00  0.00     0.006 A 
HETATM   19  C   UNL     1      12.657   7.324  -3.734  1.00  0.00     0.043 A 
HETATM   20  C   UNL     1      12.029   7.911  -2.636  1.00  0.00     0.132 A 
HETATM   21  F   UNL     1      12.799   8.498  -1.707  1.00  0.00    -0.205 F 
ENDBRANCH   9  14
ENDBRANCH   7   8
ENDBRANCH   3   7
BRANCH   1  22
HETATM   22  C   UNL     1       5.947   4.596  -2.296  1.00  0.00     0.127 C 
BRANCH  22  23
HETATM   23  N   UNL     1       4.768   4.649  -3.165  1.00  0.00    -0.376 N 
HETATM   24  H   UNL     1       3.963   4.152  -2.791  1.00  0.00     0.161 HD
BRANCH  23  25
HETATM   25  C   UNL     1       4.889   4.668  -4.546  1.00  0.00     0.101 A 
HETATM   26  N   UNL     1       3.842   4.244  -5.280  1.00  0.00    -0.347 N 
HETATM   27  C   UNL     1       3.810   4.242  -6.627  1.00  0.00     0.007 A 
HETATM   28  H   UNL     1       3.019   3.918  -4.784  1.00  0.00     0.167 HD
HETATM   29  C   UNL     1       2.585   3.743  -7.325  1.00  0.00     0.068 C 
HETATM   30  C   UNL     1       4.911   4.718  -7.334  1.00  0.00     0.025 A 
HETATM   31  C   UNL     1       6.010   5.191  -6.632  1.00  0.00     0.006 A 
HETATM   32  C   UNL     1       5.997   5.173  -5.239  1.00  0.00     0.048 A 
ENDBRANCH  23  25
ENDBRANCH  22  23
ENDBRANCH   1  22
TORSDOF 6
