REMARK  7 active torsions:
REMARK  status: ('A' for Active; 'I' for Inactive)
REMARK       I    between atoms: N_2  and  C_3 
REMARK    1  A    between atoms: N_2  and  C_24 
REMARK    2  A    between atoms: C_3  and  C_4 
REMARK    3  A    between atoms: C_7  and  N_8 
REMARK    4  A    between atoms: C_11  and  N_12 
REMARK       I    between atoms: N_12  and  C_13 
REMARK    5  A    between atoms: C_13  and  C_14 
REMARK    6  A    between atoms: C_24  and  C_25 
REMARK    7  A    between atoms: C_27  and  O_28 
ROOT
HETATM    1  C   UNL     1      13.780  -8.919   0.465  1.00  0.00     0.032 A 
HETATM    2  C   UNL     1      14.196  -7.985  -0.485  1.00  0.00     0.019 A 
HETATM    3  C   UNL     1      14.230  -6.624  -0.171  1.00  0.00     0.032 A 
HETATM    4  C   UNL     1      13.796  -6.173   1.085  1.00  0.00     0.058 A 
HETATM    5  C   UNL     1      13.368  -7.106   2.038  1.00  0.00     0.032 A 
HETATM    6  C   UNL     1      13.361  -8.472   1.725  1.00  0.00     0.019 A 
ENDROOT
BRANCH   4   7
HETATM    7  N   UNL     1      13.741  -4.772   1.332  1.00  0.00    -0.243 N 
HETATM    8  N   UNL     1      14.211  -3.890   0.413  1.00  0.00    -0.178 NA
HETATM    9  C   UNL     1      13.887  -2.691   0.898  1.00  0.00     0.170 A 
HETATM   10  C   UNL     1      13.225  -2.774   2.135  1.00  0.00     0.071 A 
HETATM   11  C   UNL     1      13.191  -4.119   2.417  1.00  0.00     0.149 A 
BRANCH  10  12
HETATM   12  N   UNL     1      12.670  -1.802   2.943  1.00  0.00    -0.324 N 
HETATM   13  C   UNL     1      12.650  -0.456   2.633  1.00  0.00     0.228 C 
HETATM   14  O   UNL     1      13.191   0.052   1.652  1.00  0.00    -0.273 OA
HETATM   15  H   UNL     1      12.231  -2.112   3.806  1.00  0.00     0.169 HD
BRANCH  13  16
HETATM   16  C   UNL     1      11.808   0.403   3.571  1.00  0.00     0.104 C 
HETATM   17  C   UNL     1      12.096   0.112   5.025  1.00  0.00     0.181 C 
HETATM   18  O   UNL     1      11.254  -1.008   5.346  1.00  0.00    -0.390 OA
HETATM   19  C   UNL     1      10.041  -0.866   4.590  1.00  0.00     0.168 C 
HETATM   20  C   UNL     1      10.330   0.089   3.445  1.00  0.00     0.042 C 
ENDBRANCH  13  16
ENDBRANCH  10  12
ENDBRANCH   4   7
BRANCH   1  21
HETATM   21  C   UNL     1      13.633 -10.363   0.139  1.00  0.00     0.253 C 
HETATM   22  N   UNL     1      14.616 -11.038  -0.591  1.00  0.00    -0.348 N 
HETATM   23  C   UNL     1      14.348 -12.428  -0.935  1.00  0.00     0.153 C 
HETATM   24  O   UNL     1      12.605 -10.917   0.531  1.00  0.00    -0.267 OA
BRANCH  22  25
HETATM   25  C   UNL     1      16.013 -10.610  -0.682  1.00  0.00     0.164 C 
BRANCH  25  26
HETATM   26  C   UNL     1      16.483 -10.234  -2.073  1.00  0.00    -0.038 A 
HETATM   27  C   UNL     1      15.604 -10.047  -3.156  1.00  0.00     0.045 A 
HETATM   28  C   UNL     1      16.074  -9.614  -4.399  1.00  0.00     0.068 A 
HETATM   29  C   UNL     1      17.441  -9.408  -4.579  1.00  0.00     0.037 A 
HETATM   30  C   UNL     1      18.330  -9.601  -3.523  1.00  0.00     0.003 A 
HETATM   31  C   UNL     1      17.853 -10.003  -2.276  1.00  0.00     0.009 A 
BRANCH  28  32
HETATM   32  O   UNL     1      15.302  -9.365  -5.500  1.00  0.00    -0.356 OA
HETATM   33  C   UNL     1      13.903  -9.225  -5.275  1.00  0.00     0.210 C 
ENDBRANCH  28  32
ENDBRANCH  25  26
ENDBRANCH  22  25
ENDBRANCH   1  21
TORSDOF 7
