REMARK  3 active torsions:
REMARK  status: ('A' for Active; 'I' for Inactive)
REMARK    1  A    between atoms: C_2  and  N_3 
REMARK       I    between atoms: N_3  and  C_4 
REMARK    2  A    between atoms: C_4  and  C_5 
REMARK    3  A    between atoms: C_5  and  C_6 
ROOT
HETATM    1  C   UNL     1      -1.372   2.870  -0.174  1.00  0.00     0.286 C 
HETATM    2  N   UNL     1      -2.170   3.459   0.987  1.00  0.00    -0.056 N 
HETATM    3  H   UNL     1      -2.809   2.721   1.311  1.00  0.00     0.278 HD
HETATM    4  H   UNL     1      -1.519   3.586   1.791  1.00  0.00     0.278 HD
HETATM    5  C   UNL     1      -2.977   4.697   0.731  1.00  0.00     0.209 C 
HETATM    6  C   UNL     1      -3.809   4.508  -0.558  1.00  0.00     0.115 C 
HETATM    7  N   UNL     1      -3.011   4.007  -1.673  1.00  0.00    -0.353 N 
HETATM    8  C   UNL     1      -2.060   3.027  -1.539  1.00  0.00     0.249 C 
HETATM    9  O   UNL     1      -1.710   2.375  -2.518  1.00  0.00    -0.271 OA
HETATM   10  C   UNL     1      -2.083   5.936   0.710  1.00  0.00     0.035 C 
HETATM   11  C   UNL     1      -2.886   7.187   0.365  1.00  0.00     0.002 C 
HETATM   12  C   UNL     1      -3.622   7.019  -0.961  1.00  0.00     0.002 C 
HETATM   13  C   UNL     1      -4.542   5.799  -0.942  1.00  0.00     0.027 C 
HETATM   14  H   UNL     1      -3.436   4.005  -2.600  1.00  0.00     0.163 HD
ENDROOT
BRANCH   1  15
HETATM   15  C   UNL     1       0.059   3.423  -0.298  1.00  0.00     0.146 C 
BRANCH  15  16
HETATM   16  C   UNL     1       0.774   3.537   1.018  1.00  0.00     0.224 C 
HETATM   17  N   UNL     1       2.084   3.880   1.112  1.00  0.00    -0.327 N 
HETATM   18  H   UNL     1       2.392   3.876   2.082  1.00  0.00     0.169 HD
HETATM   19  O   UNL     1       0.133   3.355   2.063  1.00  0.00    -0.273 OA
BRANCH  17  20
HETATM   20  C   UNL     1       3.079   4.252   0.185  1.00  0.00     0.034 A 
HETATM   21  C   UNL     1       2.909   4.396  -1.194  1.00  0.00     0.032 A 
HETATM   22  C   UNL     1       3.980   4.792  -2.006  1.00  0.00     0.044 A 
HETATM   23  C   UNL     1       5.223   5.045  -1.445  1.00  0.00     0.116 A 
HETATM   24  C   UNL     1       5.418   4.909  -0.081  1.00  0.00     0.044 A 
HETATM   25  F   UNL     1       6.238   5.426  -2.228  1.00  0.00    -0.206 F 
HETATM   26  C   UNL     1       4.350   4.515   0.730  1.00  0.00     0.032 A 
ENDBRANCH  17  20
ENDBRANCH  15  16
ENDBRANCH   1  15
TORSDOF 3
