REMARK  4 active torsions:
REMARK  status: ('A' for Active; 'I' for Inactive)
REMARK    1  A    between atoms: C_2  and  C_3 
REMARK    2  A    between atoms: C_3  and  C_4 
REMARK       I    between atoms: C_4  and  N_5 
REMARK    3  A    between atoms: N_5  and  C_6 
REMARK    4  A    between atoms: C_13  and  C_14 
REMARK       I    between atoms: C_14  and  N_15 
ROOT
HETATM    1  C   UNL     1       0.187  -0.189  -1.092  1.00  0.00     0.035 A 
HETATM    2  C   UNL     1      -0.421   0.866  -1.772  1.00  0.00     0.046 A 
HETATM    3  C   UNL     1      -1.672   0.674  -2.402  1.00  0.00     0.030 A 
HETATM    4  C   UNL     1      -2.298  -0.558  -2.291  1.00  0.00     0.063 A 
HETATM    5  N   UNL     1      -3.460  -0.439  -3.003  1.00  0.00    -0.277 N 
HETATM    6  H   UNL     1      -4.172  -1.148  -3.141  1.00  0.00     0.189 HD
HETATM    7  N   UNL     1      -3.626   0.754  -3.601  1.00  0.00    -0.168 NA
HETATM    8  C   UNL     1      -2.527   1.453  -3.237  1.00  0.00     0.156 A 
HETATM    9  C   UNL     1      -1.745  -1.628  -1.589  1.00  0.00     0.034 A 
HETATM   10  C   UNL     1      -0.482  -1.420  -1.013  1.00  0.00     0.032 A 
ENDROOT
BRANCH   1  11
HETATM   11  N   UNL     1       1.491  -0.154  -0.575  1.00  0.00    -0.326 N 
HETATM   12  C   UNL     1       2.389   0.843  -0.278  1.00  0.00     0.235 C 
HETATM   13  O   UNL     1       3.565   0.520  -0.095  1.00  0.00    -0.272 OA
HETATM   14  H   UNL     1       1.924  -1.057  -0.419  1.00  0.00     0.169 HD
BRANCH  12  15
HETATM   15  C   UNL     1       1.967   2.261   0.027  1.00  0.00     0.068 A 
HETATM   16  C   UNL     1       1.778   3.287  -1.085  1.00  0.00     0.026 A 
HETATM   17  C   UNL     1       3.031   3.343  -0.292  1.00  0.00     0.026 A 
BRANCH  15  18
HETATM   18  C   UNL     1       1.303   2.453   1.398  1.00  0.00    -0.040 A 
HETATM   19  C   UNL     1       2.086   2.451   2.571  1.00  0.00     0.010 A 
HETATM   20  C   UNL     1       1.518   2.616   3.837  1.00  0.00     0.024 A 
HETATM   21  C   UNL     1       0.143   2.775   3.954  1.00  0.00     0.034 A 
HETATM   22  C   UNL     1      -0.661   2.773   2.817  1.00  0.00     0.024 A 
HETATM   23 CL   UNL     1      -0.566   2.974   5.508  1.00  0.00    -0.084 Cl
HETATM   24  C   UNL     1      -0.084   2.614   1.551  1.00  0.00     0.010 A 
ENDBRANCH  15  18
ENDBRANCH  12  15
ENDBRANCH   1  11
BRANCH   8  25
HETATM   25  C   UNL     1      -2.294   2.823  -3.714  1.00  0.00     0.270 C 
HETATM   26  N   UNL     1      -3.231   3.276  -4.602  1.00  0.00    -0.365 N 
HETATM   27  H   UNL     1      -3.982   2.652  -4.877  1.00  0.00     0.159 HD
HETATM   28  H   UNL     1      -3.129   4.188  -5.017  1.00  0.00     0.159 HD
HETATM   29  O   UNL     1      -1.342   3.520  -3.378  1.00  0.00    -0.266 OA
ENDBRANCH   8  25
TORSDOF 4
