REMARK  8 active torsions:
REMARK  status: ('A' for Active; 'I' for Inactive)
REMARK    1  A    between atoms: C_2  and  O_3 
REMARK    2  A    between atoms: C_2  and  C_4 
REMARK    3  A    between atoms: C_4  and  N_5 
REMARK       I    between atoms: N_5  and  C_6 
REMARK    4  A    between atoms: C_6  and  C_7 
REMARK    5  A    between atoms: C_10  and  O_11 
REMARK    6  A    between atoms: O_11  and  C_12 
REMARK    7  A    between atoms: C_15  and  O_16 
REMARK    8  A    between atoms: O_16  and  C_17 
ROOT
HETATM    1  C   UNL     1       4.397   3.927   0.973  1.00  0.00     0.049 A 
HETATM    2  C   UNL     1       3.022   3.989   1.158  1.00  0.00     0.136 A 
HETATM    3  N   UNL     1       2.311   5.143   1.202  1.00  0.00    -0.236 NA
HETATM    4  C   UNL     1       3.011   6.293   1.068  1.00  0.00     0.169 A 
HETATM    5  C   UNL     1       4.390   6.343   0.939  1.00  0.00     0.059 A 
HETATM    6  C   UNL     1       5.090   5.139   0.882  1.00  0.00     0.023 A 
ENDROOT
BRANCH   4   7
HETATM    7  O   UNL     1       2.344   7.505   1.127  1.00  0.00    -0.292 OA
BRANCH   7   8
HETATM    8  C   UNL     1       1.183   7.641   0.400  1.00  0.00     0.078 A 
HETATM    9  C   UNL     1       0.256   8.560   0.897  1.00  0.00     0.040 A 
HETATM   10  C   UNL     1      -0.925   8.816   0.197  1.00  0.00     0.040 A 
HETATM   11  C   UNL     1      -1.175   8.171  -1.016  1.00  0.00     0.076 A 
HETATM   12  C   UNL     1      -0.254   7.244  -1.511  1.00  0.00     0.040 A 
HETATM   13  C   UNL     1       0.932   6.996  -0.815  1.00  0.00     0.040 A 
BRANCH  11  14
HETATM   14  O   UNL     1      -2.380   8.460  -1.619  1.00  0.00    -0.311 OA
BRANCH  14  15
HETATM   15  C   UNL     1      -2.446   8.411  -2.991  1.00  0.00     0.076 A 
HETATM   16  C   UNL     1      -3.474   7.654  -3.554  1.00  0.00     0.037 A 
HETATM   17  C   UNL     1      -3.611   7.594  -4.941  1.00  0.00     0.003 A 
HETATM   18  C   UNL     1      -2.731   8.302  -5.760  1.00  0.00     0.000 A 
HETATM   19  C   UNL     1      -1.720   9.080  -5.194  1.00  0.00     0.003 A 
HETATM   20  C   UNL     1      -1.582   9.145  -3.807  1.00  0.00     0.037 A 
ENDBRANCH  14  15
ENDBRANCH  11  14
ENDBRANCH   7   8
ENDBRANCH   4   7
BRANCH   1  21
HETATM   21  C   UNL     1       5.156   2.653   0.882  1.00  0.00     0.253 C 
HETATM   22  N   UNL     1       4.444   1.504   0.600  1.00  0.00    -0.354 N 
HETATM   23  H   UNL     1       3.497   1.582   0.258  1.00  0.00     0.162 HD
HETATM   24  O   UNL     1       6.373   2.668   1.027  1.00  0.00    -0.268 OA
BRANCH  22  25
HETATM   25  C   UNL     1       5.119   0.251   0.293  1.00  0.00     0.154 C 
BRANCH  25  26
HETATM   26  C   UNL     1       6.014  -0.328   1.401  1.00  0.00     0.132 C 
HETATM   27  C   UNL     1       5.268  -0.532   2.713  1.00  0.00     0.041 C 
BRANCH  26  28
HETATM   28  O   UNL     1       6.501  -1.600   0.960  1.00  0.00    -0.394 OA
HETATM   29  H   UNL     1       7.178  -1.881   1.601  1.00  0.00     0.210 HD
ENDBRANCH  26  28
ENDBRANCH  25  26
ENDBRANCH  22  25
ENDBRANCH   1  21
TORSDOF 8
