REMARK  8 active torsions:
REMARK  status: ('A' for Active; 'I' for Inactive)
REMARK    1  A    between atoms: O_2  and  C_3 
REMARK    2  A    between atoms: C_4  and  O_5 
REMARK    3  A    between atoms: C_8  and  C_9 
REMARK    4  A    between atoms: C_9  and  C_10 
REMARK    5  A    between atoms: C_10  and  N_11 
REMARK       I    between atoms: N_11  and  C_12 
REMARK    6  A    between atoms: C_12  and  C_13 
REMARK    7  A    between atoms: C_14  and  N_15 
REMARK       I    between atoms: N_15  and  C_16 
REMARK    8  A    between atoms: C_16  and  C_17 
ROOT
HETATM    1  C   UNL     1       4.027   6.888  -5.057  1.00  0.00     0.058 A 
HETATM    2  C   UNL     1       3.159   6.557  -3.999  1.00  0.00     0.050 A 
HETATM    3  C   UNL     1       3.132   7.395  -2.869  1.00  0.00     0.030 A 
HETATM    4  C   UNL     1       3.876   8.577  -2.823  1.00  0.00     0.002 A 
HETATM    5  C   UNL     1       4.673   8.936  -3.902  1.00  0.00     0.001 A 
HETATM    6  C   UNL     1       4.756   8.092  -5.008  1.00  0.00     0.019 A 
ENDROOT
BRANCH   1   7
HETATM    7  C   UNL     1       4.392   5.997  -6.193  1.00  0.00     0.253 C 
HETATM    8  N   UNL     1       4.619   4.674  -5.868  1.00  0.00    -0.356 N 
HETATM    9  H   UNL     1       4.400   4.362  -4.932  1.00  0.00     0.162 HD
HETATM   10  O   UNL     1       4.583   6.465  -7.310  1.00  0.00    -0.268 OA
BRANCH   8  11
HETATM   11  C   UNL     1       4.858   3.684  -6.898  1.00  0.00     0.127 C 
BRANCH  11  12
HETATM   12  C   UNL     1       6.278   3.748  -7.468  1.00  0.00     0.058 C 
BRANCH  12  13
HETATM   13  C   UNL     1       6.497   2.681  -8.514  1.00  0.00    -0.054 A 
HETATM   14  C   UNL     1       7.084   1.453  -8.172  1.00  0.00     0.046 A 
HETATM   15  C   UNL     1       7.246   0.446  -9.132  1.00  0.00     0.102 A 
HETATM   16  C   UNL     1       6.806   0.671 -10.448  1.00  0.00     0.101 A 
HETATM   17  C   UNL     1       6.242   1.903 -10.796  1.00  0.00     0.040 A 
HETATM   18  C   UNL     1       6.081   2.898  -9.832  1.00  0.00     0.010 A 
BRANCH  15  19
HETATM   19  O   UNL     1       7.802  -0.785  -8.885  1.00  0.00    -0.353 OA
HETATM   20  C   UNL     1       8.155  -1.089  -7.544  1.00  0.00     0.210 C 
ENDBRANCH  15  19
BRANCH  16  21
HETATM   21  O   UNL     1       7.001  -0.341 -11.357  1.00  0.00    -0.353 OA
HETATM   22  C   UNL     1       5.967  -0.484 -12.324  1.00  0.00     0.210 C 
ENDBRANCH  16  21
ENDBRANCH  12  13
ENDBRANCH  11  12
ENDBRANCH   8  11
ENDBRANCH   1   7
BRANCH   2  23
HETATM   23  N   UNL     1       2.263   5.462  -3.944  1.00  0.00    -0.320 N 
HETATM   24  C   UNL     1       1.588   4.901  -5.013  1.00  0.00     0.280 C 
HETATM   25  O   UNL     1       1.706   5.203  -6.192  1.00  0.00    -0.265 OA
HETATM   26  H   UNL     1       1.836   5.260  -3.045  1.00  0.00     0.169 HD
BRANCH  24  27
HETATM   27  C   UNL     1       0.575   3.879  -4.549  1.00  0.00     0.143 C 
HETATM   28  O   UNL     1       0.378   3.770  -3.180  1.00  0.00    -0.345 OA
HETATM   29  C   UNL     1      -0.383   2.637  -2.744  1.00  0.00     0.186 C 
HETATM   30  C   UNL     1      -1.698   2.483  -3.489  1.00  0.00     0.105 C 
HETATM   31  S   UNL     1      -1.327   2.038  -5.206  1.00  0.00    -0.136 SA
HETATM   32  C   UNL     1      -0.070   3.190  -5.509  1.00  0.00     0.087 C 
ENDBRANCH  24  27
ENDBRANCH   2  23
TORSDOF 8
