REMARK  7 active torsions:
REMARK  status: ('A' for Active; 'I' for Inactive)
REMARK    1  A    between atoms: C_8  and  C_9 
REMARK    2  A    between atoms: C_9  and  C_10 
REMARK    3  A    between atoms: C_10  and  C_11 
REMARK       I    between atoms: C_11  and  N_12 
REMARK    4  A    between atoms: N_12  and  C_13 
REMARK    5  A    between atoms: C_13  and  C_14 
REMARK    6  A    between atoms: C_14  and  C_15 
REMARK    7  A    between atoms: C_16  and  O_17 
ROOT
HETATM    1  C   UNL     1       3.501  -2.574  -1.145  1.00  0.00     0.217 C 
HETATM    2  N   UNL     1       3.458  -3.499  -0.124  1.00  0.00    -0.360 N 
HETATM    3  O   UNL     1       2.994  -2.749  -2.248  1.00  0.00    -0.274 OA
HETATM    4  H   UNL     1       4.038  -3.337   0.690  1.00  0.00     0.162 HD
ENDROOT
BRANCH   2   5
HETATM    5  C   UNL     1       2.937  -4.839  -0.313  1.00  0.00     0.137 C 
BRANCH   5   6
HETATM    6  C   UNL     1       4.003  -5.964  -0.218  1.00  0.00     0.005 C 
HETATM    7  C   UNL     1       4.617  -6.079   1.206  1.00  0.00     0.016 C 
HETATM    8  C   UNL     1       5.154  -7.507   1.293  1.00  0.00     0.001 C 
HETATM    9  C   UNL     1       4.257  -8.333   0.377  1.00  0.00     0.001 C 
HETATM   10  C   UNL     1       3.257  -7.337  -0.205  1.00  0.00     0.016 C 
BRANCH   6  11
HETATM   11  C   UNL     1       5.043  -5.823  -1.363  1.00  0.00    -0.015 A 
HETATM   12  C   UNL     1       6.164  -4.956  -1.299  1.00  0.00     0.075 A 
HETATM   13  C   UNL     1       7.063  -4.877  -2.377  1.00  0.00     0.037 A 
HETATM   14  C   UNL     1       6.866  -5.628  -3.533  1.00  0.00     0.003 A 
HETATM   15  C   UNL     1       5.758  -6.451  -3.632  1.00  0.00     0.001 A 
HETATM   16  C   UNL     1       4.857  -6.537  -2.569  1.00  0.00     0.011 A 
BRANCH  12  17
HETATM   17  O   UNL     1       6.294  -4.174  -0.179  1.00  0.00    -0.355 OA
HETATM   18  C   UNL     1       7.492  -3.425  -0.023  1.00  0.00     0.210 C 
ENDBRANCH  12  17
ENDBRANCH   6  11
ENDBRANCH   5   6
ENDBRANCH   2   5
BRANCH   1  19
HETATM   19  C   UNL     1       4.169  -1.278  -0.737  1.00  0.00     0.107 C 
BRANCH  19  20
HETATM   20  C   UNL     1       4.599  -0.462  -1.952  1.00  0.00     0.052 C 
BRANCH  20  21
HETATM   21  C   UNL     1       5.102   0.891  -1.565  1.00  0.00    -0.008 A 
HETATM   22  C   UNL     1       6.389   1.270  -1.230  1.00  0.00     0.032 A 
HETATM   23  C   UNL     1       7.658   0.513  -1.142  1.00  0.00     0.070 C 
HETATM   24  N   UNL     1       6.324   2.607  -0.952  1.00  0.00    -0.282 N 
HETATM   25  H   UNL     1       7.077   3.227  -0.673  1.00  0.00     0.189 HD
HETATM   26  N   UNL     1       5.096   3.125  -1.071  1.00  0.00    -0.179 NA
HETATM   27  C   UNL     1       4.341   2.090  -1.454  1.00  0.00     0.059 A 
HETATM   28  C   UNL     1       2.888   2.275  -1.700  1.00  0.00     0.073 C 
ENDBRANCH  20  21
ENDBRANCH  19  20
ENDBRANCH   1  19
TORSDOF 7
