REMARK  11 active torsions:
REMARK  status: ('A' for Active; 'I' for Inactive)
REMARK    1  A    between atoms: N_13  and  C_14 
REMARK    2  A    between atoms: C_14  and  C_15 
REMARK    3  A    between atoms: N_20  and  C_21 
REMARK    4  A    between atoms: C_21  and  C_22 
REMARK    5  A    between atoms: C_22  and  O_23 
REMARK    6  A    between atoms: C_22  and  C_24 
REMARK    7  A    between atoms: C_24  and  N_25 
REMARK    8  A    between atoms: N_25  and  C_27 
REMARK    9  A    between atoms: N_25  and  C_34 
REMARK   10  A    between atoms: C_27  and  C_28 
REMARK   11  A    between atoms: C_34  and  C_35 
ROOT
HETATM    1  C   UNL     1       2.303  -4.218  -2.788  1.00  0.00     0.163 C 
HETATM    2  N   UNL     1       3.664  -3.726  -2.927  1.00  0.00    -0.285 N 
HETATM    3  C   UNL     1       4.527  -4.288  -3.873  1.00  0.00     0.332 A 
HETATM    4  O   UNL     1       4.173  -5.215  -4.604  1.00  0.00    -0.246 OA
HETATM    5  N   UNL     1       5.835  -3.761  -3.938  1.00  0.00    -0.269 N 
HETATM    6  C   UNL     1       6.749  -4.345  -4.901  1.00  0.00     0.164 C 
HETATM    7  C   UNL     1       6.368  -2.815  -3.063  1.00  0.00     0.282 A 
HETATM    8  O   UNL     1       7.552  -2.487  -3.016  1.00  0.00    -0.265 OA
HETATM    9  C   UNL     1       5.407  -2.286  -2.162  1.00  0.00     0.166 A 
HETATM   10  C   UNL     1       4.126  -2.734  -2.097  1.00  0.00     0.186 A 
HETATM   11  N   UNL     1       3.434  -2.129  -1.097  1.00  0.00    -0.044 NA
HETATM   12  C   UNL     1       4.280  -1.286  -0.545  1.00  0.00     0.705 A 
HETATM   13  N   UNL     1       4.064  -0.497   0.528  1.00  0.00    -0.218 N 
HETATM   14  N   UNL     1       5.507  -1.343  -1.173  1.00  0.00    -0.170 N 
HETATM   15  H   UNL     1       4.517   0.410   0.594  1.00  0.00     0.178 HD
ENDROOT
BRANCH  14  16
HETATM   16  C   UNL     1       6.732  -0.659  -0.789  1.00  0.00     0.181 C 
BRANCH  16  17
HETATM   17  C   UNL     1       7.618  -1.567   0.071  1.00  0.00     0.163 C 
BRANCH  17  18
HETATM   18  O   UNL     1       7.176  -1.573   1.432  1.00  0.00    -0.392 OA
HETATM   19  H   UNL     1       6.245  -1.886   1.453  1.00  0.00     0.210 HD
ENDBRANCH  17  18
BRANCH  17  20
HETATM   20  C   UNL     1       9.113  -1.182   0.002  1.00  0.00     0.268 C 
BRANCH  20  21
HETATM   21  N   UNL     1       9.464   0.220   0.513  1.00  0.00    -0.061 N 
HETATM   22  H   UNL     1       8.951   0.916  -0.033  1.00  0.00     0.280 HD
BRANCH  21  23
HETATM   23  C   UNL     1       9.070   0.428   1.970  1.00  0.00     0.273 C 
BRANCH  23  24
HETATM   24  C   UNL     1       9.528   1.728   2.578  1.00  0.00    -0.033 A 
HETATM   25  C   UNL     1       8.997   2.952   2.141  1.00  0.00     0.009 A 
HETATM   26  C   UNL     1       9.440   4.152   2.700  1.00  0.00     0.001 A 
HETATM   27  C   UNL     1      10.410   4.140   3.700  1.00  0.00     0.000 A 
HETATM   28  C   UNL     1      10.937   2.932   4.148  1.00  0.00     0.001 A 
HETATM   29  C   UNL     1      10.500   1.730   3.591  1.00  0.00     0.009 A 
ENDBRANCH  23  24
ENDBRANCH  21  23
BRANCH  21  30
HETATM   30  C   UNL     1      10.941   0.516   0.268  1.00  0.00     0.273 C 
BRANCH  30  31
HETATM   31  C   UNL     1      11.287   0.634  -1.194  1.00  0.00    -0.033 A 
HETATM   32  C   UNL     1      10.844   1.738  -1.941  1.00  0.00     0.009 A 
HETATM   33  C   UNL     1      11.152   1.841  -3.299  1.00  0.00     0.001 A 
HETATM   34  C   UNL     1      11.904   0.848  -3.921  1.00  0.00     0.000 A 
HETATM   35  C   UNL     1      12.357  -0.247  -3.188  1.00  0.00     0.001 A 
HETATM   36  C   UNL     1      12.053  -0.354  -1.830  1.00  0.00     0.009 A 
ENDBRANCH  30  31
ENDBRANCH  21  30
ENDBRANCH  20  21
ENDBRANCH  17  20
ENDBRANCH  16  17
ENDBRANCH  14  16
BRANCH  13  37
HETATM   37  C   UNL     1       2.675  -0.375   0.986  1.00  0.00     0.203 C 
BRANCH  37  38
HETATM   38  C   UNL     1       2.503   0.603   2.102  1.00  0.00     0.070 A 
HETATM   39  O   UNL     1       3.394   1.641   2.163  1.00  0.00    -0.325 OA
HETATM   40  C   UNL     1       3.035   2.404   3.228  1.00  0.00     0.142 A 
HETATM   41  C   UNL     1       1.931   1.875   3.852  1.00  0.00     0.027 A 
HETATM   42  C   UNL     1       1.585   0.710   3.126  1.00  0.00     0.036 A 
ENDBRANCH  37  38
ENDBRANCH  13  37
TORSDOF 11
