REMARK  2 active torsions:
REMARK  status: ('A' for Active; 'I' for Inactive)
REMARK    1  A    between atoms: C_10  and  C_11 
REMARK    2  A    between atoms: C_12  and  O_13 
ROOT
HETATM    1  C   UNL     1       3.588  -2.661   0.429  1.00  0.00     0.076 C 
HETATM    2  C   UNL     1       3.594  -1.188   0.330  1.00  0.00     0.050 A 
HETATM    3  O   UNL     1       4.810  -0.576   0.358  1.00  0.00    -0.312 OA
HETATM    4  C   UNL     1       4.600   0.776   0.248  1.00  0.00     0.121 A 
HETATM    5  C   UNL     1       5.663   1.728   0.225  1.00  0.00     0.163 A 
HETATM    6  N   UNL     1       5.527   3.034   0.134  1.00  0.00    -0.221 NA
HETATM    7  C   UNL     1       6.811   3.548   0.086  1.00  0.00     0.149 A 
HETATM    8  C   UNL     1       7.733   2.513   0.154  1.00  0.00     0.046 A 
HETATM    9  C   UNL     1       9.212   2.531   0.014  1.00  0.00     0.070 C 
HETATM   10  C   UNL     1       9.937   3.531   0.938  1.00  0.00     0.045 C 
HETATM   11  C   UNL     1       9.091   4.717   1.451  1.00  0.00     0.132 C 
HETATM   12  N   UNL     1       8.339   5.410   0.419  1.00  0.00    -0.355 N 
HETATM   13  C   UNL     1       7.118   4.974  -0.061  1.00  0.00     0.272 C 
HETATM   14  O   UNL     1       6.355   5.788  -0.578  1.00  0.00    -0.266 OA
HETATM   15  N   UNL     1       6.984   1.370   0.266  1.00  0.00    -0.340 N 
HETATM   16  H   UNL     1       7.319   0.417   0.308  1.00  0.00     0.167 HD
HETATM   17  C   UNL     1       3.239   1.007   0.153  1.00  0.00     0.043 A 
HETATM   18  C   UNL     1       2.594  -0.251   0.203  1.00  0.00     0.035 A 
HETATM   19  H   UNL     1       8.424   6.417   0.360  1.00  0.00     0.162 HD
ENDROOT
BRANCH  10  20
HETATM   20  C   UNL     1      10.635   2.795   2.085  1.00  0.00    -0.019 A 
HETATM   21  C   UNL     1      12.025   2.545   2.047  1.00  0.00     0.074 A 
HETATM   22  C   UNL     1      12.639   1.876   3.113  1.00  0.00     0.037 A 
HETATM   23  C   UNL     1      11.888   1.438   4.204  1.00  0.00     0.003 A 
HETATM   24  C   UNL     1      10.515   1.653   4.236  1.00  0.00     0.001 A 
HETATM   25  C   UNL     1       9.891   2.320   3.182  1.00  0.00     0.010 A 
BRANCH  21  26
HETATM   26  O   UNL     1      12.688   2.986   0.932  1.00  0.00    -0.355 OA
HETATM   27  C   UNL     1      14.063   2.650   0.803  1.00  0.00     0.210 C 
ENDBRANCH  21  26
ENDBRANCH  10  20
TORSDOF 2
