REMARK  5 active torsions:
REMARK  status: ('A' for Active; 'I' for Inactive)
REMARK    1  A    between atoms: C_6  and  S_7 
REMARK    2  A    between atoms: S_7  and  C_8 
REMARK    3  A    between atoms: C_8  and  C_9 
REMARK       I    between atoms: C_9  and  N_10 
REMARK    4  A    between atoms: N_10  and  C_11 
REMARK    5  A    between atoms: N_22  and  C_23 
ROOT
HETATM    1  C   UNL     1      -2.446   0.523  -0.781  1.00  0.00     0.001 A 
HETATM    2  C   UNL     1      -1.333   1.363  -0.770  1.00  0.00     0.019 A 
HETATM    3  C   UNL     1      -0.114   0.895  -0.263  1.00  0.00     0.061 A 
HETATM    4  C   UNL     1       0.000  -0.396   0.237  1.00  0.00     0.075 A 
HETATM    5  N   UNL     1       1.181  -0.868   0.812  1.00  0.00    -0.223 NA
HETATM    6  C   UNL     1       2.237  -0.118   0.774  1.00  0.00     0.177 A 
HETATM    7  N   UNL     1       2.279   1.154   0.197  1.00  0.00    -0.256 N 
HETATM    8  C   UNL     1       1.096   1.737  -0.282  1.00  0.00     0.267 A 
HETATM    9  O   UNL     1       0.994   2.867  -0.756  1.00  0.00    -0.267 OA
HETATM   10  C   UNL     1      -1.117  -1.236   0.208  1.00  0.00     0.032 A 
HETATM   11  C   UNL     1      -2.337  -0.779  -0.297  1.00  0.00     0.002 A 
ENDROOT
BRANCH   6  12
HETATM   12  S   UNL     1       3.640  -0.718   1.656  1.00  0.00    -0.082 SA
BRANCH  12  13
HETATM   13  C   UNL     1       3.359  -2.513   1.648  1.00  0.00     0.185 C 
BRANCH  13  14
HETATM   14  C   UNL     1       2.654  -2.992   2.912  1.00  0.00     0.231 C 
HETATM   15  N   UNL     1       1.356  -2.533   3.032  1.00  0.00    -0.326 N 
HETATM   16  H   UNL     1       1.066  -1.858   2.325  1.00  0.00     0.169 HD
HETATM   17  O   UNL     1       3.219  -3.756   3.691  1.00  0.00    -0.272 OA
BRANCH  15  18
HETATM   18  C   UNL     1       0.403  -2.852   4.019  1.00  0.00     0.037 A 
HETATM   19  C   UNL     1       0.603  -3.830   5.001  1.00  0.00     0.061 A 
HETATM   20  C   UNL     1      -0.436  -4.059   5.875  1.00  0.00     0.065 A 
HETATM   21  C   UNL     1      -1.638  -3.358   5.811  1.00  0.00     0.063 A 
HETATM   22  N   UNL     1      -0.529  -4.968   6.924  1.00  0.00    -0.306 N 
HETATM   23  N   UNL     1      -2.468  -3.833   6.819  1.00  0.00    -0.307 N 
HETATM   24  C   UNL     1      -1.865  -2.386   4.872  1.00  0.00     0.034 A 
HETATM   25  C   UNL     1      -1.791  -4.841   7.521  1.00  0.00     0.325 A 
HETATM   26  H   UNL     1      -3.404  -3.534   7.036  1.00  0.00     0.170 HD
HETATM   27  O   UNL     1      -2.221  -5.481   8.464  1.00  0.00    -0.247 OA
HETATM   28  C   UNL     1      -0.825  -2.138   3.967  1.00  0.00     0.032 A 
HETATM   29  H   UNL     1       0.175  -5.622   7.225  1.00  0.00     0.170 HD
ENDBRANCH  15  18
ENDBRANCH  13  14
ENDBRANCH  12  13
ENDBRANCH   6  12
BRANCH   7  30
HETATM   30  C   UNL     1       3.497   1.893   0.005  1.00  0.00     0.046 A 
HETATM   31  C   UNL     1       3.576   3.250   0.363  1.00  0.00     0.057 A 
HETATM   32  C   UNL     1       4.745   3.979   0.133  1.00  0.00     0.074 A 
HETATM   33 CL   UNL     1       4.815   5.636   0.595  1.00  0.00    -0.081 Cl
HETATM   34  C   UNL     1       5.840   3.365  -0.466  1.00  0.00     0.138 A 
HETATM   35  F   UNL     1       6.970   4.048  -0.701  1.00  0.00    -0.204 F 
HETATM   36  C   UNL     1       5.779   2.028  -0.843  1.00  0.00     0.046 A 
HETATM   37  C   UNL     1       4.610   1.296  -0.613  1.00  0.00     0.033 A 
ENDBRANCH   7  30
TORSDOF 5
