REMARK  5 active torsions:
REMARK  status: ('A' for Active; 'I' for Inactive)
REMARK    1  A    between atoms: C_2  and  C_3 
REMARK    2  A    between atoms: C_5  and  C_6 
REMARK    3  A    between atoms: C_6  and  C_7 
REMARK       I    between atoms: C_7  and  N_8 
REMARK    4  A    between atoms: N_8  and  C_9 
REMARK    5  A    between atoms: C_11  and  C_12 
ROOT
HETATM    1  C   UNL     1       2.481   5.151   1.273  1.00  0.00     0.226 C 
HETATM    2  N   UNL     1       1.937   4.254   0.367  1.00  0.00    -0.327 N 
HETATM    3  O   UNL     1       2.622   6.359   1.109  1.00  0.00    -0.273 OA
HETATM    4  H   UNL     1       1.892   3.287   0.667  1.00  0.00     0.169 HD
ENDROOT
BRANCH   2   5
HETATM    5  C   UNL     1       1.335   4.545  -0.876  1.00  0.00     0.035 A 
HETATM    6  C   UNL     1       1.235   5.833  -1.413  1.00  0.00     0.042 A 
HETATM    7  C   UNL     1       0.584   6.068  -2.637  1.00  0.00    -0.021 A 
HETATM    8  C   UNL     1       0.046   4.976  -3.329  1.00  0.00     0.012 A 
HETATM    9  C   UNL     1       0.151   3.685  -2.810  1.00  0.00     0.003 A 
HETATM   10  C   UNL     1       0.790   3.472  -1.588  1.00  0.00     0.029 A 
BRANCH   7  11
HETATM   11  C   UNL     1       0.458   7.415  -3.182  1.00  0.00     0.010 A 
HETATM   12  C   UNL     1       0.108   7.865  -4.479  1.00  0.00     0.152 A 
HETATM   13  N   UNL     1       0.087   9.197  -4.584  1.00  0.00    -0.187 NA
HETATM   14  N   UNL     1       0.428   9.611  -3.354  1.00  0.00    -0.289 N 
HETATM   15  H   UNL     1       0.484  10.608  -3.179  1.00  0.00     0.188 HD
HETATM   16  C   UNL     1       0.653   8.587  -2.480  1.00  0.00     0.123 A 
ENDBRANCH   7  11
ENDBRANCH   2   5
BRANCH   1  17
HETATM   17  C   UNL     1       2.927   4.490   2.569  1.00  0.00     0.141 C 
BRANCH  17  18
HETATM   18  C   UNL     1       1.823   3.871   3.402  1.00  0.00    -0.049 A 
HETATM   19  C   UNL     1       0.475   4.251   3.274  1.00  0.00     0.014 A 
HETATM   20  C   UNL     1      -0.530   3.658   4.053  1.00  0.00    -0.058 A 
HETATM   21  C   UNL     1      -0.154   2.717   5.022  1.00  0.00     0.007 A 
HETATM   22  C   UNL     1       1.183   2.357   5.188  1.00  0.00     0.001 A 
HETATM   23  C   UNL     1       2.165   2.927   4.380  1.00  0.00     0.007 A 
BRANCH  20  24
HETATM   24  C   UNL     1      -1.991   4.028   3.931  1.00  0.00     0.034 C 
HETATM   25  C   UNL     1      -2.425   4.640   2.604  1.00  0.00     0.010 C 
ENDBRANCH  20  24
ENDBRANCH  17  18
ENDBRANCH   1  17
TORSDOF 5
