REMARK  6 active torsions:
REMARK  status: ('A' for Active; 'I' for Inactive)
REMARK    1  A    between atoms: C_2  and  O_3 
REMARK    2  A    between atoms: O_3  and  C_4 
REMARK    3  A    between atoms: C_4  and  C_5 
REMARK    4  A    between atoms: C_10  and  N_11 
REMARK       I    between atoms: N_11  and  C_12 
REMARK    5  A    between atoms: C_12  and  C_13 
REMARK    6  A    between atoms: C_13  and  N_14 
ROOT
HETATM    1  N   UNL     1       6.393  -2.252   0.987  1.00  0.00    -0.322 N 
HETATM    2  C   UNL     1       5.641  -3.392   0.807  1.00  0.00     0.253 C 
HETATM    3  O   UNL     1       5.022  -3.945   1.712  1.00  0.00    -0.271 OA
HETATM    4  H   UNL     1       6.560  -1.626   0.202  1.00  0.00     0.169 HD
ENDROOT
BRANCH   2   5
HETATM    5  C   UNL     1       5.615  -3.991  -0.639  1.00  0.00     0.275 C 
HETATM    6  C   UNL     1       6.082  -2.987  -1.707  1.00  0.00     0.050 C 
BRANCH   5   7
HETATM    7  N   UNL     1       4.218  -4.559  -1.142  1.00  0.00    -0.058 N 
HETATM    8  H   UNL     1       3.767  -3.715  -1.518  1.00  0.00     0.281 HD
HETATM    9  C   UNL     1       4.329  -5.526  -2.321  1.00  0.00     0.246 C 
HETATM   10  C   UNL     1       4.392  -7.013  -1.912  1.00  0.00     0.062 C 
HETATM   11  C   UNL     1       3.180  -7.364  -1.059  1.00  0.00     0.020 C 
HETATM   12  C   UNL     1       5.678  -7.339  -1.182  1.00  0.00     0.020 A 
HETATM   13  C   UNL     1       3.271  -6.535   0.215  1.00  0.00     0.031 C 
HETATM   14  C   UNL     1       4.508  -6.974   0.997  1.00  0.00     0.138 C 
HETATM   15  C   UNL     1       3.197  -5.042  -0.125  1.00  0.00     0.242 C 
HETATM   16  N   UNL     1       5.721  -7.199   0.208  1.00  0.00    -0.317 N 
HETATM   17  C   UNL     1       6.885  -7.459   0.949  1.00  0.00     0.247 A 
HETATM   18  O   UNL     1       6.965  -7.350   2.168  1.00  0.00    -0.268 OA
HETATM   19  C   UNL     1       8.080  -7.874   0.174  1.00  0.00     0.074 A 
HETATM   20  C   UNL     1       8.005  -8.008  -1.154  1.00  0.00     0.007 A 
HETATM   21  C   UNL     1       6.776  -7.737  -1.850  1.00  0.00     0.026 A 
ENDBRANCH   5   7
ENDBRANCH   2   5
BRANCH   1  22
HETATM   22  C   UNL     1       6.741  -1.679   2.211  1.00  0.00     0.080 A 
HETATM   23  C   UNL     1       7.121  -0.344   2.277  1.00  0.00     0.137 A 
HETATM   24  N   UNL     1       7.396  -0.063   3.592  1.00  0.00    -0.349 N 
HETATM   25  H   UNL     1       7.688   0.845   3.933  1.00  0.00     0.166 HD
HETATM   26  C   UNL     1       7.247  -1.182   4.373  1.00  0.00     0.045 A 
HETATM   27  C   UNL     1       6.846  -2.228   3.532  1.00  0.00     0.023 A 
HETATM   28  C   UNL     1       7.455  -1.335   5.751  1.00  0.00     0.033 A 
HETATM   29  C   UNL     1       6.689  -3.504   4.116  1.00  0.00     0.058 A 
HETATM   30  C   UNL     1       6.891  -3.664   5.488  1.00  0.00     0.117 A 
HETATM   31  C   UNL     1       7.263  -2.603   6.298  1.00  0.00     0.044 A 
HETATM   32  F   UNL     1       6.728  -4.877   6.034  1.00  0.00    -0.206 F 
BRANCH  23  33
HETATM   33  C   UNL     1       7.195   0.615   1.202  1.00  0.00     0.312 C 
HETATM   34  O   UNL     1       6.944   0.346   0.032  1.00  0.00    -0.258 OA
BRANCH  33  35
HETATM   35  O   UNL     1       7.568   1.830   1.683  1.00  0.00    -0.317 OA
BRANCH  35  36
HETATM   36  C   UNL     1       7.646   2.890   0.718  1.00  0.00     0.175 C 
HETATM   37  C   UNL     1       9.012   2.901   0.058  1.00  0.00     0.034 C 
ENDBRANCH  35  36
ENDBRANCH  33  35
ENDBRANCH  23  33
ENDBRANCH   1  22
TORSDOF 6
