REMARK  5 active torsions:
REMARK  status: ('A' for Active; 'I' for Inactive)
REMARK    1  A    between atoms: C_8  and  C_9 
REMARK       I    between atoms: N_10  and  C_11 
REMARK       I    between atoms: C_11  and  N_12 
REMARK    2  A    between atoms: N_12  and  C_13 
REMARK    3  A    between atoms: C_15  and  O_16 
REMARK    4  A    between atoms: O_16  and  C_17 
REMARK    5  A    between atoms: C_17  and  C_18 
ROOT
HETATM    1  C   UNL     1       2.958  -2.457   0.298  1.00  0.00     0.126 C 
HETATM    2  N   UNL     1       3.814  -3.590  -0.036  1.00  0.00    -0.325 N 
HETATM    3  C   UNL     1       4.248  -3.792  -1.339  1.00  0.00     0.323 C 
HETATM    4  N   UNL     1       5.258  -4.731  -1.408  1.00  0.00    -0.309 N 
HETATM    5  O   UNL     1       3.804  -3.151  -2.286  1.00  0.00    -0.247 OA
HETATM    6  C   UNL     1       3.635  -4.680   0.915  1.00  0.00     0.128 C 
HETATM    7  C   UNL     1       2.348  -4.335   1.647  1.00  0.00     0.022 C 
HETATM    8  C   UNL     1       2.375  -2.814   1.672  1.00  0.00     0.032 C 
HETATM    9  H   UNL     1       5.768  -4.839  -0.545  1.00  0.00     0.170 HD
ENDROOT
BRANCH   4  10
HETATM   10  C   UNL     1       5.895  -5.192  -2.574  1.00  0.00     0.039 A 
HETATM   11  C   UNL     1       7.185  -5.716  -2.441  1.00  0.00     0.066 A 
HETATM   12  C   UNL     1       7.899  -6.156  -3.559  1.00  0.00     0.071 A 
HETATM   13  C   UNL     1       7.288  -6.147  -4.812  1.00  0.00     0.037 A 
HETATM   14  C   UNL     1       5.990  -5.650  -4.947  1.00  0.00     0.005 A 
HETATM   15  C   UNL     1       5.300  -5.163  -3.835  1.00  0.00     0.030 A 
BRANCH  12  16
HETATM   16  O   UNL     1       9.176  -6.571  -3.298  1.00  0.00    -0.347 OA
BRANCH  16  17
HETATM   17  C   UNL     1      10.083  -6.564  -4.402  1.00  0.00     0.208 C 
BRANCH  17  18
HETATM   18  C   UNL     1      11.494  -6.545  -3.862  1.00  0.00    -0.069 C 
HETATM   19  C   UNL     1      11.876  -7.676  -2.950  1.00  0.00     0.044 C 
HETATM   20  C   UNL     1      12.368  -5.575  -4.182  1.00  0.00     0.016 C 
ENDBRANCH  17  18
ENDBRANCH  16  17
ENDBRANCH  12  16
ENDBRANCH   4  10
BRANCH   1  21
HETATM   21  C   UNL     1       3.720  -1.164   0.334  1.00  0.00     0.014 A 
HETATM   22  C   UNL     1       3.219   0.093   0.030  1.00  0.00     0.034 A 
HETATM   23  C   UNL     1       1.878   0.538  -0.413  1.00  0.00     0.070 C 
HETATM   24  N   UNL     1       4.253   0.968   0.199  1.00  0.00    -0.282 N 
HETATM   25  H   UNL     1       4.257   1.971   0.047  1.00  0.00     0.189 HD
HETATM   26  N   UNL     1       5.377   0.395   0.640  1.00  0.00    -0.179 NA
HETATM   27  C   UNL     1       5.076  -0.907   0.707  1.00  0.00     0.061 A 
HETATM   28  C   UNL     1       6.126  -1.864   1.141  1.00  0.00     0.073 C 
ENDBRANCH   1  21
TORSDOF 5
