REMARK  2 active torsions:
REMARK  status: ('A' for Active; 'I' for Inactive)
REMARK    1  A    between atoms: C_9  and  C_10 
REMARK       I    between atoms: C_10  and  N_11 
REMARK    2  A    between atoms: N_11  and  C_12 
ROOT
HETATM    1  C   UNL     1       1.742  -0.141   2.045  1.00  0.00     0.267 C 
HETATM    2  N   UNL     1       2.094  -1.314   2.647  1.00  0.00    -0.156 N 
HETATM    3  O   UNL     1       1.097   0.649   2.741  1.00  0.00    -0.270 OA
HETATM    4  H   UNL     1       1.772  -1.379   3.608  1.00  0.00     0.187 HD
ENDROOT
BRANCH   1   5
HETATM    5  C   UNL     1       2.169   0.236   0.601  1.00  0.00     0.282 C 
HETATM    6  N   UNL     1       1.918  -0.805  -0.465  1.00  0.00    -0.058 N 
HETATM    7  C   UNL     1       0.495  -1.185  -0.608  1.00  0.00     0.272 C 
HETATM    8  H   UNL     1       2.284  -0.479  -1.364  1.00  0.00     0.278 HD
HETATM    9  H   UNL     1       2.478  -1.642  -0.212  1.00  0.00     0.278 HD
HETATM   10  C   UNL     1      -0.417   0.004  -0.661  1.00  0.00    -0.026 A 
HETATM   11  C   UNL     1       0.028   1.288  -0.282  1.00  0.00    -0.048 A 
HETATM   12  C   UNL     1      -1.756  -0.181  -1.037  1.00  0.00     0.009 A 
HETATM   13  C   UNL     1      -0.867   2.365  -0.316  1.00  0.00     0.008 A 
HETATM   14  C   UNL     1       1.469   1.526   0.128  1.00  0.00     0.082 C 
HETATM   15  C   UNL     1      -2.195   2.166  -0.694  1.00  0.00     0.001 A 
HETATM   16  C   UNL     1      -2.640   0.897  -1.053  1.00  0.00     0.001 A 
ENDBRANCH   1   5
BRANCH   2  17
HETATM   17  C   UNL     1       2.769  -2.368   2.103  1.00  0.00     0.708 A 
HETATM   18  N   UNL     1       3.225  -2.488   0.875  1.00  0.00    -0.062 NA
HETATM   19  C   UNL     1       3.741  -3.767   0.798  1.00  0.00     0.103 A 
HETATM   20  C   UNL     1       3.580  -4.434   2.005  1.00  0.00     0.078 A 
HETATM   21  C   UNL     1       4.335  -4.433  -0.283  1.00  0.00     0.034 A 
HETATM   22  N   UNL     1       2.996  -3.510   2.831  1.00  0.00    -0.188 N 
HETATM   23  C   UNL     1       3.968  -5.759   2.208  1.00  0.00     0.032 A 
HETATM   24  H   UNL     1       2.741  -3.667   3.796  1.00  0.00     0.184 HD
HETATM   25  C   UNL     1       4.547  -6.414   1.116  1.00  0.00     0.002 A 
HETATM   26  C   UNL     1       4.732  -5.764  -0.107  1.00  0.00     0.002 A 
ENDBRANCH   2  17
TORSDOF 2
