REMARK  8 active torsions:
REMARK  status: ('A' for Active; 'I' for Inactive)
REMARK    1  A    between atoms: C_4  and  N_5 
REMARK    2  A    between atoms: N_5  and  C_6 
REMARK    3  A    between atoms: C_8  and  N_9 
REMARK    4  A    between atoms: N_12  and  C_14 
REMARK    5  A    between atoms: C_14  and  C_15 
REMARK       I    between atoms: C_15  and  N_16 
REMARK    6  A    between atoms: N_16  and  C_17 
REMARK    7  A    between atoms: C_26  and  N_27 
REMARK    8  A    between atoms: N_27  and  C_28 
ROOT
HETATM    1  C   UNL     1       3.796  -1.091   0.178  1.00  0.00     0.758 A 
HETATM    2  N   UNL     1       5.117  -1.019   0.049  1.00  0.00     0.131 NA
HETATM    3  C   UNL     1       5.745  -2.155  -0.205  1.00  0.00     0.756 A 
HETATM    4  N   UNL     1       5.137  -3.332  -0.237  1.00  0.00     0.131 NA
HETATM    5  C   UNL     1       3.814  -3.324  -0.108  1.00  0.00     0.758 A 
HETATM    6  N   UNL     1       3.111  -2.219   0.086  1.00  0.00     0.131 NA
ENDROOT
BRANCH   3   7
HETATM    7  N   UNL     1       7.106  -2.121  -0.503  1.00  0.00    -0.210 N 
HETATM    8  C   UNL     1       7.913  -3.146   0.174  1.00  0.00     0.169 C 
HETATM    9  C   UNL     1       8.457  -2.622   1.526  1.00  0.00     0.256 C 
HETATM   10  N   UNL     1       9.197  -1.304   1.291  1.00  0.00    -0.060 N 
HETATM   11  H   UNL     1       9.896  -1.494   0.563  1.00  0.00     0.280 HD
HETATM   12  C   UNL     1       8.244  -0.259   0.700  1.00  0.00     0.256 C 
HETATM   13  C   UNL     1       7.709  -0.787  -0.647  1.00  0.00     0.169 C 
BRANCH  10  14
HETATM   14  C   UNL     1      10.004  -0.806   2.493  1.00  0.00     0.337 C 
BRANCH  14  15
HETATM   15  C   UNL     1       9.202  -0.423   3.745  1.00  0.00     0.249 C 
HETATM   16  N   UNL     1       9.852   0.045   4.851  1.00  0.00    -0.304 N 
HETATM   17  H   UNL     1       9.291   0.289   5.658  1.00  0.00     0.171 HD
HETATM   18  O   UNL     1       7.973  -0.528   3.773  1.00  0.00    -0.271 OA
BRANCH  16  19
HETATM   19  C   UNL     1      11.203   0.207   4.950  1.00  0.00     0.172 A 
HETATM   20  S   UNL     1      11.752   0.814   6.442  1.00  0.00    -0.062 SA
HETATM   21  C   UNL     1      13.361   0.746   5.848  1.00  0.00     0.072 A 
HETATM   22  C   UNL     1      13.355   0.264   4.555  1.00  0.00     0.126 A 
HETATM   23  N   UNL     1      12.107  -0.047   4.038  1.00  0.00    -0.236 NA
ENDBRANCH  16  19
ENDBRANCH  14  15
ENDBRANCH  10  14
ENDBRANCH   3   7
BRANCH   1  24
HETATM   24  N   UNL     1       3.034   0.062   0.342  1.00  0.00    -0.187 N 
HETATM   25  H   UNL     1       2.049  -0.160   0.267  1.00  0.00     0.184 HD
BRANCH  24  26
HETATM   26  C   UNL     1       3.327   1.300   0.926  1.00  0.00     0.049 A 
HETATM   27  C   UNL     1       2.502   2.395   0.630  1.00  0.00     0.030 A 
HETATM   28  C   UNL     1       2.761   3.659   1.163  1.00  0.00     0.002 A 
HETATM   29  C   UNL     1       3.855   3.849   2.002  1.00  0.00     0.000 A 
HETATM   30  C   UNL     1       4.694   2.777   2.295  1.00  0.00     0.002 A 
HETATM   31  C   UNL     1       4.438   1.516   1.748  1.00  0.00     0.030 A 
ENDBRANCH  24  26
ENDBRANCH   1  24
BRANCH   5  32
HETATM   32  N   UNL     1       3.195  -4.565  -0.243  1.00  0.00    -0.187 N 
HETATM   33  H   UNL     1       3.867  -5.260  -0.532  1.00  0.00     0.184 HD
BRANCH  32  34
HETATM   34  C   UNL     1       1.861  -4.983  -0.169  1.00  0.00     0.049 A 
HETATM   35  C   UNL     1       1.517  -6.232  -0.713  1.00  0.00     0.030 A 
HETATM   36  C   UNL     1       0.196  -6.693  -0.701  1.00  0.00     0.002 A 
HETATM   37  C   UNL     1      -0.807  -5.910  -0.141  1.00  0.00     0.000 A 
HETATM   38  C   UNL     1      -0.489  -4.670   0.404  1.00  0.00     0.002 A 
HETATM   39  C   UNL     1       0.833  -4.211   0.385  1.00  0.00     0.030 A 
ENDBRANCH  32  34
ENDBRANCH   5  32
TORSDOF 8
