REMARK  5 active torsions:
REMARK  status: ('A' for Active; 'I' for Inactive)
REMARK    1  A    between atoms: C_7  and  C_8 
REMARK    2  A    between atoms: C_8  and  N_9 
REMARK    3  A    between atoms: C_13  and  C_14 
REMARK    4  A    between atoms: C_17  and  C_18 
REMARK    5  A    between atoms: C_18  and  N_19 
ROOT
HETATM    1  N   UNL     1       4.223  -3.797  -0.514  1.00  0.00    -0.067 N 
HETATM    2  H   UNL     1       3.477  -4.058  -1.171  1.00  0.00     0.280 HD
HETATM    3  C   UNL     1       5.170  -4.971  -0.414  1.00  0.00     0.236 C 
HETATM    4  C   UNL     1       4.484  -6.165   0.243  1.00  0.00     0.040 C 
HETATM    5  C   UNL     1       3.873  -5.837   1.608  1.00  0.00     0.060 C 
HETATM    6  C   UNL     1       2.940  -4.627   1.472  1.00  0.00     0.040 C 
HETATM    7  C   UNL     1       3.591  -3.421   0.804  1.00  0.00     0.236 C 
ENDROOT
BRANCH   5   8
HETATM    8  C   UNL     1       4.946  -5.603   2.637  1.00  0.00     0.134 A 
HETATM    9  N   UNL     1       5.245  -6.413   3.711  1.00  0.00    -0.323 N 
HETATM   10  C   UNL     1       4.594  -7.650   4.068  1.00  0.00     0.159 C 
HETATM   11  C   UNL     1       6.292  -5.801   4.360  1.00  0.00     0.155 A 
HETATM   12  N   UNL     1       6.623  -4.710   3.699  1.00  0.00    -0.133 NA
HETATM   13  N   UNL     1       5.781  -4.585   2.637  1.00  0.00    -0.134 NA
BRANCH  11  14
HETATM   14  C   UNL     1       6.972  -6.265   5.605  1.00  0.00     0.315 C 
BRANCH  14  15
HETATM   15  N   UNL     1       7.846  -5.169   6.193  1.00  0.00    -0.064 N 
HETATM   16  H   UNL     1       8.258  -4.703   5.368  1.00  0.00     0.280 HD
HETATM   17  C   UNL     1       7.042  -4.111   6.915  1.00  0.00     0.235 C 
HETATM   18  C   UNL     1       7.956  -2.956   7.294  1.00  0.00     0.028 C 
HETATM   19  C   UNL     1       9.139  -3.431   8.130  1.00  0.00     0.003 C 
HETATM   20  C   UNL     1       9.896  -4.553   7.429  1.00  0.00     0.028 C 
HETATM   21  C   UNL     1       8.976  -5.700   7.034  1.00  0.00     0.235 C 
ENDBRANCH  14  15
ENDBRANCH  11  14
ENDBRANCH   5   8
BRANCH   1  22
HETATM   22  C   UNL     1       4.896  -2.568  -1.118  1.00  0.00     0.273 C 
BRANCH  22  23
HETATM   23  C   UNL     1       5.511  -2.805  -2.471  1.00  0.00    -0.032 A 
HETATM   24  C   UNL     1       4.710  -2.889  -3.619  1.00  0.00     0.012 A 
HETATM   25  C   UNL     1       5.292  -3.151  -4.860  1.00  0.00     0.043 A 
HETATM   26  C   UNL     1       6.668  -3.329  -4.959  1.00  0.00     0.122 A 
HETATM   27  C   UNL     1       7.492  -3.233  -3.837  1.00  0.00    -0.023 A 
HETATM   28  F   UNL     1       7.200  -3.601  -6.157  1.00  0.00    -0.206 F 
HETATM   29  C   UNL     1       8.969  -3.458  -3.960  1.00  0.00     0.051 C 
HETATM   30  C   UNL     1       6.904  -2.978  -2.591  1.00  0.00     0.018 A 
ENDBRANCH  22  23
ENDBRANCH   1  22
TORSDOF 5
