REMARK  3 active torsions:
REMARK  status: ('A' for Active; 'I' for Inactive)
REMARK    1  A    between atoms: C_2  and  C_3 
REMARK    2  A    between atoms: C_18  and  C_19 
REMARK    3  A    between atoms: C_22  and  O_23 
ROOT
HETATM    1  C   UNL     1       0.892  -0.069   0.239  1.00  0.00     0.060 C 
HETATM    2  C   UNL     1       2.441  -0.171   0.076  1.00  0.00     0.210 C 
HETATM    3  N   UNL     1       2.820  -0.064  -1.358  1.00  0.00     0.110 N 
HETATM    4  C   UNL     1       2.130  -0.906  -2.344  1.00  0.00     0.367 C 
HETATM    5  C   UNL     1       2.459  -2.379  -2.133  1.00  0.00     0.230 C 
HETATM    6  O   UNL     1       3.281  -2.984  -2.815  1.00  0.00    -0.278 OA
HETATM    7  N   UNL     1       1.837  -2.927  -1.015  1.00  0.00    -0.227 NA
HETATM    8  C   UNL     1       2.607  -2.776   0.165  1.00  0.00     0.024 A 
HETATM    9  C   UNL     1       2.984  -1.510   0.670  1.00  0.00     0.007 A 
HETATM   10  C   UNL     1       3.064  -3.967   0.736  1.00  0.00     0.025 A 
HETATM   11  C   UNL     1       3.945  -3.936   1.812  1.00  0.00     0.014 A 
HETATM   12  C   UNL     1       4.419  -2.718   2.311  1.00  0.00    -0.025 A 
HETATM   13  C   UNL     1       3.937  -1.528   1.719  1.00  0.00     0.024 A 
HETATM   14  H   UNL     1       3.823  -0.254  -1.424  1.00  0.00     0.318 HD
HETATM   15  H   UNL     1       0.936  -2.488  -0.887  1.00  0.00     0.136 HD
ENDROOT
BRANCH  12  16
HETATM   16  C   UNL     1       5.401  -2.686   3.415  1.00  0.00    -0.026 A 
HETATM   17  C   UNL     1       6.518  -3.544   3.417  1.00  0.00     0.015 A 
HETATM   18  C   UNL     1       7.441  -3.538   4.468  1.00  0.00     0.037 A 
HETATM   19  C   UNL     1       7.257  -2.664   5.531  1.00  0.00     0.065 A 
HETATM   20  C   UNL     1       6.172  -1.799   5.556  1.00  0.00     0.037 A 
HETATM   21  C   UNL     1       5.250  -1.811   4.505  1.00  0.00     0.015 A 
BRANCH  19  22
HETATM   22  O   UNL     1       8.128  -2.626   6.579  1.00  0.00    -0.361 OA
HETATM   23  H   UNL     1       8.826  -3.283   6.425  1.00  0.00     0.217 HD
ENDBRANCH  19  22
ENDBRANCH  12  16
BRANCH   2  24
HETATM   24  C   UNL     1       2.971   1.110   0.823  1.00  0.00    -0.016 A 
HETATM   25  C   UNL     1       2.620   1.361   2.171  1.00  0.00     0.010 A 
HETATM   26  C   UNL     1       3.049   2.512   2.839  1.00  0.00     0.001 A 
HETATM   27  C   UNL     1       3.832   3.450   2.177  1.00  0.00     0.000 A 
HETATM   28  C   UNL     1       4.191   3.235   0.851  1.00  0.00     0.001 A 
HETATM   29  C   UNL     1       3.767   2.081   0.183  1.00  0.00     0.010 A 
ENDBRANCH   2  24
TORSDOF 3
