REMARK  2 active torsions:
REMARK  status: ('A' for Active; 'I' for Inactive)
REMARK    1  A    between atoms: C_11  and  C_12 
REMARK    2  A    between atoms: C_12  and  C_13 
ROOT
HETATM    1  C   UNL     1       1.122  -0.190  -0.220  1.00  0.00     0.051 C 
HETATM    2  C   UNL     1       2.623  -0.064  -0.125  1.00  0.00    -0.031 A 
HETATM    3  C   UNL     1       3.232   1.199  -0.128  1.00  0.00     0.038 A 
HETATM    4  C   UNL     1       2.428   2.469  -0.209  1.00  0.00     0.071 C 
HETATM    5  N   UNL     1       4.559   1.394  -0.051  1.00  0.00    -0.245 NA
HETATM    6  C   UNL     1       5.307   0.281   0.032  1.00  0.00     0.111 A 
HETATM    7  C   UNL     1       4.860  -1.035   0.057  1.00  0.00     0.034 A 
HETATM    8  C   UNL     1       3.440  -1.220   0.033  1.00  0.00    -0.039 A 
HETATM    9  C   UNL     1       2.806  -2.584   0.157  1.00  0.00     0.050 C 
HETATM   10  S   UNL     1       6.992   0.429   0.148  1.00  0.00    -0.063 SA
HETATM   11  C   UNL     1       7.216  -1.267   0.190  1.00  0.00     0.085 A 
HETATM   12  C   UNL     1       6.002  -1.934   0.124  1.00  0.00     0.061 A 
HETATM   13  N   UNL     1       5.892  -3.284   0.141  1.00  0.00    -0.397 N 
HETATM   14  H   UNL     1       6.679  -3.921   0.224  1.00  0.00     0.156 HD
HETATM   15  H   UNL     1       5.032  -3.765  -0.098  1.00  0.00     0.156 HD
ENDROOT
BRANCH  11  16
HETATM   16  C   UNL     1       8.585  -1.744   0.307  1.00  0.00     0.201 C 
HETATM   17  O   UNL     1       9.437  -1.198   1.009  1.00  0.00    -0.286 OA
BRANCH  16  18
HETATM   18  C   UNL     1       9.031  -2.952  -0.445  1.00  0.00     0.018 A 
HETATM   19  C   UNL     1       8.535  -3.252  -1.722  1.00  0.00     0.055 A 
HETATM   20  C   UNL     1       9.017  -4.387  -2.342  1.00  0.00     0.106 A 
HETATM   21  C   UNL     1       9.960  -5.198  -1.752  1.00  0.00     0.105 A 
HETATM   22  O   UNL     1       8.643  -4.840  -3.569  1.00  0.00    -0.323 OA
HETATM   23  O   UNL     1      10.295  -6.258  -2.534  1.00  0.00    -0.323 OA
HETATM   24  C   UNL     1      10.481  -4.921  -0.508  1.00  0.00     0.040 A 
HETATM   25  C   UNL     1       9.470  -6.016  -3.692  1.00  0.00     0.352 A 
HETATM   26  C   UNL     1      10.012  -3.780   0.149  1.00  0.00     0.018 A 
ENDBRANCH  16  18
ENDBRANCH  11  16
TORSDOF 2
