REMARK  3 active torsions:
REMARK  status: ('A' for Active; 'I' for Inactive)
REMARK    1  A    between atoms: C_4  and  N_5 
REMARK       I    between atoms: N_5  and  C_6 
REMARK    2  A    between atoms: C_6  and  C_7 
REMARK    3  A    between atoms: C_7  and  C_8 
ROOT
HETATM    1  C   UNL     1       6.479  -0.040  -0.332  1.00  0.00     0.286 C 
HETATM    2  N   UNL     1       5.974   0.404   1.036  1.00  0.00    -0.056 N 
HETATM    3  H   UNL     1       5.275  -0.319   1.314  1.00  0.00     0.278 HD
HETATM    4  H   UNL     1       6.719   0.356   1.741  1.00  0.00     0.278 HD
HETATM    5  C   UNL     1       5.282   1.739   1.057  1.00  0.00     0.209 C 
HETATM    6  C   UNL     1       4.172   1.766  -0.023  1.00  0.00     0.115 C 
HETATM    7  N   UNL     1       4.630   1.290  -1.327  1.00  0.00    -0.353 N 
HETATM    8  C   UNL     1       5.471   0.214  -1.472  1.00  0.00     0.249 C 
HETATM    9  O   UNL     1       5.476  -0.420  -2.521  1.00  0.00    -0.271 OA
HETATM   10  C   UNL     1       6.310   2.862   0.905  1.00  0.00     0.035 C 
HETATM   11  C   UNL     1       5.628   4.224   0.821  1.00  0.00     0.002 C 
HETATM   12  C   UNL     1       4.600   4.261  -0.306  1.00  0.00     0.002 C 
HETATM   13  C   UNL     1       3.550   3.162  -0.143  1.00  0.00     0.027 C 
HETATM   14  H   UNL     1       3.981   1.369  -2.109  1.00  0.00     0.163 HD
ENDROOT
BRANCH   1  15
HETATM   15  C   UNL     1       6.961  -1.500  -0.328  1.00  0.00     0.146 C 
BRANCH  15  16
HETATM   16  C   UNL     1       5.951  -2.426   0.297  1.00  0.00     0.224 C 
HETATM   17  N   UNL     1       6.148  -3.766   0.399  1.00  0.00    -0.327 N 
HETATM   18  H   UNL     1       5.402  -4.207   0.931  1.00  0.00     0.169 HD
HETATM   19  O   UNL     1       4.956  -1.931   0.846  1.00  0.00    -0.273 OA
BRANCH  17  20
HETATM   20  C   UNL     1       7.146  -4.659  -0.046  1.00  0.00     0.035 A 
HETATM   21  C   UNL     1       8.177  -4.361  -0.936  1.00  0.00     0.036 A 
HETATM   22  C   UNL     1       9.100  -5.345  -1.334  1.00  0.00    -0.059 A 
HETATM   23  C   UNL     1      10.150  -5.024  -2.360  1.00  0.00     0.048 C 
HETATM   24  C   UNL     1       8.987  -6.643  -0.830  1.00  0.00     0.013 A 
HETATM   25  C   UNL     1       7.977  -6.962   0.079  1.00  0.00    -0.059 A 
HETATM   26  C   UNL     1       7.054  -5.972   0.446  1.00  0.00     0.036 A 
HETATM   27  C   UNL     1       7.839  -8.362   0.602  1.00  0.00     0.048 C 
ENDBRANCH  17  20
ENDBRANCH  15  16
ENDBRANCH   1  15
TORSDOF 3
