REMARK  7 active torsions:
REMARK  status: ('A' for Active; 'I' for Inactive)
REMARK    1  A    between atoms: O_2  and  C_3 
REMARK    2  A    between atoms: C_6  and  C_7 
REMARK    3  A    between atoms: C_11  and  C_12 
REMARK       I    between atoms: C_12  and  N_13 
REMARK    4  A    between atoms: N_13  and  N_14 
REMARK       I    between atoms: N_14  and  C_15 
REMARK    5  A    between atoms: C_15  and  C_16 
REMARK    6  A    between atoms: C_16  and  C_17 
REMARK    7  A    between atoms: C_17  and  C_18 
ROOT
HETATM    1  C   UNL     1       5.438  -8.427  -0.880  1.00  0.00     0.288 C 
HETATM    2  N   UNL     1       4.304  -9.029  -0.378  1.00  0.00    -0.262 N 
HETATM    3  O   UNL     1       6.368  -9.084  -1.346  1.00  0.00    -0.264 OA
HETATM    4  H   UNL     1       3.534  -8.527   0.057  1.00  0.00     0.190 HD
ENDROOT
BRANCH   1   5
HETATM    5  C   UNL     1       5.449  -6.993  -0.832  1.00  0.00     0.121 A 
HETATM    6  N   UNL     1       6.556  -6.267  -1.173  1.00  0.00    -0.272 N 
HETATM    7  N   UNL     1       6.391  -4.940  -1.084  1.00  0.00    -0.174 NA
HETATM    8  H   UNL     1       7.455  -6.631  -1.474  1.00  0.00     0.189 HD
HETATM    9  C   UNL     1       5.114  -4.780  -0.705  1.00  0.00     0.089 A 
HETATM   10  C   UNL     1       4.495  -6.048  -0.513  1.00  0.00     0.071 A 
BRANCH   9  11
HETATM   11  C   UNL     1       4.516  -3.454  -0.534  1.00  0.00    -0.005 A 
HETATM   12  C   UNL     1       3.130  -3.271  -0.618  1.00  0.00     0.016 A 
HETATM   13  C   UNL     1       2.570  -2.002  -0.441  1.00  0.00     0.037 A 
HETATM   14  C   UNL     1       3.378  -0.898  -0.168  1.00  0.00     0.068 A 
HETATM   15  C   UNL     1       4.760  -1.065  -0.104  1.00  0.00     0.037 A 
HETATM   16  C   UNL     1       5.324  -2.335  -0.287  1.00  0.00     0.016 A 
BRANCH  14  17
HETATM   17  O   UNL     1       2.703   0.279  -0.001  1.00  0.00    -0.356 OA
HETATM   18  C   UNL     1       3.444   1.363   0.545  1.00  0.00     0.210 C 
ENDBRANCH  14  17
ENDBRANCH   9  11
ENDBRANCH   1   5
BRANCH   2  19
HETATM   19  N   UNL     1       4.181 -10.419  -0.460  1.00  0.00    -0.267 N 
HETATM   20  C   UNL     1       3.036 -10.999   0.037  1.00  0.00     0.236 C 
HETATM   21  O   UNL     1       2.171 -10.348   0.621  1.00  0.00    -0.272 OA
HETATM   22  H   UNL     1       4.853 -10.895  -1.060  1.00  0.00     0.190 HD
BRANCH  20  23
HETATM   23  C   UNL     1       2.874 -12.473  -0.268  1.00  0.00     0.109 C 
BRANCH  23  24
HETATM   24  C   UNL     1       4.111 -13.302   0.077  1.00  0.00     0.048 C 
BRANCH  24  25
HETATM   25  C   UNL     1       3.958 -14.802  -0.052  1.00  0.00    -0.055 A 
HETATM   26  C   UNL     1       4.839 -15.629   0.663  1.00  0.00     0.049 A 
HETATM   27  C   UNL     1       4.763 -17.013   0.540  1.00  0.00     0.116 A 
HETATM   28  F   UNL     1       5.613 -17.784   1.232  1.00  0.00    -0.206 F 
HETATM   29  C   UNL     1       3.827 -17.607  -0.295  1.00  0.00     0.042 A 
HETATM   30  C   UNL     1       2.955 -16.802  -1.022  1.00  0.00     0.003 A 
HETATM   31  C   UNL     1       3.024 -15.408  -0.906  1.00  0.00     0.007 A 
ENDBRANCH  24  25
ENDBRANCH  23  24
ENDBRANCH  20  23
ENDBRANCH   2  19
TORSDOF 7
