REMARK  4 active torsions:
REMARK  status: ('A' for Active; 'I' for Inactive)
REMARK    1  A    between atoms: C_7  and  N_8 
REMARK       I    between atoms: N_8  and  C_9 
REMARK    2  A    between atoms: C_9  and  C_10 
REMARK    3  A    between atoms: C_10  and  C_11 
REMARK    4  A    between atoms: C_14  and  O_15 
ROOT
HETATM    1  N   UNL     1       3.530   1.361   0.217  1.00  0.00    -0.326 N 
HETATM    2  C   UNL     1       4.684   0.603   0.108  1.00  0.00     0.226 C 
HETATM    3  O   UNL     1       4.751  -0.620   0.188  1.00  0.00    -0.273 OA
HETATM    4  H   UNL     1       3.626   2.363   0.105  1.00  0.00     0.169 HD
ENDROOT
BRANCH   1   5
HETATM    5  C   UNL     1       2.225   0.874   0.448  1.00  0.00     0.053 A 
HETATM    6  C   UNL     1       1.877  -0.466   0.562  1.00  0.00     0.146 A 
HETATM    7  N   UNL     1       0.613  -0.913   0.785  1.00  0.00    -0.258 NA
HETATM    8  C   UNL     1      -0.368  -0.006   0.908  1.00  0.00     0.066 A 
HETATM    9  C   UNL     1      -0.125   1.379   0.813  1.00  0.00    -0.005 A 
HETATM   10  C   UNL     1      -1.668  -0.434   1.140  1.00  0.00     0.032 A 
HETATM   11  C   UNL     1      -1.187   2.292   0.958  1.00  0.00     0.014 A 
HETATM   12  C   UNL     1       1.192   1.805   0.574  1.00  0.00     0.044 A 
HETATM   13  C   UNL     1      -2.482   1.835   1.194  1.00  0.00     0.001 A 
HETATM   14  C   UNL     1      -2.724   0.469   1.283  1.00  0.00     0.002 A 
ENDBRANCH   1   5
BRANCH   2  15
HETATM   15  C   UNL     1       5.933   1.440  -0.130  1.00  0.00     0.141 C 
BRANCH  15  16
HETATM   16  C   UNL     1       6.135   1.876  -1.563  1.00  0.00    -0.049 A 
HETATM   17  C   UNL     1       6.779   3.096  -1.831  1.00  0.00     0.010 A 
HETATM   18  C   UNL     1       7.035   3.496  -3.145  1.00  0.00     0.037 A 
HETATM   19  C   UNL     1       6.655   2.671  -4.197  1.00  0.00     0.065 A 
HETATM   20  C   UNL     1       6.028   1.456  -3.956  1.00  0.00     0.037 A 
HETATM   21  C   UNL     1       5.779   1.053  -2.642  1.00  0.00     0.010 A 
BRANCH  19  22
HETATM   22  O   UNL     1       6.892   3.017  -5.494  1.00  0.00    -0.361 OA
HETATM   23  H   UNL     1       7.379   3.857  -5.509  1.00  0.00     0.217 HD
ENDBRANCH  19  22
ENDBRANCH  15  16
ENDBRANCH   2  15
TORSDOF 4
