REMARK  4 active torsions:
REMARK  status: ('A' for Active; 'I' for Inactive)
REMARK    1  A    between atoms: C_2  and  N_3 
REMARK    2  A    between atoms: C_2  and  C_4 
REMARK    3  A    between atoms: C_7  and  C_10 
REMARK       I    between atoms: C_10  and  N_12 
REMARK    4  A    between atoms: N_12  and  C_13 
ROOT
HETATM    1  C   UNL     1       1.363   4.716   2.107  1.00  0.00     0.226 C 
HETATM    2  O   UNL     1       0.519   5.497   1.668  1.00  0.00    -0.273 OA
HETATM    3  N   UNL     1       1.592   4.536   3.461  1.00  0.00    -0.326 N 
HETATM    4  H   UNL     1       2.123   3.721   3.737  1.00  0.00     0.169 HD
ENDROOT
BRANCH   1   5
HETATM    5  C   UNL     1       2.307   3.947   1.162  1.00  0.00     0.078 C 
HETATM    6  C   UNL     1       1.666   3.866  -0.236  1.00  0.00     0.014 C 
HETATM    7  C   UNL     1       2.538   3.122  -1.244  1.00  0.00     0.007 C 
HETATM    8  C   UNL     1       2.903   1.713  -0.751  1.00  0.00     0.018 C 
HETATM    9  C   UNL     1       3.584   1.812   0.624  1.00  0.00     0.007 C 
HETATM   10  C   UNL     1       2.709   2.546   1.642  1.00  0.00     0.014 C 
BRANCH   8  11
HETATM   11  C   UNL     1       3.726   0.927  -1.807  1.00  0.00     0.218 C 
HETATM   12  C   UNL     1       5.076   1.551  -2.163  1.00  0.00     0.043 C 
BRANCH  11  13
HETATM   13  N   UNL     1       3.953  -0.445  -1.345  1.00  0.00     0.082 N 
HETATM   14  H   UNL     1       4.474  -0.965  -2.052  1.00  0.00     0.313 HD
HETATM   15  H   UNL     1       3.061  -0.927  -1.246  1.00  0.00     0.313 HD
ENDBRANCH  11  13
ENDBRANCH   8  11
ENDBRANCH   1   5
BRANCH   3  16
HETATM   16  C   UNL     1       0.976   5.258   4.507  1.00  0.00     0.050 A 
HETATM   17  C   UNL     1       0.359   6.506   4.322  1.00  0.00     0.047 A 
HETATM   18  C   UNL     1      -0.230   7.179   5.384  1.00  0.00     0.092 A 
HETATM   19  N   UNL     1      -0.225   6.662   6.617  1.00  0.00    -0.351 N 
HETATM   20  H   UNL     1      -0.664   7.165   7.386  1.00  0.00     0.166 HD
HETATM   21  C   UNL     1       0.377   5.461   6.822  1.00  0.00     0.117 A 
HETATM   22  N   UNL     1       0.479   4.775   8.003  1.00  0.00    -0.352 N 
HETATM   23  C   UNL     1       0.994   4.728   5.816  1.00  0.00     0.036 A 
HETATM   24  H   UNL     1       0.120   5.058   8.907  1.00  0.00     0.166 HD
HETATM   25  C   UNL     1       1.150   3.600   7.776  1.00  0.00     0.090 A 
HETATM   26  C   UNL     1       1.481   3.544   6.438  1.00  0.00     0.034 A 
ENDBRANCH   3  16
TORSDOF 4
