REMARK  6 active torsions:
REMARK  status: ('A' for Active; 'I' for Inactive)
REMARK    1  A    between atoms: C_3  and  C_4 
REMARK    2  A    between atoms: C_9  and  O_10 
REMARK    3  A    between atoms: O_10  and  C_11 
REMARK    4  A    between atoms: C_11  and  C_12 
REMARK       I    between atoms: C_12  and  N_13 
REMARK    5  A    between atoms: N_13  and  C_14 
REMARK    6  A    between atoms: C_21  and  C_22 
REMARK       I    between atoms: C_22  and  N_23 
ROOT
HETATM    1  C   UNL     1       5.333  -4.687  -0.930  1.00  0.00     0.246 C 
HETATM    2  N   UNL     1       6.004  -5.383   0.063  1.00  0.00    -0.325 N 
HETATM    3  O   UNL     1       5.477  -4.823  -2.141  1.00  0.00    -0.271 OA
HETATM    4  H   UNL     1       5.739  -5.146   1.013  1.00  0.00     0.169 HD
ENDROOT
BRANCH   2   5
HETATM    5  C   UNL     1       6.986  -6.382  -0.105  1.00  0.00     0.035 A 
HETATM    6  C   UNL     1       7.522  -6.740  -1.350  1.00  0.00     0.046 A 
HETATM    7  C   UNL     1       8.491  -7.765  -1.428  1.00  0.00     0.030 A 
HETATM    8  C   UNL     1       8.886  -8.402  -0.260  1.00  0.00     0.063 A 
HETATM    9  C   UNL     1       9.252  -8.383  -2.466  1.00  0.00     0.156 A 
HETATM   10  N   UNL     1       9.805  -9.336  -0.652  1.00  0.00    -0.277 N 
HETATM   11  C   UNL     1       8.379  -8.070   0.998  1.00  0.00     0.034 A 
HETATM   12  H   UNL     1      10.302  -9.993  -0.061  1.00  0.00     0.189 HD
HETATM   13  N   UNL     1      10.056  -9.353  -1.971  1.00  0.00    -0.168 NA
HETATM   14  C   UNL     1       7.428  -7.042   1.050  1.00  0.00     0.032 A 
BRANCH   9  15
HETATM   15  C   UNL     1       9.232  -8.068  -3.902  1.00  0.00     0.270 C 
HETATM   16  N   UNL     1      10.079  -8.836  -4.655  1.00  0.00    -0.365 N 
HETATM   17  H   UNL     1      10.648  -9.532  -4.188  1.00  0.00     0.159 HD
HETATM   18  H   UNL     1      10.144  -8.677  -5.647  1.00  0.00     0.159 HD
HETATM   19  O   UNL     1       8.539  -7.201  -4.419  1.00  0.00    -0.266 OA
ENDBRANCH   9  15
ENDBRANCH   2   5
BRANCH   1  20
HETATM   20  C   UNL     1       4.245  -3.762  -0.386  1.00  0.00     0.278 C 
BRANCH  20  21
HETATM   21  O   UNL     1       4.623  -3.147   0.844  1.00  0.00    -0.342 OA
BRANCH  21  22
HETATM   22  C   UNL     1       3.854  -2.063   1.184  1.00  0.00     0.069 A 
HETATM   23  C   UNL     1       4.487  -1.070   1.922  1.00  0.00     0.037 A 
HETATM   24  C   UNL     1       3.791   0.084   2.295  1.00  0.00     0.011 A 
HETATM   25  C   UNL     1       2.441   0.272   1.942  1.00  0.00    -0.049 A 
HETATM   26  C   UNL     1       1.786  -0.763   1.237  1.00  0.00    -0.053 A 
HETATM   27  C   UNL     1       0.331  -0.677   0.853  1.00  0.00     0.049 C 
HETATM   28  C   UNL     1       2.503  -1.918   0.867  1.00  0.00     0.044 A 
BRANCH  25  29
HETATM   29  C   UNL     1       1.704   1.543   2.355  1.00  0.00     0.011 C 
HETATM   30  C   UNL     1       1.166   1.411   3.781  1.00  0.00     0.015 C 
HETATM   31  C   UNL     1       2.541   2.821   2.216  1.00  0.00     0.015 C 
ENDBRANCH  25  29
ENDBRANCH  21  22
ENDBRANCH  20  21
ENDBRANCH   1  20
TORSDOF 6
