REMARK  3 active torsions:
REMARK  status: ('A' for Active; 'I' for Inactive)
REMARK    1  A    between atoms: C_4  and  C_5 
REMARK    2  A    between atoms: C_12  and  N_13 
REMARK       I    between atoms: N_13  and  C_14 
REMARK    3  A    between atoms: C_14  and  C_15 
ROOT
HETATM    1  C   UNL     1       1.107  -0.075  -0.873  1.00  0.00     0.048 C 
HETATM    2  C   UNL     1       2.593  -0.156  -0.682  1.00  0.00    -0.060 A 
HETATM    3  C   UNL     1       3.370   1.001  -0.622  1.00  0.00     0.023 A 
HETATM    4  C   UNL     1       4.755   0.929  -0.405  1.00  0.00     0.020 A 
HETATM    5  C   UNL     1       5.384  -0.332  -0.245  1.00  0.00     0.053 A 
HETATM    6  C   UNL     1       4.595  -1.500  -0.227  1.00  0.00    -0.034 A 
HETATM    7  C   UNL     1       5.084  -2.862   0.190  1.00  0.00     0.050 C 
HETATM    8  C   UNL     1       3.211  -1.393  -0.479  1.00  0.00     0.015 A 
ENDROOT
BRANCH   5   9
HETATM    9  N   UNL     1       6.751  -0.335   0.090  1.00  0.00    -0.322 N 
HETATM   10  C   UNL     1       7.807  -1.071  -0.363  1.00  0.00     0.278 C 
HETATM   11  O   UNL     1       8.867  -0.961   0.272  1.00  0.00    -0.268 OA
HETATM   12  H   UNL     1       7.054   0.405   0.717  1.00  0.00     0.169 HD
BRANCH  10  13
HETATM   13  C   UNL     1       7.780  -1.873  -1.694  1.00  0.00     0.366 C 
HETATM   14  O   UNL     1       6.552  -2.323  -2.264  1.00  0.00    -0.308 OA
HETATM   15  C   UNL     1       6.772  -2.099  -3.586  1.00  0.00     0.106 A 
HETATM   16  C   UNL     1       7.923  -1.380  -3.802  1.00  0.00     0.106 A 
HETATM   17  C   UNL     1       5.974  -2.523  -4.626  1.00  0.00     0.040 A 
HETATM   18  O   UNL     1       8.562  -1.087  -2.640  1.00  0.00    -0.308 OA
HETATM   19  C   UNL     1       8.336  -1.030  -5.069  1.00  0.00     0.040 A 
HETATM   20  C   UNL     1       7.551  -1.454  -6.145  1.00  0.00     0.003 A 
HETATM   21  C   UNL     1       6.378  -2.200  -5.924  1.00  0.00     0.003 A 
ENDBRANCH  10  13
ENDBRANCH   5   9
BRANCH   4  22
HETATM   22  C   UNL     1       5.503   2.187  -0.370  1.00  0.00     0.064 A 
HETATM   23  N   UNL     1       6.570   2.458  -1.189  1.00  0.00    -0.277 N 
HETATM   24  H   UNL     1       6.977   1.857  -1.898  1.00  0.00     0.189 HD
HETATM   25  N   UNL     1       7.112   3.671  -0.990  1.00  0.00    -0.179 NA
HETATM   26  C   UNL     1       6.357   4.212  -0.028  1.00  0.00     0.053 A 
HETATM   27  C   UNL     1       6.636   5.579   0.474  1.00  0.00     0.072 C 
HETATM   28  C   UNL     1       5.332   3.331   0.383  1.00  0.00     0.060 A 
ENDBRANCH   4  22
TORSDOF 3
