REMARK  10 active torsions:
REMARK  status: ('A' for Active; 'I' for Inactive)
REMARK    1  A    between atoms: C_6  and  C_7 
REMARK    2  A    between atoms: C_7  and  C_8 
REMARK       I    between atoms: C_8  and  N_9 
REMARK    3  A    between atoms: N_9  and  C_10 
REMARK    4  A    between atoms: C_10  and  C_11 
REMARK    5  A    between atoms: C_11  and  N_12 
REMARK    6  A    between atoms: C_17  and  C_18 
REMARK    7  A    between atoms: C_27  and  C_28 
REMARK    8  A    between atoms: C_28  and  O_29 
REMARK    9  A    between atoms: O_29  and  C_30 
REMARK   10  A    between atoms: C_30  and  C_31 
ROOT
HETATM    1  C   UNL     1       1.651   1.199   0.411  1.00  0.00     0.071 C 
HETATM    2  C   UNL     1       2.934   0.406   0.319  1.00  0.00     0.048 C 
HETATM    3  N   UNL     1       4.060   1.086   0.802  1.00  0.00    -0.229 NA
HETATM    4  C   UNL     1       4.991   0.352   1.327  1.00  0.00     0.170 C 
HETATM    5  N   UNL     1       4.985  -1.208   1.218  1.00  0.00    -0.318 N 
HETATM    6  C   UNL     1       5.296  -1.703   2.370  1.00  0.00     0.011 C 
HETATM    7  C   UNL     1       4.356  -1.524  -0.074  1.00  0.00     0.169 C 
HETATM    8  S   UNL     1       6.183   0.882   2.450  1.00  0.00    -0.086 SA
HETATM    9  C   UNL     1       6.115  -0.767   3.254  1.00  0.00     0.135 C 
HETATM   10  C   UNL     1       2.996  -0.910  -0.010  1.00  0.00     0.069 C 
ENDROOT
BRANCH   6  11
HETATM   11  C   UNL     1       4.798  -3.047   2.826  1.00  0.00     0.156 C 
BRANCH  11  12
HETATM   12  C   UNL     1       4.045  -2.955   4.143  1.00  0.00     0.223 C 
HETATM   13  N   UNL     1       2.706  -3.237   4.121  1.00  0.00    -0.359 N 
HETATM   14  H   UNL     1       2.266  -3.493   3.234  1.00  0.00     0.162 HD
HETATM   15  O   UNL     1       4.604  -2.589   5.176  1.00  0.00    -0.273 OA
BRANCH  13  16
HETATM   16  C   UNL     1       1.798  -2.929   5.236  1.00  0.00     0.150 C 
BRANCH  16  17
HETATM   17  C   UNL     1       2.034  -3.698   6.562  1.00  0.00     0.253 C 
BRANCH  17  18
HETATM   18  N   UNL     1       3.257  -3.221   7.323  1.00  0.00    -0.077 N 
HETATM   19  H   UNL     1       4.000  -3.052   6.617  1.00  0.00     0.279 HD
HETATM   20  C   UNL     1       3.066  -1.914   8.041  1.00  0.00     0.269 C 
HETATM   21  C   UNL     1       3.790  -4.272   8.258  1.00  0.00     0.269 C 
ENDBRANCH  17  18
ENDBRANCH  16  17
ENDBRANCH  13  16
ENDBRANCH  11  12
ENDBRANCH   6  11
BRANCH   7  22
HETATM   22  C   UNL     1       4.628  -2.810  -0.831  1.00  0.00     0.008 A 
HETATM   23  C   UNL     1       5.639  -3.715  -0.480  1.00  0.00     0.125 A 
HETATM   24  F   UNL     1       6.334  -3.539   0.650  1.00  0.00    -0.205 F 
HETATM   25  C   UNL     1       6.016  -4.770  -1.309  1.00  0.00     0.043 A 
HETATM   26  C   UNL     1       5.416  -4.921  -2.553  1.00  0.00     0.003 A 
HETATM   27  C   UNL     1       4.431  -4.024  -2.954  1.00  0.00     0.001 A 
HETATM   28  C   UNL     1       4.037  -2.985  -2.103  1.00  0.00     0.013 A 
ENDBRANCH   7  22
BRANCH  10  29
HETATM   29  C   UNL     1       1.850  -1.812   0.180  1.00  0.00     0.294 C 
HETATM   30  O   UNL     1       1.939  -2.748   0.965  1.00  0.00    -0.259 OA
BRANCH  29  31
HETATM   31  O   UNL     1       0.785  -1.422  -0.526  1.00  0.00    -0.313 OA
BRANCH  31  32
HETATM   32  C   UNL     1      -0.409  -2.202  -0.368  1.00  0.00     0.217 C 
BRANCH  32  33
HETATM   33  C   UNL     1      -1.100  -2.179  -1.699  1.00  0.00    -0.034 A 
HETATM   34  C   UNL     1      -0.879  -3.207  -2.625  1.00  0.00     0.009 A 
HETATM   35  C   UNL     1      -1.462  -3.151  -3.891  1.00  0.00     0.001 A 
HETATM   36  C   UNL     1      -2.264  -2.067  -4.242  1.00  0.00     0.000 A 
HETATM   37  C   UNL     1      -2.490  -1.040  -3.328  1.00  0.00     0.001 A 
HETATM   38  C   UNL     1      -1.909  -1.092  -2.061  1.00  0.00     0.009 A 
ENDBRANCH  32  33
ENDBRANCH  31  32
ENDBRANCH  29  31
ENDBRANCH  10  29
TORSDOF 10
