REMARK  3 active torsions:
REMARK  status: ('A' for Active; 'I' for Inactive)
REMARK    1  A    between atoms: C_2  and  N_3 
REMARK       I    between atoms: N_3  and  C_4 
REMARK    2  A    between atoms: C_4  and  C_5 
REMARK    3  A    between atoms: C_5  and  C_6 
ROOT
HETATM    1  C   UNL     1      -1.433   2.527   0.254  1.00  0.00     0.286 C 
HETATM    2  N   UNL     1      -2.208   2.201  -1.030  1.00  0.00    -0.056 N 
HETATM    3  H   UNL     1      -2.934   2.921  -1.189  1.00  0.00     0.278 HD
HETATM    4  H   UNL     1      -1.576   2.290  -1.839  1.00  0.00     0.278 HD
HETATM    5  C   UNL     1      -2.793   0.822  -0.963  1.00  0.00     0.209 C 
HETATM    6  C   UNL     1      -1.619  -0.177  -0.871  1.00  0.00     0.115 C 
HETATM    7  N   UNL     1      -0.741   0.130   0.256  1.00  0.00    -0.353 N 
HETATM    8  C   UNL     1      -0.416   1.421   0.623  1.00  0.00     0.249 C 
HETATM    9  O   UNL     1       0.589   1.639   1.288  1.00  0.00    -0.271 OA
HETATM   10  C   UNL     1      -3.668   0.556  -2.178  1.00  0.00     0.035 C 
HETATM   11  C   UNL     1      -4.205  -0.874  -2.122  1.00  0.00     0.002 C 
HETATM   12  C   UNL     1      -3.078  -1.901  -2.000  1.00  0.00     0.002 C 
HETATM   13  C   UNL     1      -2.144  -1.611  -0.822  1.00  0.00     0.027 C 
HETATM   14  H   UNL     1      -0.012  -0.542   0.496  1.00  0.00     0.163 HD
ENDROOT
BRANCH   1  15
HETATM   15  C   UNL     1      -0.753   3.883   0.112  1.00  0.00     0.146 C 
BRANCH  15  16
HETATM   16  C   UNL     1      -1.828   4.917  -0.043  1.00  0.00     0.224 C 
HETATM   17  N   UNL     1      -2.479   5.517   0.981  1.00  0.00    -0.327 N 
HETATM   18  H   UNL     1      -3.267   6.059   0.633  1.00  0.00     0.169 HD
HETATM   19  O   UNL     1      -2.303   5.058  -1.179  1.00  0.00    -0.273 OA
BRANCH  17  20
HETATM   20  C   UNL     1      -2.366   5.485   2.382  1.00  0.00     0.034 A 
HETATM   21  C   UNL     1      -1.233   5.111   3.103  1.00  0.00     0.031 A 
HETATM   22  C   UNL     1      -1.258   5.094   4.505  1.00  0.00     0.026 A 
HETATM   23  C   UNL     1      -2.411   5.460   5.193  1.00  0.00     0.034 A 
HETATM   24  C   UNL     1      -3.537   5.865   4.490  1.00  0.00     0.026 A 
HETATM   25 CL   UNL     1      -2.436   5.423   6.910  1.00  0.00    -0.084 Cl
HETATM   26  C   UNL     1      -3.508   5.889   3.092  1.00  0.00     0.031 A 
ENDBRANCH  17  20
ENDBRANCH  15  16
ENDBRANCH   1  15
TORSDOF 3
