REMARK  5 active torsions:
REMARK  status: ('A' for Active; 'I' for Inactive)
REMARK    1  A    between atoms: C_4  and  N_5 
REMARK       I    between atoms: N_5  and  C_6 
REMARK       I    between atoms: C_6  and  N_7 
REMARK    2  A    between atoms: N_7  and  C_8 
REMARK    3  A    between atoms: C_11  and  O_12 
REMARK    4  A    between atoms: O_12  and  C_13 
REMARK    5  A    between atoms: C_13  and  C_14 
ROOT
HETATM    1  N   UNL     1       5.013   5.197  -0.110  1.00  0.00    -0.293 N 
HETATM    2  C   UNL     1       4.666   3.969   0.384  1.00  0.00     0.326 C 
HETATM    3  N   UNL     1       3.337   3.657   0.362  1.00  0.00    -0.309 N 
HETATM    4  O   UNL     1       5.577   3.250   0.791  1.00  0.00    -0.247 OA
HETATM    5  H   UNL     1       6.010   5.349  -0.080  1.00  0.00     0.172 HD
HETATM    6  H   UNL     1       2.750   4.396  -0.021  1.00  0.00     0.170 HD
ENDROOT
BRANCH   3   7
HETATM    7  C   UNL     1       2.706   2.465   0.754  1.00  0.00     0.036 A 
HETATM    8  C   UNL     1       3.377   1.372   1.303  1.00  0.00     0.032 A 
HETATM    9  C   UNL     1       2.683   0.203   1.643  1.00  0.00     0.039 A 
HETATM   10  C   UNL     1       1.309   0.112   1.429  1.00  0.00     0.068 A 
HETATM   11  C   UNL     1       0.631   1.212   0.905  1.00  0.00     0.039 A 
HETATM   12  C   UNL     1       1.323   2.380   0.569  1.00  0.00     0.032 A 
BRANCH  10  13
HETATM   13  O   UNL     1       0.527  -0.978   1.693  1.00  0.00    -0.351 OA
BRANCH  13  14
HETATM   14  C   UNL     1       1.210  -2.203   1.971  1.00  0.00     0.179 C 
BRANCH  14  15
HETATM   15  C   UNL     1       0.193  -3.353   1.974  1.00  0.00     0.002 C 
HETATM   16  C   UNL     1      -0.475  -3.507   0.605  1.00  0.00     0.011 C 
HETATM   17  C   UNL     1       0.870  -4.660   2.383  1.00  0.00     0.011 C 
ENDBRANCH  14  15
ENDBRANCH  13  14
ENDBRANCH  10  13
ENDBRANCH   3   7
BRANCH   1  18
HETATM   18  C   UNL     1       4.207   6.210  -0.632  1.00  0.00     0.131 A 
HETATM   19  C   UNL     1       4.841   7.360  -1.095  1.00  0.00     0.057 A 
HETATM   20  C   UNL     1       4.073   8.399  -1.630  1.00  0.00    -0.057 A 
HETATM   21  C   UNL     1       4.726   9.660  -2.110  1.00  0.00     0.048 C 
HETATM   22  C   UNL     1       2.688   8.256  -1.654  1.00  0.00     0.026 A 
HETATM   23  C   UNL     1       2.139   7.079  -1.173  1.00  0.00     0.119 A 
HETATM   24  N   UNL     1       2.865   6.055  -0.671  1.00  0.00    -0.243 NA
ENDBRANCH   1  18
TORSDOF 5
