REMARK  7 active torsions:
REMARK  status: ('A' for Active; 'I' for Inactive)
REMARK    1  A    between atoms: O_2  and  C_3 
REMARK    2  A    between atoms: C_6  and  C_7 
REMARK    3  A    between atoms: C_7  and  C_8 
REMARK    4  A    between atoms: C_8  and  C_9 
REMARK    5  A    between atoms: C_9  and  O_10 
REMARK    6  A    between atoms: N_13  and  C_14 
REMARK    7  A    between atoms: C_14  and  N_15 
ROOT
HETATM    1  C   UNL     1       4.313   4.384   3.157  1.00  0.00     0.175 C 
HETATM    2  C   UNL     1       2.759   4.165   3.173  1.00  0.00     0.265 C 
HETATM    3  O   UNL     1       2.078   3.268   2.695  1.00  0.00    -0.269 OA
HETATM    4  N   UNL     1       2.185   5.235   3.873  1.00  0.00    -0.289 N 
HETATM    5  C   UNL     1       3.102   6.294   3.941  1.00  0.00     0.049 A 
HETATM    6  C   UNL     1       4.354   5.868   3.470  1.00  0.00     0.014 A 
HETATM    7  C   UNL     1       2.886   7.599   4.349  1.00  0.00     0.032 A 
HETATM    8  C   UNL     1       3.962   8.491   4.279  1.00  0.00     0.021 A 
HETATM    9  C   UNL     1       5.216   8.066   3.811  1.00  0.00     0.011 A 
HETATM   10 BR   UNL     1       6.645   9.301   3.734  1.00  0.00    -0.051 Br
HETATM   11  C   UNL     1       5.427   6.746   3.408  1.00  0.00     0.032 A 
ENDROOT
BRANCH   1  12
HETATM   12  C   UNL     1       4.938   3.975   1.823  1.00  0.00     0.137 C 
BRANCH  12  13
HETATM   13  C   UNL     1       4.891   2.468   1.600  1.00  0.00     0.163 C 
HETATM   14  O   UNL     1       4.319   1.701   2.371  1.00  0.00    -0.292 OA
BRANCH  13  15
HETATM   15  C   UNL     1       5.547   1.893   0.385  1.00  0.00     0.010 A 
HETATM   16  C   UNL     1       6.207   2.678  -0.567  1.00  0.00     0.018 A 
HETATM   17  C   UNL     1       6.804   2.079  -1.687  1.00  0.00     0.037 A 
HETATM   18  C   UNL     1       6.744   0.696  -1.864  1.00  0.00     0.068 A 
HETATM   19  C   UNL     1       6.081  -0.084  -0.918  1.00  0.00     0.037 A 
HETATM   20  C   UNL     1       5.488   0.506   0.200  1.00  0.00     0.018 A 
BRANCH  18  21
HETATM   21  O   UNL     1       7.280  -0.008  -2.905  1.00  0.00    -0.356 OA
HETATM   22  C   UNL     1       8.045   0.719  -3.858  1.00  0.00     0.210 C 
ENDBRANCH  18  21
ENDBRANCH  13  15
ENDBRANCH  12  13
ENDBRANCH   1  12
BRANCH   1  23
HETATM   23  O   UNL     1       4.985   3.743   4.236  1.00  0.00    -0.375 OA
HETATM   24  H   UNL     1       4.960   4.301   5.030  1.00  0.00     0.211 HD
ENDBRANCH   1  23
BRANCH   4  25
HETATM   25  C   UNL     1       0.765   5.390   4.013  1.00  0.00     0.367 C 
BRANCH  25  26
HETATM   26  N   UNL     1       0.090   4.064   4.197  1.00  0.00    -0.055 N 
HETATM   27  H   UNL     1       0.528   3.470   3.463  1.00  0.00     0.281 HD
HETATM   28  C   UNL     1       0.399   3.384   5.504  1.00  0.00     0.237 C 
HETATM   29  C   UNL     1      -0.128   1.956   5.455  1.00  0.00     0.028 C 
HETATM   30  C   UNL     1      -1.618   1.914   5.130  1.00  0.00     0.003 C 
HETATM   31  C   UNL     1      -1.932   2.693   3.857  1.00  0.00     0.028 C 
HETATM   32  C   UNL     1      -1.381   4.111   3.907  1.00  0.00     0.237 C 
ENDBRANCH  25  26
ENDBRANCH   4  25
TORSDOF 7
