REMARK  5 active torsions:
REMARK  status: ('A' for Active; 'I' for Inactive)
REMARK    1  A    between atoms: C_6  and  O_7 
REMARK    2  A    between atoms: O_7  and  C_8 
REMARK    3  A    between atoms: C_8  and  C_9 
REMARK       I    between atoms: C_9  and  N_10 
REMARK    4  A    between atoms: N_10  and  N_11 
REMARK    5  A    between atoms: C_12  and  C_13 
ROOT
HETATM    1  C   UNL     1       8.630  -0.739  -0.535  1.00  0.00     0.261 C 
HETATM    2  N   UNL     1       9.161   0.439  -1.038  1.00  0.00    -0.246 N 
HETATM    3  O   UNL     1       7.457  -0.907  -0.206  1.00  0.00    -0.269 OA
HETATM    4  H   UNL     1      10.138   0.469  -1.318  1.00  0.00     0.192 HD
ENDROOT
BRANCH   2   5
HETATM    5  N   UNL     1       8.363   1.537  -1.144  1.00  0.00    -0.184 NA
HETATM    6  C   UNL     1       8.918   2.628  -1.559  1.00  0.00     0.153 C 
BRANCH   6   7
HETATM    7  C   UNL     1       8.120   3.837  -1.664  1.00  0.00     0.018 A 
HETATM    8  C   UNL     1       6.711   4.003  -1.430  1.00  0.00     0.004 A 
HETATM    9  C   UNL     1       6.407   5.348  -1.642  1.00  0.00     0.043 A 
HETATM   10  C   UNL     1       5.661   3.137  -1.056  1.00  0.00     0.014 A 
HETATM   11  C   UNL     1       5.114   5.868  -1.496  1.00  0.00     0.030 A 
HETATM   12  N   UNL     1       7.576   5.976  -1.992  1.00  0.00    -0.358 N 
HETATM   13  C   UNL     1       4.096   4.986  -1.124  1.00  0.00     0.002 A 
HETATM   14  C   UNL     1       4.362   3.638  -0.907  1.00  0.00     0.001 A 
HETATM   15  H   UNL     1       7.645   6.963  -2.199  1.00  0.00     0.166 HD
HETATM   16  C   UNL     1       8.622   5.086  -2.011  1.00  0.00     0.018 A 
HETATM   17  C   UNL     1      10.000   5.529  -2.349  1.00  0.00     0.069 C 
ENDBRANCH   6   7
ENDBRANCH   2   5
BRANCH   1  18
HETATM   18  C   UNL     1       9.670  -1.833  -0.318  1.00  0.00     0.280 C 
BRANCH  18  19
HETATM   19  O   UNL     1      10.848  -1.630  -1.095  1.00  0.00    -0.341 OA
BRANCH  19  20
HETATM   20  C   UNL     1      11.705  -2.703  -1.137  1.00  0.00     0.086 A 
HETATM   21  C   UNL     1      12.471  -2.887  -2.296  1.00  0.00     0.044 A 
HETATM   22  C   UNL     1      13.371  -3.955  -2.396  1.00  0.00     0.028 A 
HETATM   23 BR   UNL     1      12.303  -1.718  -3.785  1.00  0.00    -0.048 Br
HETATM   24  C   UNL     1      13.538  -4.841  -1.326  1.00  0.00    -0.061 A 
HETATM   25  C   UNL     1      14.476  -6.008  -1.430  1.00  0.00     0.048 C 
HETATM   26  C   UNL     1      12.781  -4.652  -0.166  1.00  0.00     0.009 A 
HETATM   27  C   UNL     1      11.880  -3.588  -0.068  1.00  0.00     0.039 A 
ENDBRANCH  19  20
ENDBRANCH  18  19
ENDBRANCH   1  18
TORSDOF 5
