REMARK  10 active torsions:
REMARK  status: ('A' for Active; 'I' for Inactive)
REMARK    1  A    between atoms: C_4  and  C_5 
REMARK    2  A    between atoms: C_5  and  C_6 
REMARK    3  A    between atoms: C_6  and  N_7 
REMARK    4  A    between atoms: C_6  and  C_15 
REMARK       I    between atoms: N_7  and  C_8 
REMARK    5  A    between atoms: C_8  and  C_9 
REMARK       I    between atoms: C_15  and  N_16 
REMARK    6  A    between atoms: N_16  and  C_17 
REMARK    7  A    between atoms: C_17  and  C_18 
REMARK    8  A    between atoms: C_18  and  C_19 
REMARK    9  A    between atoms: C_21  and  O_22 
REMARK   10  A    between atoms: C_23  and  O_24 
ROOT
HETATM    1  C   UNL     1       3.431  -1.335  -0.062  1.00  0.00     0.181 C 
ENDROOT
BRANCH   1   2
HETATM    2  C   UNL     1       3.179   0.145   0.295  1.00  0.00     0.073 C 
BRANCH   2   3
HETATM    3  C   UNL     1       1.861   0.461   0.970  1.00  0.00    -0.056 A 
HETATM    4  C   UNL     1       1.381  -0.298   2.048  1.00  0.00     0.007 A 
HETATM    5  C   UNL     1       0.210   0.069   2.715  1.00  0.00     0.001 A 
HETATM    6  C   UNL     1      -0.487   1.211   2.328  1.00  0.00     0.000 A 
HETATM    7  C   UNL     1      -0.014   1.985   1.271  1.00  0.00     0.001 A 
HETATM    8  C   UNL     1       1.151   1.613   0.597  1.00  0.00     0.007 A 
ENDBRANCH   2   3
ENDBRANCH   1   2
BRANCH   1   9
HETATM    9  N   UNL     1       2.574  -1.862  -1.129  1.00  0.00    -0.342 N 
HETATM   10  C   UNL     1       2.435  -1.337  -2.391  1.00  0.00     0.276 C 
HETATM   11  O   UNL     1       3.140  -0.411  -2.789  1.00  0.00    -0.265 OA
HETATM   12  H   UNL     1       1.917  -2.596  -0.884  1.00  0.00     0.163 HD
BRANCH  10  13
HETATM   13  C   UNL     1       1.449  -2.011  -3.208  1.00  0.00     0.142 A 
HETATM   14  O   UNL     1       0.688  -3.011  -2.655  1.00  0.00    -0.317 OA
HETATM   15  C   UNL     1      -0.131  -3.478  -3.633  1.00  0.00     0.143 A 
HETATM   16  C   UNL     1       0.088  -2.803  -4.810  1.00  0.00     0.027 A 
HETATM   17  C   UNL     1       1.105  -1.855  -4.538  1.00  0.00     0.045 A 
ENDBRANCH  10  13
ENDBRANCH   1   9
BRANCH   1  18
HETATM   18  C   UNL     1       4.952  -1.533  -0.255  1.00  0.00     0.240 C 
HETATM   19  N   UNL     1       5.434  -1.452  -1.542  1.00  0.00    -0.359 N 
HETATM   20  H   UNL     1       4.784  -1.113  -2.245  1.00  0.00     0.162 HD
HETATM   21  O   UNL     1       5.703  -1.611   0.719  1.00  0.00    -0.271 OA
BRANCH  19  22
HETATM   22  C   UNL     1       6.856  -1.283  -1.792  1.00  0.00     0.127 C 
BRANCH  22  23
HETATM   23  C   UNL     1       7.284  -1.672  -3.211  1.00  0.00     0.058 C 
BRANCH  23  24
HETATM   24  C   UNL     1       6.868  -0.788  -4.370  1.00  0.00    -0.054 A 
HETATM   25  C   UNL     1       6.005   0.310  -4.250  1.00  0.00     0.046 A 
HETATM   26  C   UNL     1       5.632   1.030  -5.383  1.00  0.00     0.099 A 
HETATM   27  C   UNL     1       6.146   0.702  -6.632  1.00  0.00     0.098 A 
HETATM   28  C   UNL     1       7.020  -0.361  -6.775  1.00  0.00     0.040 A 
HETATM   29  C   UNL     1       7.372  -1.108  -5.648  1.00  0.00     0.010 A 
BRANCH  26  30
HETATM   30  O   UNL     1       4.741   2.066  -5.309  1.00  0.00    -0.358 OA
HETATM   31  H   UNL     1       4.321   2.026  -4.430  1.00  0.00     0.218 HD
ENDBRANCH  26  30
BRANCH  27  32
HETATM   32  O   UNL     1       5.782   1.424  -7.731  1.00  0.00    -0.358 OA
HETATM   33  H   UNL     1       5.182   2.112  -7.379  1.00  0.00     0.218 HD
ENDBRANCH  27  32
ENDBRANCH  23  24
ENDBRANCH  22  23
ENDBRANCH  19  22
ENDBRANCH   1  18
TORSDOF 10
