REMARK  8 active torsions:
REMARK  status: ('A' for Active; 'I' for Inactive)
REMARK    1  A    between atoms: O_2  and  C_3 
REMARK    2  A    between atoms: C_5  and  N_6 
REMARK       I    between atoms: N_6  and  C_7 
REMARK    3  A    between atoms: C_7  and  C_8 
REMARK    4  A    between atoms: C_8  and  N_9 
REMARK       I    between atoms: N_15  and  C_16 
REMARK    5  A    between atoms: C_16  and  C_17 
REMARK    6  A    between atoms: C_17  and  C_18 
REMARK    7  A    between atoms: C_18  and  C_19 
REMARK    8  A    between atoms: N_28  and  C_29 
ROOT
HETATM    1  N   UNL     1       5.494  -0.027  -0.180  1.00  0.00    -0.325 N 
HETATM    2  C   UNL     1       4.374   0.696  -0.502  1.00  0.00     0.250 C 
HETATM    3  O   UNL     1       4.195   1.252  -1.575  1.00  0.00    -0.270 OA
HETATM    4  C   UNL     1       3.437   0.691   0.723  1.00  0.00     0.118 C 
HETATM    5  C   UNL     1       2.027   0.299   0.257  1.00  0.00     0.061 C 
HETATM    6  C   UNL     1       1.294   1.451  -0.425  1.00  0.00     0.129 C 
HETATM    7  N   UNL     1       1.399   2.683   0.351  1.00  0.00    -0.352 N 
HETATM    8  C   UNL     1       0.238   3.307   0.785  1.00  0.00     0.220 C 
HETATM    9  O   UNL     1      -0.874   2.795   0.634  1.00  0.00    -0.273 OA
HETATM   10  C   UNL     1       2.764   3.142   0.586  1.00  0.00     0.129 C 
HETATM   11  C   UNL     1       3.551   2.089   1.363  1.00  0.00     0.061 C 
HETATM   12  N   UNL     1       4.071  -0.358   1.576  1.00  0.00    -0.346 N 
HETATM   13  C   UNL     1       5.358  -0.776   1.030  1.00  0.00     0.254 C 
ENDROOT
BRANCH  12  14
HETATM   14  C   UNL     1       3.637  -0.853   2.793  1.00  0.00     0.032 A 
HETATM   15  C   UNL     1       4.280  -1.940   3.419  1.00  0.00     0.029 A 
HETATM   16  C   UNL     1       3.856  -2.467   4.648  1.00  0.00     0.002 A 
HETATM   17  C   UNL     1       2.765  -1.917   5.301  1.00  0.00     0.000 A 
HETATM   18  C   UNL     1       2.103  -0.846   4.720  1.00  0.00     0.002 A 
HETATM   19  C   UNL     1       2.535  -0.332   3.488  1.00  0.00     0.029 A 
ENDBRANCH  12  14
BRANCH   1  20
HETATM   20  C   UNL     1       6.690  -0.121  -1.001  1.00  0.00     0.230 C 
BRANCH  20  21
HETATM   21  C   UNL     1       6.761  -1.336  -1.930  1.00  0.00     0.240 C 
HETATM   22  N   UNL     1       5.563  -1.630  -2.552  1.00  0.00    -0.326 N 
HETATM   23  H   UNL     1       4.766  -1.069  -2.271  1.00  0.00     0.169 HD
HETATM   24  O   UNL     1       7.844  -1.874  -2.145  1.00  0.00    -0.271 OA
BRANCH  22  25
HETATM   25  C   UNL     1       5.333  -2.566  -3.582  1.00  0.00     0.037 A 
HETATM   26  C   UNL     1       6.339  -3.302  -4.211  1.00  0.00     0.066 A 
HETATM   27  C   UNL     1       6.043  -4.168  -5.272  1.00  0.00     0.070 A 
HETATM   28  C   UNL     1       4.719  -4.337  -5.675  1.00  0.00     0.037 A 
HETATM   29  C   UNL     1       3.704  -3.620  -5.042  1.00  0.00     0.005 A 
HETATM   30  C   UNL     1       4.010  -2.732  -4.009  1.00  0.00     0.029 A 
BRANCH  27  31
HETATM   31  O   UNL     1       7.127  -4.797  -5.823  1.00  0.00    -0.356 OA
HETATM   32  C   UNL     1       6.940  -5.370  -7.111  1.00  0.00     0.210 C 
ENDBRANCH  27  31
ENDBRANCH  22  25
ENDBRANCH  20  21
ENDBRANCH   1  20
BRANCH   8  33
HETATM   33  C   UNL     1       0.336   4.683   1.410  1.00  0.00     0.107 C 
BRANCH  33  34
HETATM   34  C   UNL     1       0.517   5.736   0.320  1.00  0.00     0.047 C 
BRANCH  34  35
HETATM   35  C   UNL     1       0.466   7.139   0.871  1.00  0.00    -0.058 A 
HETATM   36  C   UNL     1       1.640   7.802   1.250  1.00  0.00     0.007 A 
HETATM   37  C   UNL     1       1.585   9.101   1.757  1.00  0.00     0.001 A 
HETATM   38  C   UNL     1       0.357   9.746   1.897  1.00  0.00     0.000 A 
HETATM   39  C   UNL     1      -0.818   9.091   1.531  1.00  0.00     0.001 A 
HETATM   40  C   UNL     1      -0.764   7.793   1.023  1.00  0.00     0.007 A 
ENDBRANCH  34  35
ENDBRANCH  33  34
ENDBRANCH   8  33
TORSDOF 8
