REMARK  5 active torsions:
REMARK  status: ('A' for Active; 'I' for Inactive)
REMARK    1  A    between atoms: C_2  and  C_3 
REMARK    2  A    between atoms: C_8  and  C_9 
REMARK       I    between atoms: C_9  and  N_10 
REMARK    3  A    between atoms: N_10  and  C_11 
REMARK    4  A    between atoms: C_11  and  C_12 
REMARK    5  A    between atoms: C_19  and  C_20 
ROOT
HETATM    1  C   UNL     1      -3.314  -0.459  -0.186  1.00  0.00     0.118 C 
HETATM    2  N   UNL     1      -3.543   0.672  -1.083  1.00  0.00    -0.366 N 
HETATM    3  C   UNL     1      -3.995   0.517  -2.343  1.00  0.00     0.123 A 
HETATM    4  N   UNL     1      -4.036  -0.713  -2.933  1.00  0.00    -0.240 N 
HETATM    5  N   UNL     1      -4.653  -0.730  -4.126  1.00  0.00    -0.165 NA
HETATM    6  C   UNL     1      -4.925   0.576  -4.355  1.00  0.00     0.148 A 
HETATM    7  C   UNL     1      -4.497   1.391  -3.268  1.00  0.00     0.088 A 
HETATM    8  C   UNL     1      -3.607  -1.925  -2.264  1.00  0.00     0.221 C 
HETATM    9  C   UNL     1      -3.882  -1.777  -0.759  1.00  0.00     0.066 C 
HETATM   10  H   UNL     1      -3.482   1.597  -0.657  1.00  0.00     0.161 HD
ENDROOT
BRANCH   6  11
HETATM   11  C   UNL     1      -5.634   1.034  -5.560  1.00  0.00     0.272 C 
HETATM   12  N   UNL     1      -5.966   0.014  -6.421  1.00  0.00    -0.353 N 
HETATM   13  H   UNL     1      -5.810  -0.926  -6.061  1.00  0.00     0.162 HD
HETATM   14  O   UNL     1      -5.931   2.210  -5.750  1.00  0.00    -0.266 OA
BRANCH  12  15
HETATM   15  C   UNL     1      -6.929   0.194  -7.486  1.00  0.00     0.155 C 
BRANCH  15  16
HETATM   16  C   UNL     1      -6.833  -0.924  -8.520  1.00  0.00     0.139 C 
HETATM   17  O   UNL     1      -7.129  -2.200  -7.911  1.00  0.00    -0.384 OA
HETATM   18  C   UNL     1      -7.890  -2.980  -8.846  1.00  0.00     0.168 C 
HETATM   19  C   UNL     1      -7.945  -2.196 -10.141  1.00  0.00     0.029 C 
HETATM   20  C   UNL     1      -7.827  -0.773  -9.657  1.00  0.00     0.035 C 
ENDBRANCH  15  16
ENDBRANCH  12  15
ENDBRANCH   6  11
BRANCH   8  21
HETATM   21  C   UNL     1      -2.154  -2.203  -2.570  1.00  0.00     0.409 C 
HETATM   22  F   UNL     1      -1.929  -2.402  -3.886  1.00  0.00    -0.169 F 
HETATM   23  F   UNL     1      -1.318  -1.230  -2.150  1.00  0.00    -0.169 F 
HETATM   24  F   UNL     1      -1.766  -3.341  -1.935  1.00  0.00    -0.169 F 
ENDBRANCH   8  21
BRANCH   1  25
HETATM   25  C   UNL     1      -3.942  -0.137   1.163  1.00  0.00    -0.034 A 
HETATM   26  C   UNL     1      -5.298   0.223   1.260  1.00  0.00     0.011 A 
HETATM   27  C   UNL     1      -5.871   0.531   2.496  1.00  0.00     0.026 A 
HETATM   28  C   UNL     1      -5.098   0.488   3.656  1.00  0.00     0.055 A 
HETATM   29  C   UNL     1      -3.747   0.134   3.577  1.00  0.00     0.056 A 
HETATM   30 CL   UNL     1      -5.868   0.887   5.150  1.00  0.00    -0.083 Cl
HETATM   31  C   UNL     1      -3.174  -0.178   2.336  1.00  0.00     0.034 A 
HETATM   32 CL   UNL     1      -2.726   0.066   4.969  1.00  0.00    -0.083 Cl
ENDBRANCH   1  25
TORSDOF 5
