REMARK  4 active torsions:
REMARK  status: ('A' for Active; 'I' for Inactive)
REMARK    1  A    between atoms: C_9  and  N_10 
REMARK    2  A    between atoms: N_10  and  C_12 
REMARK    3  A    between atoms: C_12  and  C_13 
REMARK    4  A    between atoms: C_14  and  C_15 
ROOT
HETATM    1  C   UNL     1       6.012  -2.273  -0.242  1.00  0.00     0.016 A 
HETATM    2  C   UNL     1       6.833  -2.472  -1.399  1.00  0.00     0.096 A 
HETATM    3  N   UNL     1       7.842  -3.308  -1.131  1.00  0.00    -0.174 NA
HETATM    4  N   UNL     1       7.688  -3.648   0.150  1.00  0.00    -0.288 N 
HETATM    5  H   UNL     1       8.357  -4.297   0.559  1.00  0.00     0.188 HD
HETATM    6  C   UNL     1       6.595  -3.068   0.730  1.00  0.00     0.120 A 
ENDROOT
BRANCH   1   7
HETATM    7  C   UNL     1       4.761  -1.467  -0.174  1.00  0.00     0.277 C 
BRANCH   7   8
HETATM    8  N   UNL     1       4.378  -0.994   1.216  1.00  0.00    -0.065 N 
HETATM    9  H   UNL     1       4.334  -1.816   1.828  1.00  0.00     0.280 HD
HETATM   10  C   UNL     1       5.394  -0.016   1.757  1.00  0.00     0.270 C 
BRANCH   8  11
HETATM   11  C   UNL     1       3.061  -0.271   1.133  1.00  0.00     0.205 C 
HETATM   12  C   UNL     1       2.157  -0.221   2.471  1.00  0.00     0.008 C 
HETATM   13  C   UNL     1       1.184   0.965   2.531  1.00  0.00     0.020 C 
HETATM   14  C   UNL     1       2.803  -0.412   3.844  1.00  0.00     0.020 C 
HETATM   15  C   UNL     1       1.576  -1.541   1.948  1.00  0.00     0.137 C 
HETATM   16  C   UNL     1       1.862  -1.066   0.498  1.00  0.00     0.049 C 
HETATM   17  O   UNL     1       0.213  -1.964   1.958  1.00  0.00    -0.385 OA
HETATM   18  C   UNL     1       1.343  -2.378  -0.085  1.00  0.00     0.035 C 
HETATM   19  C   UNL     1      -0.016  -2.550   0.653  1.00  0.00     0.168 C 
ENDBRANCH   8  11
ENDBRANCH   7   8
ENDBRANCH   1   7
BRANCH   2  20
HETATM   20  C   UNL     1       6.649  -1.942  -2.747  1.00  0.00    -0.002 A 
HETATM   21  C   UNL     1       6.515  -0.566  -2.970  1.00  0.00     0.053 A 
HETATM   22  C   UNL     1       6.284  -0.087  -4.260  1.00  0.00     0.103 A 
HETATM   23  C   UNL     1       6.183  -0.975  -5.335  1.00  0.00     0.102 A 
HETATM   24  O   UNL     1       6.150   1.271  -4.392  1.00  0.00    -0.346 OA
HETATM   25  O   UNL     1       5.924  -0.574  -6.618  1.00  0.00    -0.346 OA
HETATM   26  C   UNL     1       6.361  -2.340  -5.128  1.00  0.00     0.040 A 
HETATM   27  C   UNL     1       5.455   0.778  -6.670  1.00  0.00     0.202 C 
HETATM   28  C   UNL     1       6.285   1.673  -5.764  1.00  0.00     0.202 C 
HETATM   29  C   UNL     1       6.592  -2.823  -3.837  1.00  0.00     0.017 A 
ENDBRANCH   2  20
TORSDOF 4
