REMARK  6 active torsions:
REMARK  status: ('A' for Active; 'I' for Inactive)
REMARK    1  A    between atoms: C_8  and  C_9 
REMARK    2  A    between atoms: C_9  and  C_10 
REMARK       I    between atoms: C_10  and  N_11 
REMARK    3  A    between atoms: N_11  and  C_12 
REMARK    4  A    between atoms: C_12  and  C_13 
REMARK    5  A    between atoms: C_13  and  N_14 
REMARK    6  A    between atoms: C_13  and  C_20 
ROOT
HETATM    1  C   UNL     1       1.124  -4.035   2.085  1.00  0.00     0.160 C 
ENDROOT
BRANCH   1   2
HETATM    2  N   UNL     1       2.580  -4.114   2.165  1.00  0.00    -0.358 N 
HETATM    3  C   UNL     1       3.206  -5.252   2.650  1.00  0.00     0.226 C 
HETATM    4  O   UNL     1       2.577  -6.111   3.262  1.00  0.00    -0.273 OA
HETATM    5  H   UNL     1       3.085  -3.650   1.414  1.00  0.00     0.162 HD
BRANCH   3   6
HETATM    6  C   UNL     1       4.721  -5.292   2.415  1.00  0.00     0.111 C 
HETATM    7  C   UNL     1       5.443  -5.798   3.661  1.00  0.00     0.025 C 
BRANCH   6   8
HETATM    8  C   UNL     1       5.045  -6.086   1.183  1.00  0.00     0.004 A 
HETATM    9  C   UNL     1       4.754  -7.408   0.881  1.00  0.00     0.033 A 
HETATM   10  C   UNL     1       4.043  -8.481   1.620  1.00  0.00     0.070 C 
HETATM   11  N   UNL     1       5.278  -7.638  -0.361  1.00  0.00    -0.282 N 
HETATM   12  H   UNL     1       5.269  -8.500  -0.898  1.00  0.00     0.189 HD
HETATM   13  N   UNL     1       5.862  -6.564  -0.901  1.00  0.00    -0.179 NA
HETATM   14  C   UNL     1       5.758  -5.620   0.036  1.00  0.00     0.060 A 
HETATM   15  C   UNL     1       6.348  -4.279  -0.210  1.00  0.00     0.073 C 
ENDBRANCH   6   8
ENDBRANCH   3   6
ENDBRANCH   1   2
BRANCH   1  16
HETATM   16  C   UNL     1       0.291  -4.207   3.402  1.00  0.00     0.238 C 
BRANCH  16  17
HETATM   17  N   UNL     1       0.616  -3.198   4.513  1.00  0.00    -0.061 N 
HETATM   18  H   UNL     1      -0.193  -3.271   5.143  1.00  0.00     0.280 HD
HETATM   19  C   UNL     1       0.728  -1.741   4.153  1.00  0.00     0.236 C 
HETATM   20  C   UNL     1       2.203  -1.434   4.281  1.00  0.00     0.029 C 
HETATM   21  C   UNL     1       2.634  -2.271   5.467  1.00  0.00     0.029 C 
HETATM   22  C   UNL     1       1.817  -3.547   5.369  1.00  0.00     0.236 C 
ENDBRANCH  16  17
BRANCH  16  23
HETATM   23  C   UNL     1      -1.216  -4.218   3.140  1.00  0.00    -0.024 A 
HETATM   24  C   UNL     1      -1.850  -3.266   2.323  1.00  0.00     0.033 A 
HETATM   25  C   UNL     1      -3.236  -3.295   2.142  1.00  0.00     0.034 A 
HETATM   26 CL   UNL     1      -3.981  -2.108   1.145  1.00  0.00    -0.084 Cl
HETATM   27  C   UNL     1      -4.013  -4.266   2.763  1.00  0.00     0.024 A 
HETATM   28  C   UNL     1      -3.400  -5.216   3.577  1.00  0.00     0.002 A 
HETATM   29  C   UNL     1      -2.016  -5.191   3.768  1.00  0.00     0.009 A 
ENDBRANCH  16  23
ENDBRANCH   1  16
TORSDOF 6
