REMARK  2 active torsions:
REMARK  status: ('A' for Active; 'I' for Inactive)
REMARK    1  A    between atoms: C_8  and  N_9 
REMARK       I    between atoms: N_9  and  C_10 
REMARK       I    between atoms: C_10  and  N_11 
REMARK    2  A    between atoms: N_11  and  C_12 
ROOT
HETATM    1  C   UNL     1       0.925  -4.939   6.807  1.00  0.00     0.044 A 
HETATM    2  C   UNL     1      -0.328  -5.529   6.795  1.00  0.00     0.117 A 
HETATM    3  F   UNL     1      -0.822  -6.052   7.924  1.00  0.00    -0.206 F 
HETATM    4  C   UNL     1      -1.066  -5.610   5.622  1.00  0.00     0.067 A 
HETATM    5  C   UNL     1      -0.554  -5.083   4.424  1.00  0.00     0.074 A 
HETATM    6  C   UNL     1      -1.313  -5.336   3.233  1.00  0.00     0.102 C 
HETATM    7  N   UNL     1      -1.919  -5.568   2.270  1.00  0.00    -0.191 NA
HETATM    8  C   UNL     1       0.707  -4.448   4.425  1.00  0.00     0.057 A 
HETATM    9  C   UNL     1       1.443  -4.406   5.625  1.00  0.00     0.034 A 
ENDROOT
BRANCH   8  10
HETATM   10  N   UNL     1       1.361  -3.889   3.297  1.00  0.00    -0.308 N 
HETATM   11  C   UNL     1       0.775  -3.320   2.196  1.00  0.00     0.321 C 
HETATM   12  N   UNL     1       1.688  -3.129   1.186  1.00  0.00    -0.336 N 
HETATM   13  O   UNL     1      -0.399  -2.998   2.067  1.00  0.00    -0.247 OA
HETATM   14  H   UNL     1       2.535  -3.681   1.255  1.00  0.00     0.164 HD
HETATM   15  H   UNL     1       2.318  -3.593   3.447  1.00  0.00     0.170 HD
BRANCH  12  16
HETATM   16  C   UNL     1       1.366  -2.566  -0.128  1.00  0.00     0.118 C 
HETATM   17  C   UNL     1       0.301  -3.311  -0.957  1.00  0.00     0.210 C 
HETATM   18  N   UNL     1      -0.984  -2.687  -0.494  1.00  0.00    -0.065 N 
HETATM   19  C   UNL     1       0.193  -4.823  -0.840  1.00  0.00     0.035 C 
HETATM   20  H   UNL     1      -1.137  -3.002   0.493  1.00  0.00     0.280 HD
HETATM   21  C   UNL     1      -2.173  -3.084  -1.300  1.00  0.00     0.235 C 
HETATM   22  C   UNL     1      -0.689  -1.221  -0.396  1.00  0.00     0.237 C 
HETATM   23  C   UNL     1      -2.308  -4.602  -1.270  1.00  0.00     0.028 C 
HETATM   24  C   UNL     1      -1.011  -5.327  -1.643  1.00  0.00     0.004 C 
HETATM   25  C   UNL     1       0.796  -1.140  -0.030  1.00  0.00     0.055 C 
ENDBRANCH  12  16
ENDBRANCH   8  10
TORSDOF 2
