REMARK  6 active torsions:
REMARK  status: ('A' for Active; 'I' for Inactive)
REMARK    1  A    between atoms: O_2  and  C_3 
REMARK    2  A    between atoms: C_5  and  C_6 
REMARK    3  A    between atoms: C_12  and  C_13 
REMARK       I    between atoms: C_13  and  N_14 
REMARK    4  A    between atoms: N_14  and  C_15 
REMARK    5  A    between atoms: C_15  and  C_16 
REMARK    6  A    between atoms: C_23  and  C_24 
ROOT
HETATM    1  C   UNL     1       3.037   4.127  -2.637  1.00  0.00     0.118 C 
HETATM    2  N   UNL     1       3.800   4.973  -1.726  1.00  0.00    -0.365 N 
HETATM    3  C   UNL     1       3.816   6.316  -1.917  1.00  0.00     0.138 A 
HETATM    4  N   UNL     1       3.445   6.835  -3.141  1.00  0.00    -0.240 N 
HETATM    5  N   UNL     1       3.430   8.174  -3.177  1.00  0.00    -0.181 NA
HETATM    6  C   UNL     1       3.929   8.517  -1.988  1.00  0.00     0.160 A 
HETATM    7  C   UNL     1       4.175   7.406  -1.142  1.00  0.00     0.096 A 
HETATM    8  C   UNL     1       2.987   6.044  -4.272  1.00  0.00     0.221 C 
HETATM    9  C   UNL     1       3.339   4.556  -4.077  1.00  0.00     0.066 C 
HETATM   10  H   UNL     1       4.215   4.509  -0.919  1.00  0.00     0.161 HD
ENDROOT
BRANCH   7  11
HETATM   11  C   UNL     1       4.665   7.498   0.221  1.00  0.00     0.257 C 
HETATM   12  N   UNL     1       4.482   6.379   0.999  1.00  0.00    -0.352 N 
HETATM   13  H   UNL     1       3.837   5.681   0.661  1.00  0.00     0.163 HD
HETATM   14  O   UNL     1       5.159   8.533   0.658  1.00  0.00    -0.267 OA
BRANCH  12  15
HETATM   15  C   UNL     1       4.756   6.430   2.414  1.00  0.00     0.161 C 
BRANCH  15  16
HETATM   16  C   UNL     1       4.896   5.049   2.993  1.00  0.00    -0.041 A 
HETATM   17  C   UNL     1       6.145   4.412   3.000  1.00  0.00     0.009 A 
HETATM   18  C   UNL     1       6.286   3.134   3.543  1.00  0.00     0.001 A 
HETATM   19  C   UNL     1       5.178   2.477   4.073  1.00  0.00     0.000 A 
HETATM   20  C   UNL     1       3.928   3.093   4.056  1.00  0.00     0.001 A 
HETATM   21  C   UNL     1       3.785   4.373   3.516  1.00  0.00     0.009 A 
ENDBRANCH  15  16
ENDBRANCH  12  15
ENDBRANCH   7  11
BRANCH   1  22
HETATM   22  C   UNL     1       3.337   2.667  -2.367  1.00  0.00    -0.033 A 
HETATM   23  C   UNL     1       2.343   1.849  -1.794  1.00  0.00     0.046 A 
HETATM   24  C   UNL     1       2.585   0.496  -1.541  1.00  0.00     0.068 A 
HETATM   25  C   UNL     1       3.830  -0.045  -1.861  1.00  0.00     0.037 A 
HETATM   26  C   UNL     1       4.831   0.753  -2.412  1.00  0.00     0.003 A 
HETATM   27  C   UNL     1       4.589   2.104  -2.657  1.00  0.00     0.009 A 
BRANCH  24  28
HETATM   28  O   UNL     1       1.698  -0.391  -0.997  1.00  0.00    -0.356 OA
HETATM   29  C   UNL     1       0.432   0.120  -0.599  1.00  0.00     0.210 C 
ENDBRANCH  24  28
ENDBRANCH   1  22
BRANCH   8  30
HETATM   30  C   UNL     1       3.574   6.532  -5.581  1.00  0.00     0.409 C 
HETATM   31  F   UNL     1       4.925   6.516  -5.581  1.00  0.00    -0.169 F 
HETATM   32  F   UNL     1       3.179   5.704  -6.588  1.00  0.00    -0.169 F 
HETATM   33  F   UNL     1       3.161   7.766  -5.934  1.00  0.00    -0.169 F 
ENDBRANCH   8  30
TORSDOF 6
