REMARK  8 active torsions:
REMARK  status: ('A' for Active; 'I' for Inactive)
REMARK    1  A    between atoms: C_4  and  S_5 
REMARK    2  A    between atoms: S_5  and  C_6 
REMARK    3  A    between atoms: C_6  and  C_7 
REMARK       I    between atoms: C_7  and  N_8 
REMARK    4  A    between atoms: N_8  and  C_9 
REMARK    5  A    between atoms: C_10  and  O_11 
REMARK    6  A    between atoms: C_22  and  C_23 
REMARK    7  A    between atoms: C_29  and  C_30 
REMARK       I    between atoms: C_30  and  N_31 
REMARK    8  A    between atoms: N_31  and  C_32 
ROOT
HETATM    1  C   UNL     1       0.930   0.157  -0.326  1.00  0.00     0.069 C 
HETATM    2  C   UNL     1       2.425   0.041  -0.165  1.00  0.00     0.019 C 
HETATM    3  N   UNL     1       3.129   1.238  -0.180  1.00  0.00    -0.353 N 
HETATM    4  C   UNL     1       4.495   1.322  -0.405  1.00  0.00     0.088 C 
HETATM    5  C   UNL     1       5.265   0.224  -0.217  1.00  0.00     0.069 C 
HETATM    6  C   UNL     1       6.671   0.198  -0.459  1.00  0.00     0.099 C 
HETATM    7  N   UNL     1       7.809   0.106  -0.664  1.00  0.00    -0.192 NA
HETATM    8  C   UNL     1       4.616  -1.099   0.191  1.00  0.00     0.106 C 
HETATM    9  C   UNL     1       3.103  -1.126  -0.032  1.00  0.00     0.046 C 
HETATM   10  H   UNL     1       2.607   2.076  -0.426  1.00  0.00     0.166 HD
ENDROOT
BRANCH   4  11
HETATM   11  S   UNL     1       5.175   2.809  -1.053  1.00  0.00    -0.102 SA
BRANCH  11  12
HETATM   12  C   UNL     1       4.913   2.420  -2.810  1.00  0.00     0.184 C 
BRANCH  12  13
HETATM   13  C   UNL     1       5.558   3.427  -3.743  1.00  0.00     0.231 C 
HETATM   14  N   UNL     1       4.758   4.154  -4.586  1.00  0.00    -0.324 N 
HETATM   15  H   UNL     1       5.220   4.434  -5.447  1.00  0.00     0.169 HD
HETATM   16  O   UNL     1       6.781   3.484  -3.883  1.00  0.00    -0.272 OA
BRANCH  14  17
HETATM   17  C   UNL     1       3.401   4.504  -4.479  1.00  0.00     0.070 A 
HETATM   18  C   UNL     1       2.659   4.661  -5.664  1.00  0.00     0.095 A 
HETATM   19  C   UNL     1       1.324   5.070  -5.599  1.00  0.00     0.041 A 
HETATM   20  C   UNL     1       0.728   5.318  -4.360  1.00  0.00     0.026 A 
HETATM   21  C   UNL     1       1.470   5.169  -3.192  1.00  0.00     0.036 A 
HETATM   22 CL   UNL     1       0.744   5.506  -1.668  1.00  0.00    -0.084 Cl
HETATM   23  C   UNL     1       2.803   4.770  -3.244  1.00  0.00     0.056 A 
BRANCH  18  24
HETATM   24  O   UNL     1       3.322   4.391  -6.837  1.00  0.00    -0.354 OA
HETATM   25  C   UNL     1       2.509   3.903  -7.901  1.00  0.00     0.210 C 
ENDBRANCH  18  24
ENDBRANCH  14  17
ENDBRANCH  12  13
ENDBRANCH  11  12
ENDBRANCH   4  11
BRANCH   8  26
HETATM   26  C   UNL     1       5.011  -1.468   1.625  1.00  0.00    -0.044 A 
HETATM   27  C   UNL     1       4.346  -0.926   2.738  1.00  0.00     0.008 A 
HETATM   28  C   UNL     1       4.726  -1.276   4.034  1.00  0.00     0.001 A 
HETATM   29  C   UNL     1       5.785  -2.158   4.238  1.00  0.00     0.000 A 
HETATM   30  C   UNL     1       6.468  -2.687   3.146  1.00  0.00     0.001 A 
HETATM   31  C   UNL     1       6.087  -2.345   1.848  1.00  0.00     0.008 A 
ENDBRANCH   8  26
BRANCH   9  32
HETATM   32  C   UNL     1       2.439  -2.436  -0.352  1.00  0.00     0.255 C 
HETATM   33  N   UNL     1       2.975  -3.528   0.295  1.00  0.00    -0.323 N 
HETATM   34  H   UNL     1       3.647  -3.363   1.032  1.00  0.00     0.169 HD
HETATM   35  O   UNL     1       1.555  -2.470  -1.202  1.00  0.00    -0.268 OA
BRANCH  33  36
HETATM   36  C   UNL     1       2.732  -4.892   0.014  1.00  0.00     0.035 A 
HETATM   37  C   UNL     1       1.796  -5.349  -0.915  1.00  0.00     0.029 A 
HETATM   38  C   UNL     1       1.649  -6.718  -1.162  1.00  0.00     0.002 A 
HETATM   39  C   UNL     1       2.442  -7.642  -0.487  1.00  0.00     0.000 A 
HETATM   40  C   UNL     1       3.376  -7.199   0.445  1.00  0.00     0.002 A 
HETATM   41  C   UNL     1       3.515  -5.831   0.699  1.00  0.00     0.029 A 
ENDBRANCH  33  36
ENDBRANCH   9  32
TORSDOF 8
