REMARK  6 active torsions:
REMARK  status: ('A' for Active; 'I' for Inactive)
REMARK    1  A    between atoms: C_2  and  O_3 
REMARK    2  A    between atoms: O_3  and  C_4 
REMARK    3  A    between atoms: C_5  and  N_6 
REMARK    4  A    between atoms: N_6  and  C_7 
REMARK    5  A    between atoms: C_8  and  C_9 
REMARK    6  A    between atoms: C_12  and  C_13 
ROOT
HETATM    1  C   UNL     1       4.480   5.351  -0.763  1.00  0.00     0.087 C 
HETATM    2  C   UNL     1       3.651   6.409  -0.755  1.00  0.00     0.077 C 
HETATM    3  C   UNL     1       4.197   7.824  -0.850  1.00  0.00     0.023 C 
HETATM    4  N   UNL     1       4.650   8.998  -0.929  1.00  0.00    -0.096 N 
ENDROOT
BRANCH   2   5
HETATM    5  C   UNL     1       2.229   6.237  -0.631  1.00  0.00     0.118 A 
HETATM    6  S   UNL     1       1.153   7.422  -1.320  1.00  0.00    -0.078 SA
HETATM    7  C   UNL     1      -0.198   6.511  -0.820  1.00  0.00     0.084 A 
HETATM    8  C   UNL     1       0.211   5.378  -0.153  1.00  0.00     0.081 A 
HETATM    9  N   UNL     1       1.592   5.216  -0.076  1.00  0.00    -0.239 NA
BRANCH   8  10
HETATM   10  C   UNL     1      -0.643   4.360   0.404  1.00  0.00     0.070 A 
HETATM   11  C   UNL     1      -2.041   4.711   0.823  1.00  0.00     0.301 A 
HETATM   12  O   UNL     1      -2.492   5.852   0.762  1.00  0.00    -0.259 OA
HETATM   13  O   UNL     1      -2.848   3.679   1.295  1.00  0.00    -0.274 OA
HETATM   14  C   UNL     1      -2.371   2.369   1.444  1.00  0.00     0.089 A 
HETATM   15  C   UNL     1      -1.064   2.052   1.102  1.00  0.00     0.000 A 
HETATM   16  C   UNL     1      -3.253   1.416   1.949  1.00  0.00     0.039 A 
HETATM   17  C   UNL     1      -0.620   0.739   1.272  1.00  0.00     0.033 A 
HETATM   18  C   UNL     1      -0.209   3.096   0.566  1.00  0.00     0.034 A 
HETATM   19  C   UNL     1      -1.495  -0.225   1.778  1.00  0.00     0.012 A 
HETATM   20  C   UNL     1      -2.810   0.106   2.116  1.00  0.00     0.022 A 
HETATM   21 BR   UNL     1      -0.893  -2.003   2.008  1.00  0.00    -0.051 Br
ENDBRANCH   8  10
ENDBRANCH   2   5
BRANCH   1  22
HETATM   22  N   UNL     1       4.192   4.019  -0.521  1.00  0.00    -0.266 NA
HETATM   23  H   UNL     1       3.287   3.896  -0.048  1.00  0.00     0.133 HD
BRANCH  22  24
HETATM   24  C   UNL     1       4.278   2.982  -1.493  1.00  0.00     0.045 A 
HETATM   25  C   UNL     1       4.085   1.643  -1.083  1.00  0.00     0.090 A 
HETATM   26  C   UNL     1       4.085   0.610  -2.027  1.00  0.00     0.038 A 
HETATM   27  C   UNL     1       4.307   0.893  -3.374  1.00  0.00     0.003 A 
HETATM   28  C   UNL     1       4.532   2.205  -3.783  1.00  0.00     0.002 A 
HETATM   29  C   UNL     1       4.526   3.243  -2.848  1.00  0.00     0.026 A 
BRANCH  25  30
HETATM   30  O   UNL     1       3.853   1.432   0.257  1.00  0.00    -0.350 OA
BRANCH  30  31
HETATM   31  C   UNL     1       4.387   0.208   0.771  1.00  0.00     0.171 C 
HETATM   32  C   UNL     1       4.573   0.357   2.271  1.00  0.00     0.034 C 
ENDBRANCH  30  31
ENDBRANCH  25  30
ENDBRANCH  22  24
ENDBRANCH   1  22
TORSDOF 6
