REMARK  7 active torsions:
REMARK  status: ('A' for Active; 'I' for Inactive)
REMARK    1  A    between atoms: O_2  and  C_3 
REMARK    2  A    between atoms: C_4  and  O_5 
REMARK    3  A    between atoms: C_8  and  C_9 
REMARK    4  A    between atoms: N_10  and  N_11 
REMARK    5  A    between atoms: C_22  and  C_23 
REMARK       I    between atoms: C_23  and  N_24 
REMARK    6  A    between atoms: N_24  and  C_25 
REMARK    7  A    between atoms: C_32  and  N_33 
ROOT
HETATM    1  N   UNL     1       3.910  -5.325  -5.058  1.00  0.00    -0.197 N 
HETATM    2  C   UNL     1       4.821  -4.893  -6.003  1.00  0.00     0.183 A 
HETATM    3  C   UNL     1       6.067  -5.357  -5.615  1.00  0.00     0.125 A 
HETATM    4  N   UNL     1       7.198  -5.025  -6.297  1.00  0.00    -0.242 NA
HETATM    5  C   UNL     1       6.993  -4.239  -7.367  1.00  0.00     0.086 A 
HETATM    6  C   UNL     1       5.706  -3.765  -7.739  1.00  0.00     0.088 A 
HETATM    7  N   UNL     1       4.590  -4.075  -7.058  1.00  0.00    -0.225 NA
HETATM    8  C   UNL     1       8.095  -3.871  -8.129  1.00  0.00     0.034 A 
HETATM    9  C   UNL     1       7.968  -3.039  -9.241  1.00  0.00     0.002 A 
HETATM   10  C   UNL     1       6.714  -2.564  -9.598  1.00  0.00     0.002 A 
HETATM   11  C   UNL     1       5.597  -2.933  -8.845  1.00  0.00     0.034 A 
HETATM   12  C   UNL     1       5.926  -6.119  -4.426  1.00  0.00     0.110 C 
HETATM   13  C   UNL     1       4.567  -6.161  -4.155  1.00  0.00     0.143 C 
ENDROOT
BRANCH   1  14
HETATM   14  N   UNL     1       2.581  -5.000  -5.029  1.00  0.00    -0.176 NA
HETATM   15  C   UNL     1       2.177  -4.291  -4.015  1.00  0.00     0.150 C 
BRANCH  15  16
HETATM   16  C   UNL     1       2.956  -3.622  -2.946  1.00  0.00    -0.014 A 
HETATM   17  C   UNL     1       2.534  -3.787  -1.624  1.00  0.00     0.052 A 
HETATM   18  C   UNL     1       3.216  -3.141  -0.587  1.00  0.00     0.102 A 
HETATM   19  C   UNL     1       4.313  -2.304  -0.886  1.00  0.00     0.101 A 
HETATM   20  C   UNL     1       4.717  -2.138  -2.216  1.00  0.00     0.040 A 
HETATM   21  C   UNL     1       4.032  -2.786  -3.247  1.00  0.00     0.016 A 
BRANCH  18  22
HETATM   22  O   UNL     1       2.881  -3.239   0.741  1.00  0.00    -0.353 OA
HETATM   23  C   UNL     1       1.868  -4.167   1.101  1.00  0.00     0.210 C 
ENDBRANCH  18  22
BRANCH  19  24
HETATM   24  O   UNL     1       4.922  -1.704   0.189  1.00  0.00    -0.353 OA
HETATM   25  C   UNL     1       5.877  -0.688  -0.078  1.00  0.00     0.210 C 
ENDBRANCH  19  24
ENDBRANCH  15  16
ENDBRANCH   1  14
BRANCH  13  26
HETATM   26  N   UNL     1       3.893  -6.804  -3.165  1.00  0.00    -0.383 N 
HETATM   27  H   UNL     1       4.398  -7.501  -2.611  1.00  0.00     0.157 HD
HETATM   28  H   UNL     1       2.905  -7.018  -3.291  1.00  0.00     0.157 HD
ENDBRANCH  13  26
BRANCH  12  29
HETATM   29  C   UNL     1       6.976  -6.671  -3.583  1.00  0.00     0.258 C 
HETATM   30  N   UNL     1       8.241  -6.209  -3.898  1.00  0.00    -0.352 N 
HETATM   31  H   UNL     1       8.291  -5.640  -4.739  1.00  0.00     0.163 HD
HETATM   32  O   UNL     1       6.747  -7.378  -2.605  1.00  0.00    -0.267 OA
BRANCH  30  33
HETATM   33  C   UNL     1       9.166  -5.857  -2.830  1.00  0.00     0.084 C 
HETATM   34  C   UNL     1      10.571  -5.604  -3.389  1.00  0.00     0.025 C 
HETATM   35  C   UNL     1      10.653  -4.331  -4.237  1.00  0.00     0.002 C 
HETATM   36  C   UNL     1      10.096  -3.110  -3.508  1.00  0.00     0.000 C 
HETATM   37  C   UNL     1       8.701  -3.355  -2.944  1.00  0.00     0.002 C 
HETATM   38  C   UNL     1       8.662  -4.613  -2.074  1.00  0.00     0.025 C 
ENDBRANCH  30  33
ENDBRANCH  12  29
TORSDOF 7
