REMARK  6 active torsions:
REMARK  status: ('A' for Active; 'I' for Inactive)
REMARK    1  A    between atoms: C_2  and  C_3 
REMARK    2  A    between atoms: C_3  and  C_4 
REMARK    3  A    between atoms: C_4  and  C_5 
REMARK    4  A    between atoms: C_8  and  N_9 
REMARK       I    between atoms: N_9  and  C_10 
REMARK    5  A    between atoms: C_10  and  C_11 
REMARK    6  A    between atoms: N_16  and  C_17 
ROOT
HETATM    1  C   UNL     1       6.197   4.557  -5.837  1.00  0.00     0.098 A 
HETATM    2  C   UNL     1       5.295   3.422  -5.432  1.00  0.00     0.205 A 
HETATM    3  O   UNL     1       4.352   3.578  -4.662  1.00  0.00    -0.286 OA
HETATM    4  C   UNL     1       5.635   2.148  -6.034  1.00  0.00     0.087 A 
HETATM    5  C   UNL     1       6.643   2.035  -6.961  1.00  0.00     0.145 A 
HETATM    6  N   UNL     1       6.670   0.718  -7.388  1.00  0.00    -0.216 N 
HETATM    7  N   UNL     1       5.832  -0.041  -6.617  1.00  0.00    -0.170 NA
HETATM    8  C   UNL     1       5.165   0.835  -5.850  1.00  0.00     0.069 C 
HETATM    9  C   UNL     1       4.110   0.367  -4.918  1.00  0.00     0.073 C 
HETATM   10  N   UNL     1       7.437   3.077  -7.305  1.00  0.00    -0.349 N 
HETATM   11  C   UNL     1       7.195   4.304  -6.713  1.00  0.00     0.111 A 
HETATM   12  H   UNL     1       8.321   2.976  -7.802  1.00  0.00     0.167 HD
ENDROOT
BRANCH   1  13
HETATM   13  C   UNL     1       6.043   5.960  -5.344  1.00  0.00     0.261 C 
HETATM   14  N   UNL     1       4.880   6.198  -4.642  1.00  0.00    -0.323 N 
HETATM   15  H   UNL     1       4.268   5.399  -4.475  1.00  0.00     0.169 HD
HETATM   16  O   UNL     1       6.905   6.794  -5.612  1.00  0.00    -0.267 OA
BRANCH  14  17
HETATM   17  C   UNL     1       4.388   7.441  -4.189  1.00  0.00     0.035 A 
HETATM   18  C   UNL     1       5.083   8.645  -4.302  1.00  0.00     0.030 A 
HETATM   19  C   UNL     1       4.499   9.845  -3.884  1.00  0.00     0.009 A 
HETATM   20  C   UNL     1       3.204   9.865  -3.353  1.00  0.00    -0.058 A 
HETATM   21  C   UNL     1       2.517   8.655  -3.215  1.00  0.00     0.009 A 
HETATM   22  C   UNL     1       3.108   7.454  -3.623  1.00  0.00     0.030 A 
BRANCH  20  23
HETATM   23  C   UNL     1       2.557  11.173  -2.972  1.00  0.00     0.038 C 
BRANCH  23  24
HETATM   24  C   UNL     1       2.167  11.987  -4.210  1.00  0.00     0.004 C 
BRANCH  24  25
HETATM   25  C   UNL     1       1.506  13.311  -3.829  1.00  0.00    -0.004 C 
HETATM   26  C   UNL     1       1.166  14.134  -5.062  1.00  0.00     0.005 C 
ENDBRANCH  24  25
ENDBRANCH  23  24
ENDBRANCH  20  23
ENDBRANCH  14  17
ENDBRANCH   1  13
BRANCH   6  27
HETATM   27  C   UNL     1       7.378   0.124  -8.472  1.00  0.00     0.060 A 
HETATM   28  C   UNL     1       7.904   0.895  -9.516  1.00  0.00     0.032 A 
HETATM   29  C   UNL     1       8.579   0.281 -10.576  1.00  0.00     0.009 A 
HETATM   30  C   UNL     1       8.737  -1.108 -10.611  1.00  0.00    -0.062 A 
HETATM   31  C   UNL     1       9.435  -1.775 -11.759  1.00  0.00     0.048 C 
HETATM   32  C   UNL     1       8.185  -1.880  -9.583  1.00  0.00     0.009 A 
HETATM   33  C   UNL     1       7.504  -1.271  -8.524  1.00  0.00     0.032 A 
ENDBRANCH   6  27
TORSDOF 6
