REMARK  4 active torsions:
REMARK  status: ('A' for Active; 'I' for Inactive)
REMARK    1  A    between atoms: C_5  and  C_6 
REMARK    2  A    between atoms: C_16  and  C_17 
REMARK       I    between atoms: C_17  and  N_18 
REMARK    3  A    between atoms: N_18  and  C_19 
REMARK    4  A    between atoms: C_20  and  O_21 
ROOT
HETATM    1  C   UNL     1       6.723  -0.003  -0.953  1.00  0.00     0.202 C 
HETATM    2  N   UNL     1       6.871  -1.022  -1.997  1.00  0.00    -0.083 N 
HETATM    3  C   UNL     1       7.208  -0.739  -3.293  1.00  0.00     0.726 A 
HETATM    4  N   UNL     1       7.283  -1.851  -3.978  1.00  0.00    -0.046 NA
HETATM    5  C   UNL     1       7.027  -2.814  -3.026  1.00  0.00     0.162 A 
HETATM    6  C   UNL     1       7.061  -4.257  -3.335  1.00  0.00     0.096 C 
HETATM    7  N   UNL     1       6.783  -2.352  -1.791  1.00  0.00    -0.141 NA
HETATM    8  N   UNL     1       7.461   0.540  -3.646  1.00  0.00    -0.192 N 
HETATM    9  C   UNL     1       7.680   1.539  -2.697  1.00  0.00     0.037 C 
HETATM   10  C   UNL     1       8.388   2.773  -3.199  1.00  0.00     0.070 C 
HETATM   11  C   UNL     1       7.345   1.313  -1.401  1.00  0.00     0.062 C 
HETATM   12  H   UNL     1       7.849   0.695  -4.574  1.00  0.00     0.184 HD
ENDROOT
BRANCH  11  13
HETATM   13  C   UNL     1       7.731   2.218  -0.290  1.00  0.00     0.256 C 
HETATM   14  N   UNL     1       7.255   3.498  -0.417  1.00  0.00    -0.321 N 
HETATM   15  H   UNL     1       6.566   3.694  -1.137  1.00  0.00     0.169 HD
HETATM   16  O   UNL     1       8.400   1.763   0.629  1.00  0.00    -0.267 OA
BRANCH  14  17
HETATM   17  C   UNL     1       7.640   4.635   0.333  1.00  0.00     0.068 A 
HETATM   18  C   UNL     1       6.985   5.851   0.046  1.00  0.00     0.095 A 
HETATM   19  C   UNL     1       7.370   7.020   0.712  1.00  0.00     0.039 A 
HETATM   20  C   UNL     1       8.393   6.984   1.662  1.00  0.00     0.003 A 
HETATM   21  C   UNL     1       9.032   5.783   1.952  1.00  0.00     0.002 A 
HETATM   22  C   UNL     1       8.658   4.612   1.291  1.00  0.00     0.032 A 
BRANCH  18  23
HETATM   23  O   UNL     1       6.004   5.787  -0.917  1.00  0.00    -0.354 OA
HETATM   24  C   UNL     1       5.152   6.921  -1.030  1.00  0.00     0.210 C 
ENDBRANCH  18  23
ENDBRANCH  14  17
ENDBRANCH  11  13
BRANCH   1  25
HETATM   25  C   UNL     1       5.248   0.158  -0.586  1.00  0.00    -0.028 A 
HETATM   26  C   UNL     1       4.839   0.016   0.748  1.00  0.00     0.010 A 
HETATM   27  C   UNL     1       3.490   0.129   1.098  1.00  0.00     0.007 A 
HETATM   28  C   UNL     1       2.521   0.385   0.123  1.00  0.00    -0.062 A 
HETATM   29  C   UNL     1       1.069   0.494   0.484  1.00  0.00     0.048 C 
HETATM   30  C   UNL     1       2.924   0.560  -1.204  1.00  0.00     0.007 A 
HETATM   31  C   UNL     1       4.272   0.450  -1.556  1.00  0.00     0.010 A 
ENDBRANCH   1  25
TORSDOF 4
