REMARK  5 active torsions:
REMARK  status: ('A' for Active; 'I' for Inactive)
REMARK    1  A    between atoms: C_4  and  O_5 
REMARK    2  A    between atoms: O_5  and  C_6 
REMARK    3  A    between atoms: C_6  and  C_7 
REMARK       I    between atoms: C_7  and  N_8 
REMARK    4  A    between atoms: N_8  and  N_9 
REMARK    5  A    between atoms: C_10  and  C_11 
ROOT
HETATM    1  C   UNL     1       5.068   4.841  -0.816  1.00  0.00     0.261 C 
HETATM    2  N   UNL     1       6.432   4.568  -0.776  1.00  0.00    -0.246 N 
HETATM    3  O   UNL     1       4.547   5.894  -1.179  1.00  0.00    -0.269 OA
HETATM    4  H   UNL     1       6.720   3.753  -0.237  1.00  0.00     0.192 HD
ENDROOT
BRANCH   2   5
HETATM    5  N   UNL     1       7.459   5.427  -1.090  1.00  0.00    -0.184 NA
HETATM    6  C   UNL     1       7.222   6.435  -1.867  1.00  0.00     0.152 C 
BRANCH   6   7
HETATM    7  C   UNL     1       8.289   7.363  -2.191  1.00  0.00     0.011 A 
HETATM    8  C   UNL     1       8.153   8.605  -2.894  1.00  0.00     0.004 A 
HETATM    9  C   UNL     1       9.427   9.164  -3.005  1.00  0.00     0.043 A 
HETATM   10  C   UNL     1       7.060   9.312  -3.439  1.00  0.00     0.014 A 
HETATM   11  C   UNL     1       9.664  10.389  -3.641  1.00  0.00     0.030 A 
HETATM   12  N   UNL     1      10.303   8.298  -2.391  1.00  0.00    -0.364 N 
HETATM   13  C   UNL     1       8.563  11.068  -4.172  1.00  0.00     0.002 A 
HETATM   14  C   UNL     1       7.278  10.540  -4.073  1.00  0.00     0.001 A 
HETATM   15  H   UNL     1      11.300   8.448  -2.320  1.00  0.00     0.165 HD
HETATM   16  C   UNL     1       9.630   7.216  -1.893  1.00  0.00     0.102 A 
ENDBRANCH   6   7
ENDBRANCH   2   5
BRANCH   1  17
HETATM   17  C   UNL     1       4.216   3.631  -0.449  1.00  0.00     0.280 C 
BRANCH  17  18
HETATM   18  O   UNL     1       4.789   2.897   0.629  1.00  0.00    -0.342 OA
BRANCH  18  19
HETATM   19  C   UNL     1       3.942   1.984   1.205  1.00  0.00     0.069 A 
HETATM   20  C   UNL     1       2.922   1.307   0.529  1.00  0.00     0.043 A 
HETATM   21  C   UNL     1       2.096   0.401   1.209  1.00  0.00    -0.059 A 
HETATM   22  C   UNL     1       1.015  -0.341   0.479  1.00  0.00     0.048 C 
HETATM   23  C   UNL     1       2.326   0.153   2.567  1.00  0.00     0.007 A 
HETATM   24  C   UNL     1       3.358   0.811   3.238  1.00  0.00     0.003 A 
HETATM   25  C   UNL     1       4.167   1.719   2.555  1.00  0.00     0.037 A 
ENDBRANCH  18  19
ENDBRANCH  17  18
ENDBRANCH   1  17
TORSDOF 5
