REMARK  6 active torsions:
REMARK  status: ('A' for Active; 'I' for Inactive)
REMARK    1  A    between atoms: C_2  and  N_3 
REMARK    2  A    between atoms: C_2  and  C_25 
REMARK       I    between atoms: N_3  and  C_4 
REMARK    3  A    between atoms: C_4  and  C_5 
REMARK    4  A    between atoms: C_5  and  N_6 
REMARK    5  A    between atoms: C_10  and  N_11 
REMARK       I    between atoms: N_11  and  C_12 
REMARK       I    between atoms: C_12  and  N_13 
REMARK    6  A    between atoms: N_13  and  C_14 
ROOT
HETATM    1  N   UNL     1       1.503   1.536   1.884  1.00  0.00    -0.063 N 
HETATM    2  H   UNL     1       2.049   1.285   1.052  1.00  0.00     0.280 HD
HETATM    3  C   UNL     1       0.039   1.378   1.522  1.00  0.00     0.237 C 
HETATM    4  C   UNL     1      -0.245   2.253   0.312  1.00  0.00     0.053 C 
HETATM    5  C   UNL     1       0.051   3.733   0.595  1.00  0.00     0.089 C 
HETATM    6  C   UNL     1       1.521   3.865   1.021  1.00  0.00     0.053 C 
HETATM    7  C   UNL     1       1.839   2.972   2.219  1.00  0.00     0.237 C 
ENDROOT
BRANCH   1   8
HETATM    8  C   UNL     1       1.946   0.542   2.965  1.00  0.00     0.337 C 
BRANCH   8   9
HETATM    9  C   UNL     1       1.210   0.627   4.308  1.00  0.00     0.244 C 
HETATM   10  N   UNL     1       1.204  -0.543   5.029  1.00  0.00    -0.351 N 
HETATM   11  H   UNL     1       1.596  -1.401   4.658  1.00  0.00     0.163 HD
HETATM   12  O   UNL     1       0.683   1.663   4.702  1.00  0.00    -0.272 OA
BRANCH  10  13
HETATM   13  C   UNL     1       0.513  -0.668   6.307  1.00  0.00     0.120 C 
HETATM   14  C   UNL     1      -0.991  -0.850   6.113  1.00  0.00     0.038 C 
BRANCH  13  15
HETATM   15  C   UNL     1       1.118  -1.820   7.072  1.00  0.00     0.005 A 
HETATM   16  S   UNL     1       1.420  -3.341   6.326  1.00  0.00    -0.104 SA
HETATM   17  C   UNL     1       2.043  -4.005   7.771  1.00  0.00     0.050 A 
HETATM   18  C   UNL     1       2.017  -3.100   8.808  1.00  0.00     0.008 A 
HETATM   19  C   UNL     1       1.484  -1.841   8.406  1.00  0.00     0.017 A 
ENDBRANCH  13  15
ENDBRANCH  10  13
ENDBRANCH   8   9
ENDBRANCH   1   8
BRANCH   5  20
HETATM   20  N   UNL     1      -0.791   4.420   1.583  1.00  0.00    -0.338 N 
HETATM   21  C   UNL     1      -2.098   4.086   1.891  1.00  0.00     0.321 C 
HETATM   22  N   UNL     1      -2.660   5.032   2.720  1.00  0.00    -0.309 N 
HETATM   23  O   UNL     1      -2.624   3.055   1.501  1.00  0.00    -0.247 OA
HETATM   24  H   UNL     1      -2.023   5.678   3.162  1.00  0.00     0.170 HD
HETATM   25  H   UNL     1      -0.648   5.423   1.617  1.00  0.00     0.164 HD
BRANCH  22  26
HETATM   26  C   UNL     1      -3.998   5.092   3.163  1.00  0.00     0.036 A 
HETATM   27  C   UNL     1      -5.019   4.273   2.670  1.00  0.00     0.032 A 
HETATM   28  C   UNL     1      -6.325   4.403   3.152  1.00  0.00     0.044 A 
HETATM   29  C   UNL     1      -6.610   5.355   4.123  1.00  0.00     0.116 A 
HETATM   30  F   UNL     1      -7.861   5.478   4.583  1.00  0.00    -0.206 F 
HETATM   31  C   UNL     1      -5.613   6.183   4.619  1.00  0.00     0.044 A 
HETATM   32  C   UNL     1      -4.307   6.053   4.138  1.00  0.00     0.032 A 
ENDBRANCH  22  26
ENDBRANCH   5  20
TORSDOF 6
