REMARK  3 active torsions:
REMARK  status: ('A' for Active; 'I' for Inactive)
REMARK    1  A    between atoms: C_2  and  C_3 
REMARK    2  A    between atoms: N_4  and  N_5 
REMARK    3  A    between atoms: C_23  and  O_24 
ROOT
HETATM    1  N   UNL     1       1.215   4.932  -0.464  1.00  0.00    -0.189 N 
HETATM    2  C   UNL     1       0.395   6.038  -0.176  1.00  0.00     0.298 A 
HETATM    3  O   UNL     1      -0.786   5.996   0.158  1.00  0.00    -0.264 OA
HETATM    4  C   UNL     1       1.104   7.270  -0.311  1.00  0.00     0.133 A 
HETATM    5  C   UNL     1       2.407   7.357  -0.700  1.00  0.00     0.103 A 
HETATM    6  N   UNL     1       3.176   6.241  -1.029  1.00  0.00    -0.239 NA
HETATM    7  C   UNL     1       2.526   5.118  -0.904  1.00  0.00     0.239 A 
HETATM    8  N   UNL     1       0.646   8.541  -0.101  1.00  0.00    -0.349 N 
HETATM    9  H   UNL     1      -0.295   8.774   0.188  1.00  0.00     0.166 HD
HETATM   10  C   UNL     1       1.659   9.447  -0.355  1.00  0.00     0.045 A 
HETATM   11  C   UNL     1       2.793   8.714  -0.734  1.00  0.00     0.024 A 
HETATM   12  C   UNL     1       1.656  10.845  -0.283  1.00  0.00     0.032 A 
HETATM   13  C   UNL     1       2.845  11.509  -0.604  1.00  0.00     0.026 A 
HETATM   14  C   UNL     1       3.984  10.799  -0.980  1.00  0.00     0.035 A 
HETATM   15 CL   UNL     1       5.428  11.657  -1.365  1.00  0.00    -0.084 Cl
HETATM   16  C   UNL     1       3.978   9.403  -1.052  1.00  0.00     0.040 A 
ENDROOT
BRANCH   1  17
HETATM   17  N   UNL     1       0.596   3.694  -0.396  1.00  0.00    -0.175 NA
HETATM   18  C   UNL     1       1.280   2.604  -0.285  1.00  0.00     0.150 C 
BRANCH  18  19
HETATM   19  C   UNL     1       0.605   1.288  -0.242  1.00  0.00    -0.017 A 
HETATM   20  C   UNL     1      -0.789   1.202  -0.168  1.00  0.00     0.016 A 
HETATM   21  C   UNL     1      -1.404  -0.050  -0.126  1.00  0.00     0.037 A 
HETATM   22  C   UNL     1      -0.627  -1.202  -0.163  1.00  0.00     0.065 A 
HETATM   23  C   UNL     1       0.762  -1.127  -0.238  1.00  0.00     0.037 A 
HETATM   24  C   UNL     1       1.383   0.125  -0.275  1.00  0.00     0.016 A 
BRANCH  22  25
HETATM   25  O   UNL     1      -1.272  -2.402  -0.123  1.00  0.00    -0.361 OA
HETATM   26  H   UNL     1      -0.616  -3.116  -0.161  1.00  0.00     0.217 HD
ENDBRANCH  22  25
ENDBRANCH  18  19
ENDBRANCH   1  17
TORSDOF 3
