REMARK  7 active torsions:
REMARK  status: ('A' for Active; 'I' for Inactive)
REMARK    1  A    between atoms: C_2  and  O_3 
REMARK    2  A    between atoms: O_3  and  C_4 
REMARK       I    between atoms: C_4  and  N_5 
REMARK       I    between atoms: N_8  and  C_9 
REMARK    3  A    between atoms: C_9  and  C_10 
REMARK    4  A    between atoms: C_11  and  N_12 
REMARK       I    between atoms: N_12  and  C_13 
REMARK    5  A    between atoms: C_13  and  C_14 
REMARK    6  A    between atoms: N_16  and  C_17 
REMARK    7  A    between atoms: C_18  and  O_19 
ROOT
HETATM    1  C   UNL     1       9.505   1.642  -1.363  1.00  0.00     0.059 A 
HETATM    2  C   UNL     1      10.047   2.498  -2.349  1.00  0.00     0.050 A 
HETATM    3  C   UNL     1      11.078   2.003  -3.152  1.00  0.00     0.030 A 
HETATM    4  C   UNL     1      11.562   0.700  -2.979  1.00  0.00     0.002 A 
HETATM    5  C   UNL     1      11.045  -0.121  -1.981  1.00  0.00     0.001 A 
HETATM    6  C   UNL     1      10.026   0.354  -1.162  1.00  0.00     0.019 A 
ENDROOT
BRANCH   2   7
HETATM    7  N   UNL     1       9.600   3.836  -2.408  1.00  0.00    -0.326 N 
HETATM    8  C   UNL     1       9.671   4.828  -3.339  1.00  0.00     0.228 C 
HETATM    9  O   UNL     1       9.405   5.977  -2.976  1.00  0.00    -0.273 OA
HETATM   10  H   UNL     1       9.175   4.174  -1.539  1.00  0.00     0.169 HD
BRANCH   8  11
HETATM   11  C   UNL     1       9.969   4.529  -4.791  1.00  0.00     0.105 C 
HETATM   12  C   UNL     1       8.991   5.292  -5.682  1.00  0.00     0.147 C 
HETATM   13  N   UNL     1       9.737   5.581  -6.883  1.00  0.00    -0.315 N 
HETATM   14  C   UNL     1      11.110   5.435  -6.678  1.00  0.00     0.225 C 
HETATM   15  O   UNL     1      12.025   5.512  -7.485  1.00  0.00    -0.273 OA
HETATM   16  C   UNL     1      11.324   5.068  -5.230  1.00  0.00     0.119 C 
BRANCH  13  17
HETATM   17  C   UNL     1       9.124   6.211  -8.001  1.00  0.00     0.071 A 
HETATM   18  C   UNL     1       9.727   7.276  -8.702  1.00  0.00     0.095 A 
HETATM   19  C   UNL     1       9.082   7.829  -9.817  1.00  0.00     0.039 A 
HETATM   20  C   UNL     1       7.837   7.351 -10.230  1.00  0.00     0.009 A 
HETATM   21  C   UNL     1       7.202   6.334  -9.518  1.00  0.00    -0.060 A 
HETATM   22  C   UNL     1       5.859   5.818  -9.943  1.00  0.00     0.048 C 
HETATM   23  C   UNL     1       7.854   5.769  -8.412  1.00  0.00     0.039 A 
BRANCH  18  24
HETATM   24  O   UNL     1      10.851   7.844  -8.156  1.00  0.00    -0.354 OA
HETATM   25  C   UNL     1      11.730   8.505  -9.057  1.00  0.00     0.210 C 
ENDBRANCH  18  24
ENDBRANCH  13  17
ENDBRANCH   8  11
ENDBRANCH   2   7
BRANCH   1  26
HETATM   26  C   UNL     1       8.397   2.110  -0.492  1.00  0.00     0.256 C 
HETATM   27  N   UNL     1       7.268   1.313  -0.321  1.00  0.00    -0.345 N 
HETATM   28  C   UNL     1       6.827   0.250  -1.234  1.00  0.00     0.146 C 
HETATM   29  C   UNL     1       6.211   1.786   0.576  1.00  0.00     0.146 C 
HETATM   30  C   UNL     1       6.248  -0.935  -0.455  1.00  0.00     0.148 C 
HETATM   31  N   UNL     1       5.240  -0.525   0.523  1.00  0.00    -0.325 N 
HETATM   32  C   UNL     1       4.335  -1.485   0.951  1.00  0.00     0.362 C 
HETATM   33  C   UNL     1       5.579   0.630   1.364  1.00  0.00     0.148 C 
HETATM   34  O   UNL     1       4.224  -2.591   0.436  1.00  0.00    -0.238 OA
HETATM   35  O   UNL     1       8.531   3.207   0.048  1.00  0.00    -0.267 OA
BRANCH  32  36
HETATM   36  O   UNL     1       3.593  -1.062   2.009  1.00  0.00    -0.304 OA
BRANCH  36  37
HETATM   37  C   UNL     1       2.639  -1.997   2.531  1.00  0.00     0.176 C 
HETATM   38  C   UNL     1       3.283  -2.832   3.622  1.00  0.00     0.034 C 
ENDBRANCH  36  37
ENDBRANCH  32  36
ENDBRANCH   1  26
TORSDOF 7
