REMARK  5 active torsions:
REMARK  status: ('A' for Active; 'I' for Inactive)
REMARK    1  A    between atoms: C_8  and  N_9 
REMARK       I    between atoms: N_9  and  C_10 
REMARK    2  A    between atoms: C_10  and  C_11 
REMARK    3  A    between atoms: C_11  and  N_12 
REMARK    4  A    between atoms: N_12  and  C_13 
REMARK    5  A    between atoms: C_13  and  C_14 
ROOT
HETATM    1  C   UNL     1       0.362  -1.688   0.001  1.00  0.00     0.372 C 
ENDROOT
BRANCH   1   2
HETATM    2  C   UNL     1       1.635  -2.385  -0.517  1.00  0.00     0.250 C 
HETATM    3  N   UNL     1       2.156  -3.272   0.406  1.00  0.00    -0.322 N 
HETATM    4  H   UNL     1       1.634  -3.419   1.259  1.00  0.00     0.169 HD
HETATM    5  O   UNL     1       2.046  -2.193  -1.657  1.00  0.00    -0.271 OA
BRANCH   3   6
HETATM    6  C   UNL     1       3.282  -4.067   0.255  1.00  0.00     0.085 A 
HETATM    7  C   UNL     1       3.593  -5.059   1.168  1.00  0.00     0.052 A 
HETATM    8  C   UNL     1       2.924  -5.532   2.403  1.00  0.00     0.072 C 
HETATM    9  N   UNL     1       4.743  -5.637   0.715  1.00  0.00    -0.280 N 
HETATM   10  H   UNL     1       5.264  -6.406   1.124  1.00  0.00     0.189 HD
HETATM   11  N   UNL     1       5.213  -5.097  -0.411  1.00  0.00    -0.177 NA
HETATM   12  C   UNL     1       4.333  -4.126  -0.707  1.00  0.00     0.079 A 
HETATM   13  C   UNL     1       4.600  -3.290  -1.905  1.00  0.00     0.075 C 
ENDBRANCH   3   6
ENDBRANCH   1   2
BRANCH   1  14
HETATM   14  N   UNL     1       0.188  -0.401  -0.679  1.00  0.00     0.101 N 
HETATM   15  H   UNL     1       0.392  -0.532  -1.677  1.00  0.00     0.317 HD
BRANCH  14  16
HETATM   16  C   UNL     1      -1.142   0.203  -0.517  1.00  0.00     0.254 C 
HETATM   17  C   UNL     1      -2.269  -0.616  -1.161  1.00  0.00     0.048 C 
BRANCH  16  18
HETATM   18  C   UNL     1      -1.174   1.615  -1.091  1.00  0.00     0.035 A 
HETATM   19  C   UNL     1      -1.757   2.700  -0.414  1.00  0.00     0.045 A 
HETATM   20 CL   UNL     1      -2.492   2.534   1.144  1.00  0.00    -0.084 Cl
HETATM   21  C   UNL     1      -1.799   3.976  -0.995  1.00  0.00     0.024 A 
HETATM   22  C   UNL     1      -1.267   4.195  -2.264  1.00  0.00     0.005 A 
HETATM   23  C   UNL     1      -0.703   3.133  -2.959  1.00  0.00     0.043 A 
HETATM   24  C   UNL     1      -0.670   1.866  -2.379  1.00  0.00     0.126 A 
HETATM   25  F   UNL     1      -0.157   0.862  -3.107  1.00  0.00    -0.205 F 
ENDBRANCH  16  18
ENDBRANCH  14  16
ENDBRANCH   1  14
TORSDOF 5
