REMARK  6 active torsions:
REMARK  status: ('A' for Active; 'I' for Inactive)
REMARK    1  A    between atoms: O_2  and  C_3 
REMARK    2  A    between atoms: C_3  and  C_4 
REMARK    3  A    between atoms: C_7  and  C_8 
REMARK    4  A    between atoms: C_8  and  O_9 
REMARK    5  A    between atoms: O_9  and  C_10 
REMARK    6  A    between atoms: C_11  and  C_12 
ROOT
HETATM    1  C   UNL     1       0.807   8.683  -1.456  1.00  0.00     0.079 A 
HETATM    2  C   UNL     1       0.028   8.996  -2.587  1.00  0.00    -0.002 A 
HETATM    3  C   UNL     1      -0.657  10.217  -2.649  1.00  0.00     0.014 A 
HETATM    4  C   UNL     1      -0.583  11.118  -1.589  1.00  0.00     0.001 A 
HETATM    5  C   UNL     1       0.169  10.801  -0.460  1.00  0.00     0.003 A 
HETATM    6  C   UNL     1       0.858   9.587  -0.390  1.00  0.00     0.037 A 
ENDROOT
BRANCH   1   7
HETATM    7  O   UNL     1       1.460   7.476  -1.484  1.00  0.00    -0.346 OA
BRANCH   7   8
HETATM    8  C   UNL     1       2.610   7.299  -0.652  1.00  0.00     0.214 C 
BRANCH   8   9
HETATM    9  C   UNL     1       3.776   8.187  -1.033  1.00  0.00    -0.034 A 
HETATM   10  C   UNL     1       4.591   8.746  -0.040  1.00  0.00     0.010 A 
HETATM   11  C   UNL     1       5.645   9.595  -0.385  1.00  0.00     0.018 A 
HETATM   12  C   UNL     1       5.902   9.894  -1.730  1.00  0.00     0.039 A 
HETATM   13  C   UNL     1       5.116   9.306  -2.727  1.00  0.00     0.018 A 
HETATM   14  C   UNL     1       4.068   8.451  -2.380  1.00  0.00     0.010 A 
BRANCH  12  15
HETATM   15  C   UNL     1       7.004  10.844  -2.041  1.00  0.00     0.292 C 
HETATM   16  O   UNL     1       7.806  11.242  -1.210  1.00  0.00    -0.259 OA
BRANCH  15  17
HETATM   17  O   UNL     1       6.953  11.221  -3.343  1.00  0.00    -0.323 OA
HETATM   18  C   UNL     1       7.936  12.192  -3.705  1.00  0.00     0.213 C 
ENDBRANCH  15  17
ENDBRANCH  12  15
ENDBRANCH   8   9
ENDBRANCH   7   8
ENDBRANCH   1   7
BRANCH   2  19
HETATM   19  C   UNL     1      -0.078   8.077  -3.724  1.00  0.00     0.032 C 
HETATM   20  C   UNL     1      -0.949   7.062  -3.822  1.00  0.00     0.045 A 
HETATM   21  C   UNL     1      -0.932   6.166  -5.032  1.00  0.00     0.257 A 
HETATM   22  C   UNL     1      -2.005   6.573  -2.933  1.00  0.00     0.006 A 
HETATM   23  O   UNL     1      -0.206   6.242  -6.005  1.00  0.00    -0.267 OA
HETATM   24  N   UNL     1      -1.929   5.233  -4.799  1.00  0.00    -0.322 N 
HETATM   25  C   UNL     1      -2.561   5.461  -3.579  1.00  0.00     0.046 A 
HETATM   26  H   UNL     1      -2.148   4.495  -5.449  1.00  0.00     0.169 HD
HETATM   27  C   UNL     1      -3.597   4.726  -3.040  1.00  0.00     0.030 A 
HETATM   28  C   UNL     1      -4.093   5.130  -1.799  1.00  0.00     0.002 A 
HETATM   29  C   UNL     1      -3.548   6.246  -1.137  1.00  0.00     0.001 A 
HETATM   30  C   UNL     1      -2.496   6.976  -1.704  1.00  0.00     0.015 A 
ENDBRANCH   2  19
TORSDOF 6
