REMARK  7 active torsions:
REMARK  status: ('A' for Active; 'I' for Inactive)
REMARK    1  A    between atoms: C_6  and  C_7 
REMARK       I    between atoms: C_7  and  N_8 
REMARK    2  A    between atoms: N_8  and  C_9 
REMARK    3  A    between atoms: C_9  and  C_10 
REMARK       I    between atoms: C_10  and  N_11 
REMARK    4  A    between atoms: N_11  and  N_12 
REMARK       I    between atoms: N_12  and  C_13 
REMARK    5  A    between atoms: C_13  and  C_14 
REMARK    6  A    between atoms: C_14  and  N_15 
REMARK    7  A    between atoms: N_15  and  C_16 
ROOT
HETATM    1  C   UNL     1      13.128   0.540  -3.494  1.00  0.00     0.253 C 
HETATM    2  N   UNL     1      13.035  -0.583  -2.695  1.00  0.00    -0.266 N 
HETATM    3  O   UNL     1      13.597   0.508  -4.633  1.00  0.00    -0.270 OA
HETATM    4  H   UNL     1      12.305  -0.622  -1.974  1.00  0.00     0.190 HD
ENDROOT
BRANCH   2   5
HETATM    5  N   UNL     1      13.416  -1.816  -3.256  1.00  0.00    -0.266 N 
HETATM    6  C   UNL     1      12.668  -2.935  -2.932  1.00  0.00     0.258 C 
HETATM    7  O   UNL     1      11.819  -2.929  -2.042  1.00  0.00    -0.269 OA
HETATM    8  H   UNL     1      13.908  -1.777  -4.152  1.00  0.00     0.190 HD
BRANCH   6   9
HETATM    9  C   UNL     1      13.028  -4.178  -3.767  1.00  0.00     0.173 C 
HETATM   10  C   UNL     1      12.219  -5.392  -3.318  1.00  0.00     0.042 C 
BRANCH   9  11
HETATM   11  N   UNL     1      12.751  -3.937  -5.182  1.00  0.00    -0.356 N 
HETATM   12  H   UNL     1      11.780  -3.839  -5.458  1.00  0.00     0.162 HD
BRANCH  11  13
HETATM   13  C   UNL     1      13.735  -3.650  -6.055  1.00  0.00     0.168 A 
HETATM   14  S   UNL     1      13.365  -3.355  -7.706  1.00  0.00    -0.050 SA
HETATM   15  C   UNL     1      15.036  -3.150  -8.053  1.00  0.00     0.037 A 
HETATM   16  C   UNL     1      15.761  -3.295  -6.870  1.00  0.00     0.076 A 
HETATM   17  C   UNL     1      15.664  -2.884  -9.282  1.00  0.00     0.021 A 
HETATM   18  N   UNL     1      15.004  -3.558  -5.740  1.00  0.00    -0.223 NA
HETATM   19  C   UNL     1      17.165  -3.171  -6.915  1.00  0.00     0.033 A 
HETATM   20  C   UNL     1      17.801  -2.912  -8.134  1.00  0.00     0.002 A 
HETATM   21  C   UNL     1      17.058  -2.770  -9.301  1.00  0.00     0.002 A 
ENDBRANCH  11  13
ENDBRANCH   9  11
ENDBRANCH   6   9
ENDBRANCH   2   5
BRANCH   1  22
HETATM   22  C   UNL     1      12.476   1.800  -2.917  1.00  0.00     0.227 C 
BRANCH  22  23
HETATM   23  N   UNL     1      12.739   2.016  -1.501  1.00  0.00    -0.348 N 
HETATM   24  C   UNL     1      11.962   1.424  -0.530  1.00  0.00     0.252 C 
HETATM   25  O   UNL     1      11.068   0.634  -0.814  1.00  0.00    -0.268 OA
HETATM   26  H   UNL     1      13.620   2.441  -1.246  1.00  0.00     0.163 HD
BRANCH  24  27
HETATM   27  C   UNL     1      12.304   1.719   0.889  1.00  0.00     0.032 A 
HETATM   28  C   UNL     1      11.907   0.804   1.873  1.00  0.00     0.024 A 
HETATM   29  C   UNL     1      12.199   1.026   3.230  1.00  0.00    -0.055 A 
HETATM   30  C   UNL     1      12.877   2.203   3.605  1.00  0.00    -0.056 A 
HETATM   31  C   UNL     1      11.741   0.020   4.250  1.00  0.00     0.049 C 
HETATM   32  C   UNL     1      13.215   2.491   5.043  1.00  0.00     0.049 C 
HETATM   33  C   UNL     1      13.266   3.117   2.614  1.00  0.00     0.008 A 
HETATM   34  C   UNL     1      12.978   2.884   1.267  1.00  0.00     0.017 A 
ENDBRANCH  24  27
ENDBRANCH  22  23
ENDBRANCH   1  22
TORSDOF 7
