REMARK  7 active torsions:
REMARK  status: ('A' for Active; 'I' for Inactive)
REMARK    1  A    between atoms: C_2  and  O_3 
REMARK    2  A    between atoms: O_3  and  C_4 
REMARK    3  A    between atoms: C_7  and  N_8 
REMARK       I    between atoms: N_8  and  C_9 
REMARK    4  A    between atoms: C_9  and  C_10 
REMARK    5  A    between atoms: C_13  and  N_14 
REMARK       I    between atoms: N_14  and  C_15 
REMARK    6  A    between atoms: C_15  and  C_16 
REMARK    7  A    between atoms: C_16  and  N_17 
ROOT
HETATM    1  C   UNL     1      10.024  -0.812   3.149  1.00  0.00     0.032 A 
HETATM    2  C   UNL     1       8.883  -0.552   2.386  1.00  0.00     0.019 A 
HETATM    3  C   UNL     1       8.073  -1.616   1.953  1.00  0.00     0.030 A 
HETATM    4  C   UNL     1       8.411  -2.938   2.261  1.00  0.00     0.034 A 
HETATM    5  C   UNL     1       9.541  -3.182   3.053  1.00  0.00     0.030 A 
HETATM    6  C   UNL     1      10.350  -2.129   3.484  1.00  0.00     0.019 A 
ENDROOT
BRANCH   4   7
HETATM    7  N   UNL     1       7.730  -4.076   1.780  1.00  0.00    -0.326 N 
HETATM    8  C   UNL     1       6.695  -4.128   0.854  1.00  0.00     0.240 C 
HETATM    9  O   UNL     1       6.097  -3.166   0.382  1.00  0.00    -0.271 OA
HETATM   10  H   UNL     1       8.141  -4.962   2.049  1.00  0.00     0.169 HD
BRANCH   8  11
HETATM   11  C   UNL     1       6.339  -5.573   0.473  1.00  0.00     0.240 C 
BRANCH  11  12
HETATM   12  N   UNL     1       6.027  -5.661  -0.933  1.00  0.00    -0.259 N 
HETATM   13  C   UNL     1       6.971  -5.618  -1.910  1.00  0.00     0.326 A 
HETATM   14  O   UNL     1       8.178  -5.528  -1.758  1.00  0.00    -0.247 OA
HETATM   15  N   UNL     1       6.346  -5.728  -3.128  1.00  0.00    -0.324 N 
HETATM   16  C   UNL     1       4.926  -5.980  -3.000  1.00  0.00     0.116 A 
HETATM   17  H   UNL     1       6.884  -5.753  -3.985  1.00  0.00     0.165 HD
HETATM   18  C   UNL     1       4.579  -7.397  -3.472  1.00  0.00     0.041 C 
HETATM   19  C   UNL     1       4.084  -4.909  -3.691  1.00  0.00     0.041 C 
HETATM   20  C   UNL     1       4.790  -5.881  -1.466  1.00  0.00     0.256 A 
HETATM   21  C   UNL     1       4.613  -7.518  -4.997  1.00  0.00     0.007 C 
HETATM   22  C   UNL     1       3.756  -6.458  -5.704  1.00  0.00    -0.019 C 
HETATM   23  C   UNL     1       2.261  -6.752  -5.553  1.00  0.00     0.010 C 
HETATM   24  C   UNL     1       4.111  -5.047  -5.215  1.00  0.00     0.007 C 
HETATM   25  O   UNL     1       3.752  -6.040  -0.837  1.00  0.00    -0.270 OA
ENDBRANCH  11  12
ENDBRANCH   8  11
ENDBRANCH   4   7
BRANCH   1  26
HETATM   26  C   UNL     1      11.042   0.218   3.409  1.00  0.00     0.256 C 
HETATM   27  N   UNL     1      10.808   1.418   4.024  1.00  0.00    -0.323 N 
HETATM   28  H   UNL     1      11.645   1.987   3.958  1.00  0.00     0.169 HD
HETATM   29  O   UNL     1      12.187  -0.014   3.012  1.00  0.00    -0.267 OA
BRANCH  27  30
HETATM   30  C   UNL     1       9.779   1.961   4.806  1.00  0.00     0.035 A 
HETATM   31  C   UNL     1       8.620   1.306   5.210  1.00  0.00     0.032 A 
HETATM   32  C   UNL     1       7.679   1.959   6.030  1.00  0.00     0.039 A 
HETATM   33  C   UNL     1       7.897   3.266   6.463  1.00  0.00     0.068 A 
HETATM   34  C   UNL     1       9.068   3.913   6.079  1.00  0.00     0.039 A 
HETATM   35  C   UNL     1       9.996   3.271   5.258  1.00  0.00     0.032 A 
BRANCH  33  36
HETATM   36  O   UNL     1       7.087   4.016   7.265  1.00  0.00    -0.352 OA
BRANCH  36  37
HETATM   37  C   UNL     1       5.800   3.519   7.621  1.00  0.00     0.171 C 
HETATM   38  C   UNL     1       5.871   2.739   8.921  1.00  0.00     0.034 C 
ENDBRANCH  36  37
ENDBRANCH  33  36
ENDBRANCH  27  30
ENDBRANCH   1  26
TORSDOF 7
