REMARK  6 active torsions:
REMARK  status: ('A' for Active; 'I' for Inactive)
REMARK    1  A    between atoms: C_7  and  C_8 
REMARK    2  A    between atoms: N_9  and  N_10 
REMARK       I    between atoms: N_10  and  C_11 
REMARK    3  A    between atoms: C_11  and  C_12 
REMARK    4  A    between atoms: C_15  and  O_16 
REMARK    5  A    between atoms: O_16  and  C_17 
REMARK    6  A    between atoms: C_17  and  C_20 
ROOT
HETATM    1  N   UNL     1       3.314  -4.727   0.094  1.00  0.00    -0.243 N 
HETATM    2  C   UNL     1       4.129  -5.849   0.196  1.00  0.00     0.271 C 
HETATM    3  O   UNL     1       5.357  -5.845   0.157  1.00  0.00    -0.266 OA
HETATM    4  H   UNL     1       2.310  -4.830   0.022  1.00  0.00     0.192 HD
ENDROOT
BRANCH   1   5
HETATM    5  N   UNL     1       3.733  -3.442  -0.155  1.00  0.00    -0.183 NA
HETATM    6  C   UNL     1       4.908  -3.078   0.250  1.00  0.00     0.153 C 
BRANCH   6   7
HETATM    7  C   UNL     1       5.391  -1.736  -0.035  1.00  0.00     0.018 A 
HETATM    8  C   UNL     1       6.592  -1.230   0.449  1.00  0.00     0.018 A 
HETATM    9  C   UNL     1       7.631  -1.849   1.314  1.00  0.00     0.069 C 
HETATM   10  N   UNL     1       6.723   0.054  -0.015  1.00  0.00    -0.358 N 
HETATM   11  H   UNL     1       7.503   0.666   0.179  1.00  0.00     0.166 HD
HETATM   12  C   UNL     1       5.645   0.403  -0.790  1.00  0.00     0.043 A 
HETATM   13  C   UNL     1       4.789  -0.699  -0.825  1.00  0.00     0.004 A 
HETATM   14  C   UNL     1       5.371   1.603  -1.458  1.00  0.00     0.030 A 
HETATM   15  C   UNL     1       3.598  -0.587  -1.575  1.00  0.00     0.014 A 
HETATM   16  C   UNL     1       3.308   0.604  -2.251  1.00  0.00     0.001 A 
HETATM   17  C   UNL     1       4.184   1.684  -2.191  1.00  0.00     0.002 A 
ENDBRANCH   6   7
ENDBRANCH   1   5
BRANCH   2  18
HETATM   18  C   UNL     1       3.430  -7.155   0.393  1.00  0.00     0.033 A 
HETATM   19  C   UNL     1       2.116  -7.395  -0.024  1.00  0.00     0.020 A 
HETATM   20  C   UNL     1       1.525  -8.643   0.211  1.00  0.00     0.038 A 
HETATM   21  C   UNL     1       2.232  -9.669   0.847  1.00  0.00     0.075 A 
HETATM   22  C   UNL     1       3.548  -9.438   1.241  1.00  0.00     0.038 A 
HETATM   23  C   UNL     1       4.142  -8.191   1.013  1.00  0.00     0.020 A 
BRANCH  21  24
HETATM   24  O   UNL     1       1.524 -10.824   1.016  1.00  0.00    -0.279 OA
BRANCH  24  25
HETATM   25  C   UNL     1       2.186 -11.953   1.595  1.00  0.00     0.418 C 
HETATM   26  F   UNL     1       3.277 -12.268   0.851  1.00  0.00    -0.169 F 
HETATM   27  F   UNL     1       2.615 -11.613   2.841  1.00  0.00    -0.169 F 
BRANCH  25  28
HETATM   28  C   UNL     1       1.225 -13.137   1.691  1.00  0.00     0.455 C 
HETATM   29  F   UNL     1       0.793 -13.527   0.461  1.00  0.00    -0.205 F 
HETATM   30  F   UNL     1       1.832 -14.222   2.243  1.00  0.00    -0.205 F 
ENDBRANCH  25  28
ENDBRANCH  24  25
ENDBRANCH  21  24
ENDBRANCH   2  18
TORSDOF 6
