REMARK  4 active torsions:
REMARK  status: ('A' for Active; 'I' for Inactive)
REMARK    1  A    between atoms: N_8  and  C_10 
REMARK    2  A    between atoms: C_10  and  C_11 
REMARK    3  A    between atoms: C_14  and  C_15 
REMARK    4  A    between atoms: C_22  and  C_23 
ROOT
HETATM    1  C   UNL     1       0.791  -0.135   0.044  1.00  0.00     0.269 C 
HETATM    2  N   UNL     1       2.299  -0.122  -0.122  1.00  0.00    -0.073 N 
HETATM    3  H   UNL     1       2.661  -0.547   0.742  1.00  0.00     0.279 HD
HETATM    4  C   UNL     1       2.821   1.286  -0.262  1.00  0.00     0.244 C 
HETATM    5  C   UNL     1       4.373   1.325  -0.362  1.00  0.00    -0.013 C 
HETATM    6  C   UNL     1       4.792   2.781  -0.714  1.00  0.00     0.039 C 
HETATM    7  C   UNL     1       6.301   3.022  -0.678  1.00  0.00     0.236 C 
HETATM    8  N   UNL     1       6.867   2.617   0.656  1.00  0.00    -0.064 N 
HETATM    9  H   UNL     1       7.895   2.666   0.528  1.00  0.00     0.280 HD
HETATM   10  C   UNL     1       6.546   1.209   1.046  1.00  0.00     0.236 C 
HETATM   11  C   UNL     1       5.033   0.962   0.998  1.00  0.00     0.039 C 
HETATM   12  C   UNL     1       4.820   0.369  -1.502  1.00  0.00     0.022 C 
HETATM   13  C   UNL     1       4.235  -1.053  -1.383  1.00  0.00     0.045 C 
HETATM   14  C   UNL     1       2.705  -1.016  -1.281  1.00  0.00     0.243 C 
ENDROOT
BRANCH  13  15
HETATM   15  C   UNL     1       4.691  -1.935  -2.528  1.00  0.00    -0.052 A 
HETATM   16  C   UNL     1       5.450  -3.085  -2.258  1.00  0.00     0.007 A 
HETATM   17  C   UNL     1       5.880  -3.914  -3.295  1.00  0.00     0.001 A 
HETATM   18  C   UNL     1       5.559  -3.607  -4.614  1.00  0.00     0.000 A 
HETATM   19  C   UNL     1       4.806  -2.472  -4.898  1.00  0.00     0.001 A 
HETATM   20  C   UNL     1       4.374  -1.640  -3.864  1.00  0.00     0.007 A 
ENDBRANCH  13  15
BRANCH   8  21
HETATM   21  C   UNL     1       6.664   3.653   1.775  1.00  0.00     0.317 C 
BRANCH  21  22
HETATM   22  C   UNL     1       7.419   4.913   1.533  1.00  0.00     0.181 A 
HETATM   23  N   UNL     1       6.927   6.121   1.807  1.00  0.00    -0.109 NA
HETATM   24  O   UNL     1       7.939   6.977   1.360  1.00  0.00    -0.196 OA
HETATM   25  C   UNL     1       8.924   6.185   0.829  1.00  0.00     0.177 A 
HETATM   26  N   UNL     1       8.628   4.898   0.886  1.00  0.00    -0.207 NA
BRANCH  25  27
HETATM   27  C   UNL     1      10.201   6.752   0.228  1.00  0.00     0.065 A 
HETATM   28  C   UNL     1      11.491   5.974   0.395  1.00  0.00     0.013 A 
HETATM   29  C   UNL     1      10.839   6.032  -0.943  1.00  0.00     0.013 A 
ENDBRANCH  25  27
ENDBRANCH  21  22
ENDBRANCH   8  21
TORSDOF 4
