REMARK  5 active torsions:
REMARK  status: ('A' for Active; 'I' for Inactive)
REMARK    1  A    between atoms: O_2  and  C_3 
REMARK    2  A    between atoms: C_4  and  C_5 
REMARK    3  A    between atoms: C_9  and  S_10 
REMARK    4  A    between atoms: S_10  and  C_11 
REMARK    5  A    between atoms: C_11  and  C_12 
REMARK       I    between atoms: C_12  and  N_13 
ROOT
HETATM    1  C   UNL     1       1.877   2.268  -1.673  1.00  0.00     0.185 A 
HETATM    2  N   UNL     1       1.880   3.511  -1.164  1.00  0.00    -0.152 NA
HETATM    3  N   UNL     1       2.527   4.198  -2.117  1.00  0.00    -0.253 N 
HETATM    4  H   UNL     1       2.638   5.197  -2.007  1.00  0.00     0.191 HD
HETATM    5  C   UNL     1       2.904   3.391  -3.143  1.00  0.00     0.185 A 
HETATM    6  N   UNL     1       2.489   2.171  -2.908  1.00  0.00    -0.201 NA
ENDROOT
BRANCH   5   7
HETATM    7  S   UNL     1       3.696   3.934  -4.576  1.00  0.00    -0.081 SA
BRANCH   7   8
HETATM    8  C   UNL     1       4.591   5.410  -4.036  1.00  0.00     0.185 C 
BRANCH   8   9
HETATM    9  C   UNL     1       5.130   6.182  -5.235  1.00  0.00     0.234 C 
HETATM   10  N   UNL     1       6.376   5.821  -5.772  1.00  0.00    -0.317 N 
HETATM   11  C   UNL     1       6.987   6.539  -6.873  1.00  0.00     0.043 A 
HETATM   12  C   UNL     1       7.162   4.677  -5.281  1.00  0.00     0.132 C 
HETATM   13  C   UNL     1       8.372   6.397  -7.124  1.00  0.00    -0.031 A 
HETATM   14  C   UNL     1       6.259   7.383  -7.727  1.00  0.00     0.030 A 
HETATM   15  C   UNL     1       8.979   7.091  -8.190  1.00  0.00     0.009 A 
HETATM   16  C   UNL     1       9.256   5.500  -6.295  1.00  0.00     0.042 C 
HETATM   17  C   UNL     1       8.233   7.931  -9.008  1.00  0.00     0.001 A 
HETATM   18  C   UNL     1       6.873   8.073  -8.778  1.00  0.00     0.002 A 
HETATM   19  C   UNL     1       8.594   5.087  -4.995  1.00  0.00     0.025 C 
HETATM   20  O   UNL     1       4.446   7.138  -5.618  1.00  0.00    -0.272 OA
ENDBRANCH   8   9
ENDBRANCH   7   8
ENDBRANCH   5   7
BRANCH   1  21
HETATM   21  C   UNL     1       1.171   1.141  -1.074  1.00  0.00     0.048 A 
HETATM   22  C   UNL     1       1.172   0.889   0.309  1.00  0.00     0.082 A 
HETATM   23  C   UNL     1       0.443  -0.190   0.828  1.00  0.00     0.039 A 
HETATM   24  C   UNL     1      -0.312  -1.002  -0.020  1.00  0.00     0.026 A 
HETATM   25  C   UNL     1      -0.316  -0.753  -1.390  1.00  0.00     0.035 A 
HETATM   26  C   UNL     1       0.424   0.302  -1.919  1.00  0.00     0.042 A 
HETATM   27 CL   UNL     1      -1.244  -1.758  -2.434  1.00  0.00    -0.084 Cl
BRANCH  22  28
HETATM   28  O   UNL     1       1.977   1.640   1.129  1.00  0.00    -0.355 OA
HETATM   29  C   UNL     1       1.284   2.179   2.253  1.00  0.00     0.210 C 
ENDBRANCH  22  28
ENDBRANCH   1  21
TORSDOF 5
