REMARK  7 active torsions:
REMARK  status: ('A' for Active; 'I' for Inactive)
REMARK    1  A    between atoms: C_3  and  N_4 
REMARK       I    between atoms: N_4  and  C_5 
REMARK       I    between atoms: C_5  and  N_6 
REMARK    2  A    between atoms: N_6  and  C_7 
REMARK    3  A    between atoms: C_7  and  C_8 
REMARK    4  A    between atoms: C_8  and  N_9 
REMARK    5  A    between atoms: C_23  and  N_24 
REMARK       I    between atoms: N_24  and  C_25 
REMARK    6  A    between atoms: C_25  and  C_26 
REMARK    7  A    between atoms: C_26  and  O_27 
ROOT
HETATM    1  N   UNL     1       0.141   3.389   1.480  1.00  0.00    -0.308 N 
HETATM    2  C   UNL     1       0.470   2.071   1.459  1.00  0.00     0.320 C 
HETATM    3  N   UNL     1      -0.301   1.232   0.727  1.00  0.00    -0.340 N 
HETATM    4  O   UNL     1       1.386   1.667   2.176  1.00  0.00    -0.247 OA
HETATM    5  H   UNL     1       0.629   3.885   2.216  1.00  0.00     0.170 HD
HETATM    6  H   UNL     1      -1.184   1.637   0.440  1.00  0.00     0.164 HD
ENDROOT
BRANCH   1   7
HETATM    7  C   UNL     1      -0.721   4.170   0.678  1.00  0.00     0.044 A 
HETATM    8  C   UNL     1      -1.269   5.368   1.211  1.00  0.00    -0.008 A 
HETATM    9  C   UNL     1      -1.006   5.763   2.648  1.00  0.00     0.053 C 
HETATM   10  C   UNL     1      -2.088   6.186   0.387  1.00  0.00     0.043 A 
HETATM   11  C   UNL     1      -2.370   5.776  -0.919  1.00  0.00     0.030 A 
HETATM   12  C   UNL     1      -1.821   4.606  -1.436  1.00  0.00     0.005 A 
HETATM   13  C   UNL     1      -0.988   3.818  -0.649  1.00  0.00     0.030 A 
BRANCH  10  14
HETATM   14  N   UNL     1      -2.578   7.411   0.894  1.00  0.00    -0.325 N 
HETATM   15  C   UNL     1      -3.505   8.273   0.326  1.00  0.00     0.245 C 
HETATM   16  O   UNL     1      -4.137   8.099  -0.709  1.00  0.00    -0.271 OA
HETATM   17  H   UNL     1      -2.209   7.749   1.778  1.00  0.00     0.169 HD
BRANCH  15  18
HETATM   18  C   UNL     1      -3.737   9.506   1.208  1.00  0.00     0.270 C 
BRANCH  18  19
HETATM   19  O   UNL     1      -2.575   9.870   1.956  1.00  0.00    -0.387 OA
HETATM   20  C   UNL     1      -1.706  10.710   1.199  1.00  0.00     0.202 C 
ENDBRANCH  18  19
ENDBRANCH  15  18
ENDBRANCH  10  14
ENDBRANCH   1   7
BRANCH   3  21
HETATM   21  C   UNL     1      -0.242  -0.229   0.620  1.00  0.00     0.163 C 
BRANCH  21  22
HETATM   22  C   UNL     1       1.024  -1.031   1.089  1.00  0.00     0.143 C 
HETATM   23  C   UNL     1       0.819  -2.544   0.806  1.00  0.00     0.041 C 
HETATM   24  C   UNL     1       1.986  -2.974  -0.079  1.00  0.00     0.003 C 
HETATM   25  C   UNL     1       2.382  -1.707  -0.812  1.00  0.00     0.003 C 
HETATM   26  C   UNL     1       2.268  -0.631   0.260  1.00  0.00     0.041 C 
BRANCH  22  27
HETATM   27  N   UNL     1       1.283  -0.808   2.578  1.00  0.00    -0.061 N 
HETATM   28  H   UNL     1       1.501   0.212   2.619  1.00  0.00     0.281 HD
HETATM   29  C   UNL     1       2.482  -1.467   3.230  1.00  0.00     0.236 C 
HETATM   30  C   UNL     1       1.954  -2.046   4.532  1.00  0.00     0.029 C 
HETATM   31  C   UNL     1       0.766  -1.171   4.868  1.00  0.00     0.029 C 
HETATM   32  C   UNL     1       0.110  -0.973   3.519  1.00  0.00     0.236 C 
ENDBRANCH  22  27
ENDBRANCH  21  22
ENDBRANCH   3  21
TORSDOF 7
