REMARK  5 active torsions:
REMARK  status: ('A' for Active; 'I' for Inactive)
REMARK    1  A    between atoms: C_3  and  C_4 
REMARK    2  A    between atoms: C_9  and  C_10 
REMARK    3  A    between atoms: C_10  and  C_11 
REMARK       I    between atoms: C_11  and  N_12 
REMARK    4  A    between atoms: N_12  and  C_13 
REMARK    5  A    between atoms: C_20  and  C_21 
REMARK       I    between atoms: C_21  and  N_22 
ROOT
HETATM    1  C   UNL     1      -2.797  -0.001   0.843  1.00  0.00     0.035 A 
HETATM    2  C   UNL     1      -1.475   0.044   1.307  1.00  0.00     0.046 A 
HETATM    3  C   UNL     1      -0.952   1.254   1.816  1.00  0.00     0.030 A 
HETATM    4  C   UNL     1      -1.767   2.379   1.838  1.00  0.00     0.063 A 
HETATM    5  N   UNL     1      -0.998   3.373   2.377  1.00  0.00    -0.277 N 
HETATM    6  H   UNL     1      -1.269   4.335   2.547  1.00  0.00     0.189 HD
HETATM    7  N   UNL     1       0.247   2.995   2.711  1.00  0.00    -0.168 NA
HETATM    8  C   UNL     1       0.291   1.686   2.371  1.00  0.00     0.156 A 
HETATM    9  C   UNL     1      -3.086   2.374   1.381  1.00  0.00     0.034 A 
HETATM   10  C   UNL     1      -3.582   1.160   0.886  1.00  0.00     0.032 A 
ENDROOT
BRANCH   1  11
HETATM   11  N   UNL     1      -3.417  -1.172   0.353  1.00  0.00    -0.327 N 
HETATM   12  C   UNL     1      -2.836  -2.417   0.170  1.00  0.00     0.226 C 
HETATM   13  O   UNL     1      -1.644  -2.686   0.278  1.00  0.00    -0.273 OA
HETATM   14  H   UNL     1      -4.388  -1.082   0.082  1.00  0.00     0.169 HD
BRANCH  12  15
HETATM   15  C   UNL     1      -3.843  -3.495  -0.204  1.00  0.00     0.141 C 
BRANCH  15  16
HETATM   16  C   UNL     1      -4.092  -3.672  -1.685  1.00  0.00    -0.049 A 
HETATM   17  C   UNL     1      -5.304  -4.246  -2.106  1.00  0.00     0.023 A 
HETATM   18  C   UNL     1      -5.558  -4.506  -3.464  1.00  0.00     0.048 A 
HETATM   19  C   UNL     1      -4.580  -4.175  -4.411  1.00  0.00     0.016 A 
HETATM   20  C   UNL     1      -3.368  -3.618  -4.005  1.00  0.00     0.001 A 
HETATM   21  C   UNL     1      -3.121  -3.379  -2.651  1.00  0.00     0.007 A 
BRANCH  18  22
HETATM   22  C   UNL     1      -6.868  -5.126  -3.882  1.00  0.00     0.417 C 
HETATM   23  F   UNL     1      -6.879  -5.570  -5.170  1.00  0.00    -0.166 F 
HETATM   24  F   UNL     1      -7.209  -6.201  -3.116  1.00  0.00    -0.166 F 
HETATM   25  F   UNL     1      -7.909  -4.253  -3.779  1.00  0.00    -0.166 F 
ENDBRANCH  18  22
ENDBRANCH  15  16
ENDBRANCH  12  15
ENDBRANCH   1  11
BRANCH   8  26
HETATM   26  C   UNL     1       1.504   0.885   2.586  1.00  0.00     0.270 C 
HETATM   27  N   UNL     1       2.545   1.584   3.135  1.00  0.00    -0.365 N 
HETATM   28  H   UNL     1       2.412   2.564   3.351  1.00  0.00     0.159 HD
HETATM   29  H   UNL     1       3.417   1.114   3.322  1.00  0.00     0.159 HD
HETATM   30  O   UNL     1       1.614  -0.306   2.314  1.00  0.00    -0.266 OA
ENDBRANCH   8  26
TORSDOF 5
