REMARK  5 active torsions:
REMARK  status: ('A' for Active; 'I' for Inactive)
REMARK    1  A    between atoms: C_10  and  C_11 
REMARK    2  A    between atoms: C_13  and  O_14 
REMARK    3  A    between atoms: C_16  and  O_17 
REMARK    4  A    between atoms: O_17  and  C_18 
REMARK    5  A    between atoms: C_18  and  C_19 
ROOT
HETATM    1  C   UNL     1      10.104  -0.878  -2.924  1.00  0.00    -0.013 A 
HETATM    2  C   UNL     1       9.348  -0.845  -4.114  1.00  0.00     0.050 A 
HETATM    3  C   UNL     1       9.945  -1.090  -5.353  1.00  0.00     0.102 A 
HETATM    4  C   UNL     1      11.316  -1.381  -5.396  1.00  0.00     0.112 A 
HETATM    5  C   UNL     1      12.090  -1.374  -4.237  1.00  0.00     0.041 A 
HETATM    6  C   UNL     1      11.482  -1.132  -3.004  1.00  0.00     0.014 A 
ENDROOT
BRANCH   1   7
HETATM    7  C   UNL     1       9.448  -0.637  -1.578  1.00  0.00     0.219 A 
HETATM    8  N   UNL     1       8.395  -1.603  -1.360  1.00  0.00    -0.358 N 
HETATM    9  C   UNL     1       7.120  -1.228  -1.167  1.00  0.00     0.088 A 
HETATM   10  H   UNL     1       8.653  -2.578  -1.490  1.00  0.00     0.162 HD
HETATM   11  C   UNL     1       6.716   0.083  -1.101  1.00  0.00     0.073 A 
HETATM   12  S   UNL     1       5.829  -2.321  -0.985  1.00  0.00    -0.074 SA
HETATM   13  C   UNL     1       5.305   0.195  -0.887  1.00  0.00    -0.023 A 
HETATM   14  C   UNL     1       7.703   1.133  -1.247  1.00  0.00     0.256 A 
HETATM   15  C   UNL     1       4.713  -1.052  -0.792  1.00  0.00     0.018 A 
HETATM   16  C   UNL     1       4.507   1.457  -0.741  1.00  0.00     0.068 C 
HETATM   17  C   UNL     1       3.261  -1.296  -0.573  1.00  0.00     0.281 C 
HETATM   18  N   UNL     1       2.585  -0.029  -0.063  1.00  0.00    -0.070 N 
HETATM   19  C   UNL     1       1.099  -0.185   0.028  1.00  0.00     0.270 C 
HETATM   20  H   UNL     1       2.941   0.114   0.891  1.00  0.00     0.279 HD
HETATM   21  C   UNL     1       2.996   1.195  -0.877  1.00  0.00     0.239 C 
HETATM   22  N   UNL     1       8.982   0.722  -1.473  1.00  0.00    -0.332 N 
HETATM   23  O   UNL     1       7.412   2.323  -1.179  1.00  0.00    -0.267 OA
HETATM   24  H   UNL     1       9.659   1.462  -1.590  1.00  0.00     0.165 HD
ENDBRANCH   1   7
BRANCH   3  25
HETATM   25  O   UNL     1       9.293  -1.081  -6.557  1.00  0.00    -0.353 OA
HETATM   26  C   UNL     1       7.926  -0.695  -6.563  1.00  0.00     0.210 C 
ENDBRANCH   3  25
BRANCH   4  27
HETATM   27  O   UNL     1      11.865  -1.631  -6.675  1.00  0.00    -0.272 OA
BRANCH  27  28
HETATM   28  C   UNL     1      12.827  -2.605  -6.854  1.00  0.00     0.300 C 
HETATM   29  O   UNL     1      13.475  -3.212  -6.020  1.00  0.00    -0.259 OA
BRANCH  28  30
HETATM   30  C   UNL     1      13.017  -2.767  -8.302  1.00  0.00     0.061 A 
HETATM   31  C   UNL     1      12.033  -3.352  -9.107  1.00  0.00     0.051 A 
HETATM   32 CL   UNL     1      10.542  -3.944  -8.466  1.00  0.00    -0.083 Cl
HETATM   33  C   UNL     1      12.259  -3.502 -10.477  1.00  0.00     0.048 A 
HETATM   34  C   UNL     1      13.466  -3.075 -11.030  1.00  0.00     0.035 A 
HETATM   35 CL   UNL     1      13.741  -3.264 -12.718  1.00  0.00    -0.084 Cl
HETATM   36  C   UNL     1      14.456  -2.506 -10.228  1.00  0.00     0.025 A 
HETATM   37  C   UNL     1      14.236  -2.356  -8.857  1.00  0.00     0.021 A 
ENDBRANCH  28  30
ENDBRANCH  27  28
ENDBRANCH   4  27
TORSDOF 5
