REMARK  9 active torsions:
REMARK  status: ('A' for Active; 'I' for Inactive)
REMARK    1  A    between atoms: C_2  and  N_3 
REMARK       I    between atoms: N_3  and  C_4 
REMARK    2  A    between atoms: C_4  and  C_5 
REMARK    3  A    between atoms: C_5  and  S_6 
REMARK    4  A    between atoms: S_6  and  C_7 
REMARK    5  A    between atoms: N_8  and  C_9 
REMARK    6  A    between atoms: C_9  and  C_10 
REMARK    7  A    between atoms: C_10  and  C_11 
REMARK    8  A    between atoms: C_17  and  C_18 
REMARK    9  A    between atoms: C_21  and  O_22 
ROOT
HETATM    1  C   UNL     1       5.991   2.097   1.693  1.00  0.00     0.192 A 
HETATM    2  N   UNL     1       5.878   3.455   1.849  1.00  0.00    -0.307 N 
HETATM    3  C   UNL     1       6.969   3.829   2.617  1.00  0.00     0.164 A 
HETATM    4  N   UNL     1       7.694   2.746   2.850  1.00  0.00    -0.128 NA
HETATM    5  N   UNL     1       7.085   1.670   2.271  1.00  0.00    -0.122 NA
ENDROOT
BRANCH   1   6
HETATM    6  S   UNL     1       4.858   1.111   0.837  1.00  0.00    -0.081 SA
BRANCH   6   7
HETATM    7  C   UNL     1       5.739  -0.474   0.768  1.00  0.00     0.185 C 
BRANCH   7   8
HETATM    8  C   UNL     1       5.676  -1.208   2.098  1.00  0.00     0.227 C 
HETATM    9  N   UNL     1       6.788  -1.032   2.895  1.00  0.00    -0.361 N 
HETATM   10  H   UNL     1       7.341  -0.192   2.724  1.00  0.00     0.162 HD
HETATM   11  O   UNL     1       4.722  -1.916   2.411  1.00  0.00    -0.273 OA
BRANCH   9  12
HETATM   12  C   UNL     1       6.886  -1.617   4.215  1.00  0.00     0.118 C 
HETATM   13  C   UNL     1       6.186  -0.770   5.262  1.00  0.00     0.026 C 
ENDBRANCH   9  12
ENDBRANCH   7   8
ENDBRANCH   6   7
ENDBRANCH   1   6
BRANCH   2  14
HETATM   14  C   UNL     1       4.921   4.322   1.189  1.00  0.00     0.137 C 
BRANCH  14  15
HETATM   15  C   UNL     1       3.551   4.343   1.869  1.00  0.00     0.059 C 
BRANCH  15  16
HETATM   16  C   UNL     1       2.634   5.350   1.218  1.00  0.00    -0.057 A 
HETATM   17  C   UNL     1       1.991   5.042   0.010  1.00  0.00     0.007 A 
HETATM   18  C   UNL     1       1.165   5.980  -0.610  1.00  0.00     0.001 A 
HETATM   19  C   UNL     1       0.973   7.233  -0.030  1.00  0.00     0.000 A 
HETATM   20  C   UNL     1       1.607   7.548   1.170  1.00  0.00     0.001 A 
HETATM   21  C   UNL     1       2.436   6.612   1.792  1.00  0.00     0.007 A 
ENDBRANCH  15  16
ENDBRANCH  14  15
ENDBRANCH   2  14
BRANCH   3  22
HETATM   22  C   UNL     1       7.351   5.172   3.064  1.00  0.00     0.012 A 
HETATM   23  C   UNL     1       6.432   6.115   3.532  1.00  0.00     0.018 A 
HETATM   24  C   UNL     1       6.862   7.370   3.979  1.00  0.00     0.037 A 
HETATM   25  C   UNL     1       8.219   7.696   3.997  1.00  0.00     0.068 A 
HETATM   26  C   UNL     1       9.146   6.762   3.545  1.00  0.00     0.037 A 
HETATM   27  C   UNL     1       8.713   5.511   3.086  1.00  0.00     0.018 A 
BRANCH  25  28
HETATM   28  O   UNL     1       8.505   8.944   4.476  1.00  0.00    -0.356 OA
HETATM   29  C   UNL     1       9.872   9.219   4.759  1.00  0.00     0.210 C 
ENDBRANCH  25  28
ENDBRANCH   3  22
TORSDOF 9
