REMARK  5 active torsions:
REMARK  status: ('A' for Active; 'I' for Inactive)
REMARK    1  A    between atoms: C_2  and  C_3 
REMARK    2  A    between atoms: C_8  and  C_9 
REMARK       I    between atoms: C_9  and  N_10 
REMARK    3  A    between atoms: N_10  and  C_11 
REMARK    4  A    between atoms: C_11  and  C_12 
REMARK    5  A    between atoms: C_19  and  C_20 
ROOT
HETATM    1  C   UNL     1       0.248  11.578   6.572  1.00  0.00     0.118 C 
HETATM    2  N   UNL     1       1.463  10.855   6.186  1.00  0.00    -0.366 N 
HETATM    3  C   UNL     1       1.879  10.942   4.905  1.00  0.00     0.123 A 
HETATM    4  N   UNL     1       0.963  11.001   3.900  1.00  0.00    -0.240 N 
HETATM    5  N   UNL     1       1.493  11.155   2.676  1.00  0.00    -0.165 NA
HETATM    6  C   UNL     1       2.826  11.098   2.908  1.00  0.00     0.148 A 
HETATM    7  C   UNL     1       3.104  10.950   4.298  1.00  0.00     0.088 A 
HETATM    8  C   UNL     1      -0.461  10.929   4.139  1.00  0.00     0.221 C 
HETATM    9  C   UNL     1      -0.828  11.628   5.461  1.00  0.00     0.066 C 
HETATM   10  H   UNL     1       2.173  10.865   6.920  1.00  0.00     0.161 HD
ENDROOT
BRANCH   6  11
HETATM   11  C   UNL     1       3.817  11.178   1.823  1.00  0.00     0.272 C 
HETATM   12  N   UNL     1       3.257  11.300   0.572  1.00  0.00    -0.353 N 
HETATM   13  H   UNL     1       2.251  11.147   0.529  1.00  0.00     0.162 HD
HETATM   14  O   UNL     1       5.027  11.123   2.023  1.00  0.00    -0.266 OA
BRANCH  12  15
HETATM   15  C   UNL     1       4.039  11.130  -0.634  1.00  0.00     0.155 C 
BRANCH  15  16
HETATM   16  C   UNL     1       3.275  11.617  -1.872  1.00  0.00     0.139 C 
HETATM   17  O   UNL     1       2.090  10.807  -2.037  1.00  0.00    -0.384 OA
HETATM   18  C   UNL     1       2.243   9.994  -3.209  1.00  0.00     0.168 C 
HETATM   19  C   UNL     1       3.699  10.073  -3.613  1.00  0.00     0.029 C 
HETATM   20  C   UNL     1       4.078  11.458  -3.154  1.00  0.00     0.035 C 
ENDBRANCH  15  16
ENDBRANCH  12  15
ENDBRANCH   6  11
BRANCH   8  21
HETATM   21  C   UNL     1      -0.917   9.487   4.103  1.00  0.00     0.409 C 
HETATM   22  F   UNL     1      -0.664   8.897   2.913  1.00  0.00    -0.169 F 
HETATM   23  F   UNL     1      -0.372   8.716   5.065  1.00  0.00    -0.169 F 
HETATM   24  F   UNL     1      -2.265   9.429   4.276  1.00  0.00    -0.169 F 
ENDBRANCH   8  21
BRANCH   1  25
HETATM   25  C   UNL     1      -0.293  11.030   7.881  1.00  0.00    -0.035 A 
HETATM   26  C   UNL     1      -0.719  11.917   8.885  1.00  0.00     0.010 A 
HETATM   27  C   UNL     1      -1.220  11.436  10.098  1.00  0.00     0.019 A 
HETATM   28  C   UNL     1      -1.306  10.063  10.315  1.00  0.00     0.011 A 
HETATM   29  C   UNL     1      -0.897   9.168   9.331  1.00  0.00     0.019 A 
HETATM   30 BR   UNL     1      -1.978   9.413  11.957  1.00  0.00    -0.051 Br
HETATM   31  C   UNL     1      -0.392   9.650   8.120  1.00  0.00     0.010 A 
ENDBRANCH   1  25
TORSDOF 5
