REMARK  4 active torsions:
REMARK  status: ('A' for Active; 'I' for Inactive)
REMARK    1  A    between atoms: C_8  and  N_9 
REMARK       I    between atoms: N_9  and  C_10 
REMARK       I    between atoms: C_10  and  N_11 
REMARK    2  A    between atoms: N_11  and  C_12 
REMARK    3  A    between atoms: C_15  and  C_16 
REMARK       I    between atoms: C_16  and  N_17 
REMARK    4  A    between atoms: N_17  and  C_18 
ROOT
HETATM    1  C   UNL     1       0.515  -0.459  -0.630  1.00  0.00     0.036 A 
HETATM    2  C   UNL     1      -0.474   0.526  -0.674  1.00  0.00     0.030 A 
HETATM    3  C   UNL     1      -0.131   1.877  -0.813  1.00  0.00     0.019 A 
HETATM    4  C   UNL     1       1.212   2.260  -0.888  1.00  0.00     0.032 A 
HETATM    5  C   UNL     1       2.201   1.271  -0.906  1.00  0.00     0.019 A 
HETATM    6  C   UNL     1       1.854  -0.078  -0.779  1.00  0.00     0.030 A 
ENDROOT
BRANCH   1   7
HETATM    7  N   UNL     1       0.258  -1.822  -0.378  1.00  0.00    -0.309 N 
HETATM    8  C   UNL     1      -0.974  -2.427  -0.160  1.00  0.00     0.325 C 
HETATM    9  N   UNL     1      -0.789  -3.690   0.379  1.00  0.00    -0.305 N 
HETATM   10  O   UNL     1      -2.057  -1.902  -0.371  1.00  0.00    -0.247 OA
HETATM   11  H   UNL     1       0.113  -3.868   0.791  1.00  0.00     0.171 HD
HETATM   12  H   UNL     1       1.057  -2.436  -0.391  1.00  0.00     0.170 HD
BRANCH   9  13
HETATM   13  C   UNL     1      -1.779  -4.600   0.712  1.00  0.00     0.086 A 
HETATM   14  C   UNL     1      -1.525  -5.682   1.535  1.00  0.00     0.052 A 
HETATM   15  C   UNL     1      -0.307  -6.145   2.241  1.00  0.00     0.072 C 
HETATM   16  N   UNL     1      -2.714  -6.341   1.663  1.00  0.00    -0.280 N 
HETATM   17  H   UNL     1      -2.916  -7.171   2.210  1.00  0.00     0.189 HD
HETATM   18  N   UNL     1      -3.711  -5.797   0.962  1.00  0.00    -0.177 NA
HETATM   19  C   UNL     1      -3.157  -4.729   0.367  1.00  0.00     0.079 A 
HETATM   20  C   UNL     1      -4.007  -3.913  -0.535  1.00  0.00     0.075 C 
ENDBRANCH   9  13
ENDBRANCH   1   7
BRANCH   4  21
HETATM   21  C   UNL     1       1.640   3.690  -0.901  1.00  0.00     0.252 C 
HETATM   22  N   UNL     1       0.762   4.589  -0.327  1.00  0.00    -0.352 N 
HETATM   23  H   UNL     1      -0.020   4.211   0.189  1.00  0.00     0.163 HD
HETATM   24  O   UNL     1       2.744   3.991  -1.341  1.00  0.00    -0.268 OA
BRANCH  22  25
HETATM   25  C   UNL     1       1.098   5.965  -0.021  1.00  0.00     0.084 C 
HETATM   26  C   UNL     1       2.179   6.112   1.049  1.00  0.00     0.025 C 
HETATM   27  C   UNL     1       2.633   7.550   0.867  1.00  0.00     0.002 C 
HETATM   28  C   UNL     1       2.685   7.713  -0.646  1.00  0.00     0.002 C 
HETATM   29  C   UNL     1       1.562   6.832  -1.198  1.00  0.00     0.025 C 
ENDBRANCH  22  25
ENDBRANCH   4  21
TORSDOF 4
