REMARK  5 active torsions:
REMARK  status: ('A' for Active; 'I' for Inactive)
REMARK    1  A    between atoms: C_3  and  O_4 
REMARK    2  A    between atoms: C_6  and  C_7 
REMARK       I    between atoms: N_10  and  C_11 
REMARK    3  A    between atoms: C_11  and  C_12 
REMARK    4  A    between atoms: C_18  and  C_19 
REMARK    5  A    between atoms: C_19  and  O_20 
ROOT
HETATM    1  C   UNL     1      -1.679  -2.530  -0.222  1.00  0.00     0.022 C 
HETATM    2  C   UNL     1      -1.134  -3.887  -0.732  1.00  0.00     0.029 C 
HETATM    3  C   UNL     1      -0.533  -4.777   0.360  1.00  0.00     0.127 C 
HETATM    4  N   UNL     1      -1.428  -4.853   1.509  1.00  0.00    -0.348 N 
HETATM    5  C   UNL     1      -1.923  -6.007   2.109  1.00  0.00     0.253 C 
HETATM    6  O   UNL     1      -2.478  -6.006   3.207  1.00  0.00    -0.267 OA
HETATM    7  C   UNL     1      -1.735  -3.561   2.109  1.00  0.00     0.127 C 
HETATM    8  C   UNL     1      -2.480  -2.708   1.088  1.00  0.00     0.029 C 
ENDROOT
BRANCH   5   9
HETATM    9  C   UNL     1      -1.841  -7.310   1.407  1.00  0.00     0.034 A 
HETATM   10  C   UNL     1      -1.414  -8.426   2.141  1.00  0.00     0.051 A 
HETATM   11  C   UNL     1      -1.459  -9.683   1.525  1.00  0.00     0.086 A 
HETATM   12  C   UNL     1      -1.916  -9.790   0.216  1.00  0.00     0.062 A 
HETATM   13  N   UNL     1      -1.133 -10.918   2.030  1.00  0.00    -0.231 NA
HETATM   14  N   UNL     1      -1.855 -11.133  -0.056  1.00  0.00    -0.341 N 
HETATM   15  C   UNL     1      -2.351  -8.698  -0.538  1.00  0.00     0.033 A 
HETATM   16  H   UNL     1      -2.153 -11.579  -0.912  1.00  0.00     0.167 HD
HETATM   17  C   UNL     1      -1.389 -11.777   1.063  1.00  0.00     0.128 A 
HETATM   18  C   UNL     1      -2.325  -7.451   0.097  1.00  0.00     0.019 A 
BRANCH  17  19
HETATM   19  C   UNL     1      -1.276 -13.255   1.150  1.00  0.00     0.242 C 
BRANCH  19  20
HETATM   20  O   UNL     1      -2.272 -13.692   2.065  1.00  0.00    -0.393 OA
HETATM   21  H   UNL     1      -2.197 -13.094   2.836  1.00  0.00     0.209 HD
ENDBRANCH  19  20
ENDBRANCH  17  19
ENDBRANCH   5   9
BRANCH   1  22
HETATM   22  C   UNL     1      -0.688  -1.376  -0.121  1.00  0.00    -0.051 A 
HETATM   23  C   UNL     1       0.703  -1.533  -0.139  1.00  0.00     0.044 A 
HETATM   24  C   UNL     1       1.542  -0.422  -0.056  1.00  0.00     0.066 A 
HETATM   25  C   UNL     1       1.028   0.865   0.044  1.00  0.00     0.036 A 
HETATM   26  C   UNL     1      -0.352   1.043   0.057  1.00  0.00     0.003 A 
HETATM   27  C   UNL     1      -1.198  -0.065  -0.028  1.00  0.00     0.007 A 
BRANCH  24  28
HETATM   28  O   UNL     1       2.888  -0.644  -0.082  1.00  0.00    -0.361 OA
HETATM   29  H   UNL     1       3.343   0.211  -0.009  1.00  0.00     0.217 HD
ENDBRANCH  24  28
ENDBRANCH   1  22
TORSDOF 5
