REMARK  4 active torsions:
REMARK  status: ('A' for Active; 'I' for Inactive)
REMARK    1  A    between atoms: C_2  and  C_3 
REMARK    2  A    between atoms: C_10  and  C_11 
REMARK       I    between atoms: C_11  and  N_12 
REMARK    3  A    between atoms: N_12  and  C_13 
REMARK    4  A    between atoms: C_20  and  C_21 
REMARK       I    between atoms: C_21  and  N_22 
ROOT
HETATM    1  C   UNL     1       4.534   1.710  -0.255  1.00  0.00     0.035 A 
HETATM    2  C   UNL     1       3.185   1.914   0.052  1.00  0.00     0.046 A 
HETATM    3  C   UNL     1       2.595   3.180  -0.166  1.00  0.00     0.030 A 
HETATM    4  C   UNL     1       3.375   4.208  -0.676  1.00  0.00     0.063 A 
HETATM    5  N   UNL     1       2.540   5.287  -0.766  1.00  0.00    -0.277 N 
HETATM    6  H   UNL     1       2.772   6.217  -1.096  1.00  0.00     0.189 HD
HETATM    7  N   UNL     1       1.279   5.049  -0.367  1.00  0.00    -0.168 NA
HETATM    8  C   UNL     1       1.297   3.749   0.006  1.00  0.00     0.156 A 
HETATM    9  C   UNL     1       4.723   4.050  -0.992  1.00  0.00     0.034 A 
HETATM   10  C   UNL     1       5.280   2.783  -0.772  1.00  0.00     0.032 A 
ENDROOT
BRANCH   1  11
HETATM   11  N   UNL     1       5.233   0.498  -0.097  1.00  0.00    -0.324 N 
HETATM   12  C   UNL     1       4.911  -0.742   0.366  1.00  0.00     0.246 C 
HETATM   13  O   UNL     1       5.764  -1.630   0.356  1.00  0.00    -0.268 OA
HETATM   14  H   UNL     1       6.209   0.512  -0.370  1.00  0.00     0.169 HD
BRANCH  12  15
HETATM   15  C   UNL     1       3.550  -1.044   0.840  1.00  0.00     0.082 C 
HETATM   16  C   UNL     1       3.249  -1.237   2.138  1.00  0.00    -0.045 C 
HETATM   17  C   UNL     1       1.854  -1.566   2.591  1.00  0.00     0.049 C 
BRANCH  16  18
HETATM   18  C   UNL     1       4.259  -1.145   3.213  1.00  0.00    -0.008 A 
HETATM   19  C   UNL     1       4.462   0.012   3.984  1.00  0.00     0.044 A 
HETATM   20 CL   UNL     1       3.546   1.457   3.731  1.00  0.00    -0.083 Cl
HETATM   21  C   UNL     1       5.434   0.031   4.990  1.00  0.00     0.024 A 
HETATM   22  C   UNL     1       6.214  -1.100   5.235  1.00  0.00     0.002 A 
HETATM   23  C   UNL     1       6.026  -2.250   4.473  1.00  0.00     0.001 A 
HETATM   24  C   UNL     1       5.055  -2.273   3.470  1.00  0.00     0.013 A 
ENDBRANCH  16  18
ENDBRANCH  12  15
ENDBRANCH   1  11
BRANCH   8  25
HETATM   25  C   UNL     1       0.089   3.077   0.503  1.00  0.00     0.270 C 
HETATM   26  N   UNL     1      -1.010   3.889   0.579  1.00  0.00    -0.365 N 
HETATM   27  H   UNL     1      -0.918   4.857   0.295  1.00  0.00     0.159 HD
HETATM   28  H   UNL     1      -1.888   3.516   0.903  1.00  0.00     0.159 HD
HETATM   29  O   UNL     1       0.032   1.894   0.821  1.00  0.00    -0.266 OA
ENDBRANCH   8  25
TORSDOF 4
