REMARK  9 active torsions:
REMARK  status: ('A' for Active; 'I' for Inactive)
REMARK    1  A    between atoms: C_2  and  C_3 
REMARK    2  A    between atoms: C_3  and  C_4 
REMARK    3  A    between atoms: C_3  and  C_38 
REMARK    4  A    between atoms: C_6  and  C_7 
REMARK    5  A    between atoms: C_14  and  C_15 
REMARK    6  A    between atoms: C_18  and  C_19 
REMARK    7  A    between atoms: C_19  and  N_20 
REMARK       I    between atoms: N_20  and  C_21 
REMARK       I    between atoms: C_21  and  N_22 
REMARK    8  A    between atoms: N_22  and  C_23 
REMARK    9  A    between atoms: C_26  and  O_27 
ROOT
HETATM    1  C   UNL     1       0.408  -4.296  -2.727  1.00  0.00     0.068 C 
HETATM    2  C   UNL     1      -0.269  -3.985  -4.092  1.00  0.00     0.001 C 
HETATM    3  C   UNL     1      -0.159  -2.473  -4.402  1.00  0.00     0.040 C 
HETATM    4  C   UNL     1      -0.913  -1.643  -3.345  1.00  0.00     0.206 C 
HETATM    5  N   UNL     1      -1.371  -2.622  -2.268  1.00  0.00    -0.065 N 
HETATM    6  H   UNL     1      -1.783  -2.053  -1.496  1.00  0.00     0.280 HD
HETATM    7  C   UNL     1      -0.229  -3.407  -1.640  1.00  0.00     0.246 C 
HETATM    8  C   UNL     1      -1.769  -4.337  -3.969  1.00  0.00     0.033 C 
HETATM    9  C   UNL     1      -2.415  -3.557  -2.819  1.00  0.00     0.236 C 
ENDROOT
BRANCH   1  10
HETATM   10  C   UNL     1       1.915  -4.172  -2.798  1.00  0.00     0.045 A 
HETATM   11  N   UNL     1       2.469  -2.998  -2.433  1.00  0.00    -0.233 NA
HETATM   12  C   UNL     1       3.807  -2.881  -2.578  1.00  0.00     0.160 A 
HETATM   13  N   UNL     1       4.597  -3.832  -3.101  1.00  0.00    -0.233 NA
HETATM   14  C   UNL     1       4.026  -4.999  -3.459  1.00  0.00     0.043 A 
HETATM   15  C   UNL     1       2.669  -5.215  -3.307  1.00  0.00     0.055 A 
BRANCH  12  16
HETATM   16  C   UNL     1       4.438  -1.626  -2.145  1.00  0.00     0.014 A 
HETATM   17  C   UNL     1       5.671  -1.212  -2.670  1.00  0.00     0.034 A 
HETATM   18  C   UNL     1       6.228  -0.019  -2.239  1.00  0.00     0.117 A 
HETATM   19  N   UNL     1       5.651   0.786  -1.325  1.00  0.00    -0.273 NA
HETATM   20  C   UNL     1       4.479   0.374  -0.805  1.00  0.00     0.117 A 
HETATM   21  C   UNL     1       3.843  -0.799  -1.181  1.00  0.00     0.034 A 
ENDBRANCH  12  16
BRANCH  14  22
HETATM   22  C   UNL     1       4.955  -6.056  -4.032  1.00  0.00     0.037 C 
BRANCH  22  23
HETATM   23  C   UNL     1       4.447  -6.658  -5.362  1.00  0.00     0.006 C 
HETATM   24  C   UNL     1       4.270  -5.624  -6.467  1.00  0.00     0.006 C 
ENDBRANCH  22  23
BRANCH  22  25
HETATM   25  C   UNL     1       5.221  -7.182  -3.010  1.00  0.00     0.006 C 
HETATM   26  C   UNL     1       5.974  -6.708  -1.773  1.00  0.00     0.006 C 
ENDBRANCH  22  25
ENDBRANCH  14  22
ENDBRANCH   1  10
BRANCH   4  27
HETATM   27  C   UNL     1      -0.090  -0.447  -2.796  1.00  0.00     0.157 C 
BRANCH  27  28
HETATM   28  N   UNL     1      -0.840   0.564  -2.047  1.00  0.00    -0.341 N 
HETATM   29  C   UNL     1      -1.472   0.288  -0.856  1.00  0.00     0.320 C 
HETATM   30  N   UNL     1      -1.848   1.423  -0.188  1.00  0.00    -0.309 N 
HETATM   31  O   UNL     1      -1.655  -0.871  -0.498  1.00  0.00    -0.247 OA
HETATM   32  H   UNL     1      -1.725   2.305  -0.666  1.00  0.00     0.170 HD
HETATM   33  H   UNL     1      -0.473   1.504  -2.120  1.00  0.00     0.164 HD
BRANCH  30  34
HETATM   34  C   UNL     1      -2.393   1.505   1.113  1.00  0.00     0.036 A 
HETATM   35  C   UNL     1      -2.665   0.397   1.916  1.00  0.00     0.032 A 
HETATM   36  C   UNL     1      -3.159   0.567   3.214  1.00  0.00     0.039 A 
HETATM   37  C   UNL     1      -3.374   1.842   3.735  1.00  0.00     0.068 A 
HETATM   38  C   UNL     1      -3.129   2.952   2.931  1.00  0.00     0.039 A 
HETATM   39  C   UNL     1      -2.644   2.783   1.627  1.00  0.00     0.032 A 
BRANCH  37  40
HETATM   40  O   UNL     1      -3.832   1.866   5.021  1.00  0.00    -0.356 OA
HETATM   41  C   UNL     1      -3.718   3.104   5.713  1.00  0.00     0.210 C 
ENDBRANCH  37  40
ENDBRANCH  30  34
ENDBRANCH  27  28
ENDBRANCH   4  27
TORSDOF 9
