REMARK  6 active torsions:
REMARK  status: ('A' for Active; 'I' for Inactive)
REMARK    1  A    between atoms: C_8  and  C_9 
REMARK       I    between atoms: C_9  and  N_10 
REMARK    2  A    between atoms: N_10  and  N_11 
REMARK       I    between atoms: N_11  and  C_12 
REMARK    3  A    between atoms: C_12  and  C_13 
REMARK    4  A    between atoms: C_13  and  C_14 
REMARK    5  A    between atoms: C_14  and  N_15 
REMARK    6  A    between atoms: C_28  and  O_29 
ROOT
HETATM    1  N   UNL     1       2.677  -3.740  -0.297  1.00  0.00    -0.267 N 
HETATM    2  C   UNL     1       2.999  -5.036   0.048  1.00  0.00     0.237 C 
HETATM    3  O   UNL     1       4.163  -5.413   0.171  1.00  0.00    -0.272 OA
HETATM    4  H   UNL     1       1.733  -3.357  -0.254  1.00  0.00     0.190 HD
ENDROOT
BRANCH   1   5
HETATM    5  N   UNL     1       3.726  -2.822  -0.417  1.00  0.00    -0.263 N 
HETATM    6  C   UNL     1       3.424  -1.477  -0.414  1.00  0.00     0.272 C 
HETATM    7  O   UNL     1       2.264  -1.062  -0.362  1.00  0.00    -0.266 OA
HETATM    8  H   UNL     1       4.656  -3.202  -0.252  1.00  0.00     0.190 HD
BRANCH   6   9
HETATM    9  C   UNL     1       4.559  -0.509  -0.440  1.00  0.00     0.067 A 
HETATM   10  C   UNL     1       5.863  -0.907  -0.773  1.00  0.00     0.032 A 
HETATM   11  C   UNL     1       6.924   0.018  -0.783  1.00  0.00    -0.025 A 
HETATM   12  C   UNL     1       8.233  -0.375  -1.104  1.00  0.00     0.012 A 
HETATM   13  C   UNL     1       6.669   1.372  -0.465  1.00  0.00    -0.023 A 
HETATM   14  C   UNL     1       9.276   0.552  -1.111  1.00  0.00     0.001 A 
HETATM   15  C   UNL     1       9.025   1.885  -0.798  1.00  0.00     0.001 A 
HETATM   16  C   UNL     1       7.729   2.293  -0.477  1.00  0.00     0.012 A 
HETATM   17  C   UNL     1       5.362   1.768  -0.150  1.00  0.00     0.049 A 
HETATM   18  C   UNL     1       4.321   0.840  -0.144  1.00  0.00     0.082 A 
BRANCH  18  19
HETATM   19  O   UNL     1       3.081   1.338   0.164  1.00  0.00    -0.360 OA
HETATM   20  H   UNL     1       2.423   0.618   0.039  1.00  0.00     0.217 HD
ENDBRANCH  18  19
ENDBRANCH   6   9
ENDBRANCH   1   5
BRANCH   2  21
HETATM   21  C   UNL     1       1.797  -5.927   0.243  1.00  0.00     0.125 C 
BRANCH  21  22
HETATM   22  C   UNL     1       2.235  -7.338   0.619  1.00  0.00     0.145 C 
BRANCH  22  23
HETATM   23  N   UNL     1       1.103  -8.224   0.812  1.00  0.00    -0.279 N 
HETATM   24  C   UNL     1       0.412  -8.338   1.987  1.00  0.00     0.261 A 
HETATM   25  O   UNL     1       0.582  -7.746   3.035  1.00  0.00    -0.267 OA
HETATM   26  C   UNL     1      -0.637  -9.329   1.757  1.00  0.00     0.048 A 
HETATM   27  C   UNL     1      -0.548  -9.734   0.437  1.00  0.00     0.048 A 
HETATM   28  C   UNL     1      -1.591  -9.840   2.616  1.00  0.00     0.018 A 
HETATM   29  C   UNL     1       0.557  -8.999  -0.176  1.00  0.00     0.261 A 
HETATM   30  C   UNL     1      -1.406 -10.673  -0.100  1.00  0.00     0.018 A 
HETATM   31  O   UNL     1       0.873  -9.084  -1.346  1.00  0.00    -0.267 OA
HETATM   32  C   UNL     1      -2.379 -11.209   0.751  1.00  0.00     0.001 A 
HETATM   33  C   UNL     1      -2.471 -10.795   2.097  1.00  0.00     0.001 A 
ENDBRANCH  22  23
ENDBRANCH  21  22
ENDBRANCH   2  21
TORSDOF 6
