REMARK  10 active torsions:
REMARK  status: ('A' for Active; 'I' for Inactive)
REMARK    1  A    between atoms: C_2  and  O_3 
REMARK    2  A    between atoms: O_3  and  C_4 
REMARK    3  A    between atoms: C_4  and  C_5 
REMARK    4  A    between atoms: C_6  and  C_7 
REMARK    5  A    between atoms: C_7  and  O_8 
REMARK    6  A    between atoms: O_8  and  C_9 
REMARK    7  A    between atoms: C_9  and  C_10 
REMARK       I    between atoms: C_10  and  N_11 
REMARK    8  A    between atoms: N_11  and  C_12 
REMARK    9  A    between atoms: C_12  and  C_13 
REMARK       I    between atoms: C_13  and  N_14 
REMARK   10  A    between atoms: N_14  and  C_15 
ROOT
HETATM    1  C   UNL     1       5.487   3.949  -4.403  1.00  0.00     0.281 C 
ENDROOT
BRANCH   1   2
HETATM    2  O   UNL     1       5.009   3.553  -3.125  1.00  0.00    -0.307 OA
BRANCH   2   3
HETATM    3  C   UNL     1       5.210   4.474  -2.138  1.00  0.00     0.318 C 
HETATM    4  O   UNL     1       5.753   5.562  -2.318  1.00  0.00    -0.257 OA
BRANCH   3   5
HETATM    5  C   UNL     1       4.769   3.941  -0.867  1.00  0.00     0.160 A 
HETATM    6  C   UNL     1       4.506   4.566   0.346  1.00  0.00     0.018 A 
HETATM    7  C   UNL     1       4.169   3.526   1.267  1.00  0.00     0.009 A 
HETATM    8  C   UNL     1       4.226   2.342   0.545  1.00  0.00     0.087 A 
HETATM    9  C   UNL     1       3.815   3.457   2.629  1.00  0.00     0.015 A 
HETATM   10  O   UNL     1       4.586   2.588  -0.740  1.00  0.00    -0.303 OA
HETATM   11  C   UNL     1       3.954   1.083   1.076  1.00  0.00     0.038 A 
HETATM   12  C   UNL     1       3.608   1.037   2.430  1.00  0.00     0.003 A 
HETATM   13  C   UNL     1       3.541   2.203   3.196  1.00  0.00     0.001 A 
BRANCH   6  14
HETATM   14  C   UNL     1       4.534   6.028   0.611  1.00  0.00     0.210 C 
BRANCH  14  15
HETATM   15  O   UNL     1       3.585   6.690  -0.221  1.00  0.00    -0.387 OA
BRANCH  15  16
HETATM   16  C   UNL     1       3.243   7.982   0.267  1.00  0.00     0.163 C 
HETATM   17  C   UNL     1       2.416   8.691  -0.787  1.00  0.00     0.033 C 
ENDBRANCH  15  16
ENDBRANCH  14  15
ENDBRANCH   6  14
ENDBRANCH   3   5
ENDBRANCH   2   3
ENDBRANCH   1   2
BRANCH   1  18
HETATM   18  C   UNL     1       4.806   5.189  -4.993  1.00  0.00     0.242 C 
HETATM   19  N   UNL     1       5.674   6.111  -5.542  1.00  0.00    -0.350 N 
HETATM   20  H   UNL     1       6.674   6.003  -5.430  1.00  0.00     0.163 HD
HETATM   21  O   UNL     1       3.590   5.345  -4.977  1.00  0.00    -0.271 OA
BRANCH  19  22
HETATM   22  C   UNL     1       5.178   7.293  -6.229  1.00  0.00     0.225 C 
BRANCH  22  23
HETATM   23  C   UNL     1       5.042   8.566  -5.382  1.00  0.00     0.239 C 
HETATM   24  N   UNL     1       5.749   8.524  -4.191  1.00  0.00    -0.325 N 
HETATM   25  H   UNL     1       5.821   7.588  -3.798  1.00  0.00     0.169 HD
HETATM   26  O   UNL     1       4.424   9.529  -5.829  1.00  0.00    -0.271 OA
BRANCH  24  27
HETATM   27  C   UNL     1       5.949   9.591  -3.280  1.00  0.00     0.041 C 
HETATM   28  C   UNL     1       6.062  10.961  -3.606  1.00  0.00    -0.029 C 
HETATM   29  C   UNL     1       6.214  11.456  -5.023  1.00  0.00     0.051 C 
HETATM   30  C   UNL     1       6.092  11.920  -2.557  1.00  0.00    -0.054 C 
HETATM   31  C   UNL     1       6.091  13.403  -2.831  1.00  0.00     0.049 C 
HETATM   32  C   UNL     1       6.175  11.496  -1.224  1.00  0.00     0.007 C 
HETATM   33  C   UNL     1       6.198  10.144  -0.918  1.00  0.00     0.003 C 
HETATM   34  C   UNL     1       6.074   9.202  -1.936  1.00  0.00     0.030 C 
ENDBRANCH  24  27
ENDBRANCH  22  23
ENDBRANCH  19  22
ENDBRANCH   1  18
TORSDOF 10
