REMARK  3 active torsions:
REMARK  status: ('A' for Active; 'I' for Inactive)
REMARK    1  A    between atoms: C_8  and  C_9 
REMARK    2  A    between atoms: C_14  and  C_15 
REMARK    3  A    between atoms: C_17  and  O_18 
ROOT
HETATM    1  C   UNL     1       2.736  -2.357   0.013  1.00  0.00     0.143 A 
HETATM    2  N   UNL     1       3.444  -3.374  -0.422  1.00  0.00    -0.223 NA
HETATM    3  C   UNL     1       2.748  -4.529  -0.097  1.00  0.00     0.149 A 
HETATM    4  C   UNL     1       1.563  -4.185   0.539  1.00  0.00     0.046 A 
HETATM    5  C   UNL     1       0.425  -4.940   1.137  1.00  0.00     0.070 C 
HETATM    6  C   UNL     1       0.523  -6.476   1.146  1.00  0.00     0.042 C 
HETATM    7  C   UNL     1       1.950  -6.988   1.395  1.00  0.00     0.132 C 
HETATM    8  N   UNL     1       2.810  -6.952   0.234  1.00  0.00    -0.355 N 
HETATM    9  C   UNL     1       3.281  -5.853  -0.436  1.00  0.00     0.272 C 
HETATM   10  O   UNL     1       4.141  -6.026  -1.299  1.00  0.00    -0.266 OA
HETATM   11  N   UNL     1       1.574  -2.807   0.572  1.00  0.00    -0.341 N 
HETATM   12  H   UNL     1       0.858  -2.220   0.971  1.00  0.00     0.167 HD
HETATM   13  H   UNL     1       3.243  -7.811  -0.082  1.00  0.00     0.162 HD
ENDROOT
BRANCH   1  14
HETATM   14  C   UNL     1       3.169  -0.937  -0.085  1.00  0.00     0.059 A 
HETATM   15  C   UNL     1       2.492   0.192   0.337  1.00  0.00     0.040 A 
HETATM   16  C   UNL     1       1.182   0.424   0.984  1.00  0.00     0.071 C 
HETATM   17  N   UNL     1       3.323   1.238   0.030  1.00  0.00    -0.281 N 
HETATM   18  H   UNL     1       3.167   2.228   0.190  1.00  0.00     0.189 HD
HETATM   19  N   UNL     1       4.473   0.876  -0.549  1.00  0.00    -0.179 NA
HETATM   20  C   UNL     1       4.391  -0.460  -0.627  1.00  0.00     0.067 A 
HETATM   21  C   UNL     1       5.506  -1.242  -1.220  1.00  0.00     0.073 C 
ENDBRANCH   1  14
BRANCH   6  22
HETATM   22  C   UNL     1      -0.159  -7.200  -0.011  1.00  0.00    -0.049 A 
HETATM   23  C   UNL     1      -0.749  -8.459   0.230  1.00  0.00     0.044 A 
HETATM   24  C   UNL     1      -1.371  -9.175  -0.795  1.00  0.00     0.068 A 
HETATM   25  C   UNL     1      -1.407  -8.631  -2.078  1.00  0.00     0.037 A 
HETATM   26  C   UNL     1      -0.822  -7.392  -2.338  1.00  0.00     0.003 A 
HETATM   27  C   UNL     1      -0.199  -6.681  -1.312  1.00  0.00     0.007 A 
BRANCH  24  28
HETATM   28  O   UNL     1      -1.972 -10.398  -0.674  1.00  0.00    -0.356 OA
HETATM   29  C   UNL     1      -1.892 -11.034   0.595  1.00  0.00     0.210 C 
ENDBRANCH  24  28
ENDBRANCH   6  22
TORSDOF 3
