REMARK  3 active torsions:
REMARK  status: ('A' for Active; 'I' for Inactive)
REMARK    1  A    between atoms: C_4  and  C_5 
REMARK    2  A    between atoms: C_5  and  N_6 
REMARK    3  A    between atoms: C_16  and  C_17 
ROOT
HETATM    1  N   UNL     1       6.921   1.083  -0.541  1.00  0.00    -0.065 N 
HETATM    2  H   UNL     1       6.565   0.109  -0.512  1.00  0.00     0.280 HD
HETATM    3  C   UNL     1       7.138   1.518   0.877  1.00  0.00     0.238 C 
HETATM    4  C   UNL     1       8.492   1.022   1.350  1.00  0.00     0.077 C 
HETATM    5  C   UNL     1       9.664   1.669   0.550  1.00  0.00     0.218 C 
HETATM    6  N   UNL     1      10.770   0.670   0.464  1.00  0.00     0.102 N 
HETATM    7  C   UNL     1      11.367   0.398   1.796  1.00  0.00     0.291 C 
HETATM    8  C   UNL     1      11.799   1.624   2.651  1.00  0.00     0.160 C 
HETATM    9  N   UNL     1      11.082   2.877   2.313  1.00  0.00    -0.331 N 
HETATM   10  C   UNL     1      10.195   2.925   1.298  1.00  0.00     0.123 A 
HETATM   11  C   UNL     1      11.296   4.171   2.848  1.00  0.00     0.061 A 
HETATM   12  C   UNL     1      10.580   4.995   1.999  1.00  0.00     0.120 A 
HETATM   13  N   UNL     1       9.923   4.212   1.080  1.00  0.00    -0.351 N 
HETATM   14  H   UNL     1       9.354   4.598   0.332  1.00  0.00     0.166 HD
HETATM   15  C   UNL     1       9.204   1.989  -0.897  1.00  0.00     0.077 C 
HETATM   16  C   UNL     1       8.163   0.998  -1.402  1.00  0.00     0.238 C 
HETATM   17  H   UNL     1      11.521   1.021  -0.141  1.00  0.00     0.317 HD
ENDROOT
BRANCH   1  18
HETATM   18  C   UNL     1       5.748   1.802  -1.202  1.00  0.00     0.299 C 
BRANCH  18  19
HETATM   19  C   UNL     1       5.068   0.961  -2.214  1.00  0.00     0.079 A 
HETATM   20  O   UNL     1       5.370  -0.372  -2.190  1.00  0.00    -0.318 OA
HETATM   21  C   UNL     1       4.628  -0.963  -3.169  1.00  0.00     0.049 A 
HETATM   22  C   UNL     1       4.775  -2.425  -3.336  1.00  0.00     0.076 C 
HETATM   23  C   UNL     1       3.855  -0.020  -3.812  1.00  0.00     0.035 A 
HETATM   24  C   UNL     1       4.139   1.222  -3.196  1.00  0.00     0.037 A 
ENDBRANCH  18  19
ENDBRANCH   1  18
BRANCH  11  25
HETATM   25  C   UNL     1      12.086   4.651   4.042  1.00  0.00    -0.008 A 
HETATM   26  C   UNL     1      12.582   3.770   5.005  1.00  0.00     0.014 A 
HETATM   27  C   UNL     1      13.261   4.254   6.130  1.00  0.00     0.001 A 
HETATM   28  C   UNL     1      13.452   5.620   6.304  1.00  0.00     0.000 A 
HETATM   29  C   UNL     1      12.969   6.509   5.351  1.00  0.00     0.001 A 
HETATM   30  C   UNL     1      12.289   6.030   4.227  1.00  0.00     0.014 A 
ENDBRANCH  11  25
TORSDOF 3
