REMARK  5 active torsions:
REMARK  status: ('A' for Active; 'I' for Inactive)
REMARK    1  A    between atoms: N_3  and  C_4 
REMARK    2  A    between atoms: C_7  and  C_8 
REMARK       I    between atoms: C_8  and  N_9 
REMARK    3  A    between atoms: N_9  and  C_10 
REMARK    4  A    between atoms: C_11  and  N_12 
REMARK    5  A    between atoms: C_15  and  O_16 
ROOT
HETATM    1  C   UNL     1       0.912   6.955   0.089  1.00  0.00     0.256 C 
HETATM    2  N   UNL     1      -0.287   6.487  -0.386  1.00  0.00    -0.321 N 
HETATM    3  O   UNL     1       2.042   6.709  -0.306  1.00  0.00    -0.267 OA
HETATM    4  H   UNL     1      -1.150   6.806   0.048  1.00  0.00     0.169 HD
ENDROOT
BRANCH   2   5
HETATM    5  C   UNL     1      -0.528   5.616  -1.468  1.00  0.00     0.056 A 
HETATM    6  C   UNL     1      -1.890   5.283  -1.699  1.00  0.00     0.037 A 
HETATM    7  C   UNL     1      -2.199   4.450  -2.783  1.00  0.00     0.026 A 
HETATM    8  C   UNL     1      -1.189   3.958  -3.615  1.00  0.00     0.002 A 
HETATM    9  C   UNL     1       0.142   4.288  -3.371  1.00  0.00     0.002 A 
HETATM   10  C   UNL     1       0.475   5.115  -2.297  1.00  0.00     0.031 A 
BRANCH   6  11
HETATM   11  N   UNL     1      -2.872   5.781  -0.794  1.00  0.00    -0.281 NA
HETATM   12  C   UNL     1      -3.041   4.853   0.343  1.00  0.00     0.098 C 
HETATM   13  C   UNL     1      -3.842   5.564   1.435  1.00  0.00     0.046 C 
HETATM   14  C   UNL     1      -5.177   6.082   0.902  1.00  0.00     0.120 C 
HETATM   15  C   UNL     1      -4.999   6.901  -0.376  1.00  0.00     0.046 C 
HETATM   16  C   UNL     1      -4.162   6.146  -1.408  1.00  0.00     0.098 C 
BRANCH  14  17
HETATM   17  O   UNL     1      -6.051   4.985   0.636  1.00  0.00    -0.395 OA
HETATM   18  H   UNL     1      -6.264   4.567   1.488  1.00  0.00     0.210 HD
ENDBRANCH  14  17
ENDBRANCH   6  11
ENDBRANCH   2   5
BRANCH   1  19
HETATM   19  C   UNL     1       0.745   7.884   1.222  1.00  0.00     0.032 A 
HETATM   20  C   UNL     1       0.763   9.257   0.981  1.00  0.00     0.019 A 
HETATM   21  C   UNL     1       0.560  10.142   2.041  1.00  0.00     0.031 A 
HETATM   22  C   UNL     1       0.341   9.655   3.340  1.00  0.00     0.039 A 
HETATM   23  C   UNL     1       0.338   8.271   3.570  1.00  0.00     0.031 A 
HETATM   24  C   UNL     1       0.538   7.383   2.509  1.00  0.00     0.019 A 
BRANCH  22  25
HETATM   25  N   UNL     1       0.127  10.572   4.414  1.00  0.00    -0.320 N 
HETATM   26  C   UNL     1      -0.664  11.723   4.364  1.00  0.00     0.013 A 
HETATM   27  C   UNL     1      -1.541  12.109   3.220  1.00  0.00     0.068 C 
HETATM   28  C   UNL     1      -0.560  12.376   5.576  1.00  0.00     0.027 A 
HETATM   29  C   UNL     1       0.258  11.601   6.412  1.00  0.00     0.027 A 
HETATM   30  C   UNL     1       0.669  10.491   5.698  1.00  0.00     0.013 A 
HETATM   31  C   UNL     1       1.617   9.440   6.168  1.00  0.00     0.068 C 
ENDBRANCH  22  25
ENDBRANCH   1  19
TORSDOF 5
