REMARK  8 active torsions:
REMARK  status: ('A' for Active; 'I' for Inactive)
REMARK    1  A    between atoms: C_4  and  N_5 
REMARK       I    between atoms: N_5  and  C_6 
REMARK    2  A    between atoms: C_6  and  C_7 
REMARK    3  A    between atoms: C_7  and  N_8 
REMARK    4  A    between atoms: C_7  and  C_24 
REMARK    5  A    between atoms: N_8  and  C_11 
REMARK    6  A    between atoms: C_11  and  C_12 
REMARK    7  A    between atoms: C_15  and  N_16 
REMARK    8  A    between atoms: C_31  and  O_32 
ROOT
HETATM    1  C   UNL     1       3.330   3.686  -0.020  1.00  0.00     0.310 C 
ENDROOT
BRANCH   1   2
HETATM    2  C   UNL     1       2.513   4.630   0.896  1.00  0.00     0.257 C 
HETATM    3  N   UNL     1       2.310   4.376   2.218  1.00  0.00    -0.323 N 
HETATM    4  H   UNL     1       1.513   4.871   2.617  1.00  0.00     0.169 HD
HETATM    5  O   UNL     1       1.999   5.634   0.381  1.00  0.00    -0.270 OA
BRANCH   3   6
HETATM    6  C   UNL     1       2.845   3.383   3.066  1.00  0.00     0.069 A 
HETATM    7  C   UNL     1       4.165   2.930   2.976  1.00  0.00     0.039 A 
HETATM    8  C   UNL     1       4.638   1.936   3.843  1.00  0.00    -0.060 A 
HETATM    9  C   UNL     1       6.045   1.426   3.722  1.00  0.00     0.048 C 
HETATM   10  C   UNL     1       3.772   1.397   4.798  1.00  0.00     0.009 A 
HETATM   11  C   UNL     1       2.466   1.876   4.926  1.00  0.00     0.039 A 
HETATM   12  C   UNL     1       1.999   2.877   4.073  1.00  0.00     0.095 A 
BRANCH  12  13
HETATM   13  O   UNL     1       0.733   3.411   4.100  1.00  0.00    -0.354 OA
HETATM   14  C   UNL     1      -0.181   2.855   5.041  1.00  0.00     0.210 C 
ENDBRANCH  12  13
ENDBRANCH   3   6
ENDBRANCH   1   2
BRANCH   1  15
HETATM   15  N   UNL     1       3.385   4.266  -1.432  1.00  0.00    -0.054 N 
HETATM   16  H   UNL     1       3.412   5.291  -1.321  1.00  0.00     0.278 HD
HETATM   17  H   UNL     1       4.258   3.989  -1.888  1.00  0.00     0.278 HD
BRANCH  15  18
HETATM   18  C   UNL     1       2.239   3.982  -2.341  1.00  0.00     0.272 C 
BRANCH  18  19
HETATM   19  C   UNL     1       2.465   4.612  -3.687  1.00  0.00    -0.033 A 
HETATM   20  C   UNL     1       3.467   4.124  -4.533  1.00  0.00     0.011 A 
HETATM   21  C   UNL     1       3.708   4.722  -5.774  1.00  0.00     0.030 A 
HETATM   22  C   UNL     1       2.948   5.809  -6.219  1.00  0.00     0.037 A 
HETATM   23  C   UNL     1       1.932   6.279  -5.375  1.00  0.00     0.030 A 
HETATM   24  C   UNL     1       1.698   5.698  -4.120  1.00  0.00     0.011 A 
BRANCH  22  25
HETATM   25  N   UNL     1       3.184   6.406  -7.484  1.00  0.00    -0.318 N 
HETATM   26  C   UNL     1       4.338   6.246  -8.271  1.00  0.00     0.224 C 
HETATM   27  O   UNL     1       5.343   5.595  -8.033  1.00  0.00    -0.273 OA
HETATM   28  C   UNL     1       4.187   7.124  -9.492  1.00  0.00     0.105 C 
HETATM   29  C   UNL     1       2.696   7.395  -9.538  1.00  0.00     0.029 C 
HETATM   30  C   UNL     1       2.292   7.374  -8.079  1.00  0.00     0.133 C 
ENDBRANCH  22  25
ENDBRANCH  18  19
ENDBRANCH  15  18
ENDBRANCH   1  15
BRANCH   1  31
HETATM   31  C   UNL     1       2.891   2.234  -0.027  1.00  0.00    -0.019 A 
HETATM   32  C   UNL     1       3.835   1.225  -0.287  1.00  0.00     0.010 A 
HETATM   33  C   UNL     1       3.445  -0.115  -0.337  1.00  0.00     0.001 A 
HETATM   34  C   UNL     1       2.112  -0.465  -0.137  1.00  0.00     0.000 A 
HETATM   35  C   UNL     1       1.163   0.522   0.112  1.00  0.00     0.001 A 
HETATM   36  C   UNL     1       1.546   1.863   0.162  1.00  0.00     0.010 A 
ENDBRANCH   1  31
TORSDOF 8
