REMARK  7 active torsions:
REMARK  status: ('A' for Active; 'I' for Inactive)
REMARK    1  A    between atoms: C_2  and  C_3 
REMARK    2  A    between atoms: C_3  and  O_4 
REMARK    3  A    between atoms: O_4  and  C_5 
REMARK    4  A    between atoms: C_8  and  C_9 
REMARK    5  A    between atoms: C_15  and  C_16 
REMARK    6  A    between atoms: C_19  and  N_20 
REMARK       I    between atoms: N_20  and  C_21 
REMARK    7  A    between atoms: C_29  and  N_30 
ROOT
HETATM    1  C   UNL     1       6.455   0.765  -6.516  1.00  0.00     0.072 A 
HETATM    2  N   UNL     1       6.473   1.913  -7.281  1.00  0.00    -0.274 N 
HETATM    3  H   UNL     1       6.205   2.849  -6.995  1.00  0.00     0.189 HD
HETATM    4  N   UNL     1       6.859   1.719  -8.562  1.00  0.00    -0.148 NA
HETATM    5  C   UNL     1       7.089   0.413  -8.593  1.00  0.00     0.199 A 
HETATM    6  C   UNL     1       6.905  -0.229  -7.366  1.00  0.00     0.039 A 
HETATM    7  C   UNL     1       7.162  -1.685  -7.227  1.00  0.00     0.105 C 
HETATM    8  C   UNL     1       7.334  -2.321  -8.597  1.00  0.00     0.067 C 
HETATM    9  C   UNL     1       7.181  -3.833  -8.642  1.00  0.00     0.020 C 
HETATM   10  N   UNL     1       7.053  -5.087  -8.679  1.00  0.00    -0.096 N 
HETATM   11  C   UNL     1       7.461  -1.604  -9.743  1.00  0.00     0.139 C 
HETATM   12  O   UNL     1       7.444  -0.199  -9.740  1.00  0.00    -0.277 OA
ENDROOT
BRANCH   7  13
HETATM   13  C   UNL     1       8.402  -1.795  -6.350  1.00  0.00    -0.044 A 
HETATM   14  C   UNL     1       8.296  -2.332  -5.058  1.00  0.00     0.010 A 
HETATM   15  C   UNL     1       9.411  -2.415  -4.214  1.00  0.00     0.030 A 
HETATM   16  C   UNL     1      10.660  -1.964  -4.640  1.00  0.00     0.034 A 
HETATM   17  C   UNL     1      10.778  -1.438  -5.931  1.00  0.00     0.030 A 
HETATM   18  C   UNL     1       9.667  -1.355  -6.776  1.00  0.00     0.010 A 
BRANCH  16  19
HETATM   19  N   UNL     1      11.825  -1.990  -3.847  1.00  0.00    -0.328 N 
HETATM   20  C   UNL     1      11.953  -2.458  -2.552  1.00  0.00     0.218 C 
HETATM   21  C   UNL     1      13.358  -2.291  -2.030  1.00  0.00     0.117 C 
HETATM   22  O   UNL     1      11.082  -2.974  -1.861  1.00  0.00    -0.274 OA
HETATM   23  H   UNL     1      12.661  -1.620  -4.279  1.00  0.00     0.169 HD
ENDBRANCH  16  19
ENDBRANCH   7  13
BRANCH  11  24
HETATM   24  N   UNL     1       7.594  -2.141 -11.003  1.00  0.00    -0.282 NA
HETATM   25  H   UNL     1       8.010  -3.067 -11.052  1.00  0.00     0.126 HD
HETATM   26  H   UNL     1       8.002  -1.479 -11.661  1.00  0.00     0.126 HD
ENDBRANCH  11  24
BRANCH   1  27
HETATM   27  C   UNL     1       6.023   0.726  -5.127  1.00  0.00    -0.007 A 
HETATM   28  C   UNL     1       5.077  -0.221  -4.713  1.00  0.00     0.016 A 
HETATM   29  C   UNL     1       4.685  -0.305  -3.373  1.00  0.00     0.037 A 
HETATM   30  C   UNL     1       5.234   0.561  -2.429  1.00  0.00     0.068 A 
HETATM   31  C   UNL     1       6.154   1.526  -2.843  1.00  0.00     0.037 A 
HETATM   32  C   UNL     1       6.553   1.608  -4.181  1.00  0.00     0.016 A 
BRANCH  30  33
HETATM   33  O   UNL     1       4.943   0.571  -1.093  1.00  0.00    -0.351 OA
BRANCH  33  34
HETATM   34  C   UNL     1       4.303  -0.597  -0.573  1.00  0.00     0.175 C 
BRANCH  34  35
HETATM   35  C   UNL     1       4.276  -0.482   0.948  1.00  0.00     0.022 C 
HETATM   36  C   UNL     1       3.642  -1.702   1.593  1.00  0.00     0.007 C 
ENDBRANCH  34  35
ENDBRANCH  33  34
ENDBRANCH  30  33
ENDBRANCH   1  27
TORSDOF 7
