REMARK  3 active torsions:
REMARK  status: ('A' for Active; 'I' for Inactive)
REMARK    1  A    between atoms: C_5  and  C_6 
REMARK    2  A    between atoms: C_8  and  N_9 
REMARK       I    between atoms: N_9  and  C_10 
REMARK    3  A    between atoms: C_10  and  C_11 
ROOT
HETATM    1  C   UNL     1       5.652  -1.521   0.063  1.00  0.00     0.010 A 
HETATM    2  C   UNL     1       6.860  -0.829  -0.085  1.00  0.00     0.044 A 
HETATM    3  C   UNL     1       8.063  -1.518  -0.244  1.00  0.00     0.035 A 
HETATM    4  C   UNL     1       8.043  -2.917  -0.235  1.00  0.00     0.029 A 
HETATM    5  C   UNL     1       6.841  -3.612  -0.073  1.00  0.00     0.003 A 
HETATM    6  C   UNL     1       5.641  -2.917   0.071  1.00  0.00     0.015 A 
ENDROOT
BRANCH   3   7
HETATM    7  N   UNL     1       9.306  -0.884  -0.449  1.00  0.00    -0.323 N 
HETATM    8  C   UNL     1       9.567   0.470  -0.493  1.00  0.00     0.259 C 
HETATM    9  O   UNL     1       8.735   1.344  -0.247  1.00  0.00    -0.267 OA
HETATM   10  H   UNL     1      10.089  -1.504  -0.641  1.00  0.00     0.169 HD
BRANCH   8  11
HETATM   11  C   UNL     1      10.982   0.848  -0.842  1.00  0.00     0.070 A 
HETATM   12  C   UNL     1      12.000   0.009  -1.577  1.00  0.00     0.116 A 
HETATM   13  S   UNL     1      11.812  -1.557  -2.157  1.00  0.00    -0.059 SA
HETATM   14  N   UNL     1      13.229   0.602  -1.804  1.00  0.00    -0.356 N 
HETATM   15  C   UNL     1      13.560   1.871  -1.410  1.00  0.00     0.089 A 
HETATM   16  H   UNL     1      13.920   0.051  -2.306  1.00  0.00     0.166 HD
HETATM   17  C   UNL     1      12.669   2.622  -0.758  1.00  0.00     0.018 A 
HETATM   18  C   UNL     1      11.356   2.093  -0.477  1.00  0.00     0.022 A 
ENDBRANCH   8  11
ENDBRANCH   3   7
BRANCH   1  19
HETATM   19  C   UNL     1       4.377  -0.743   0.182  1.00  0.00     0.116 A 
HETATM   20  N   UNL     1       3.125  -1.220   0.234  1.00  0.00    -0.344 N 
HETATM   21  C   UNL     1       2.183  -0.203   0.297  1.00  0.00     0.029 A 
HETATM   22  H   UNL     1       2.899  -2.208   0.199  1.00  0.00     0.167 HD
HETATM   23  C   UNL     1       0.731  -0.452   0.325  1.00  0.00     0.070 C 
HETATM   24  C   UNL     1       2.908   0.972   0.320  1.00  0.00     0.029 A 
HETATM   25  N   UNL     1       4.236   0.589   0.248  1.00  0.00    -0.344 N 
HETATM   26  C   UNL     1       2.483   2.381   0.388  1.00  0.00     0.070 C 
HETATM   27  H   UNL     1       5.020   1.237   0.243  1.00  0.00     0.167 HD
ENDBRANCH   1  19
TORSDOF 3
