REMARK  4 active torsions:
REMARK  status: ('A' for Active; 'I' for Inactive)
REMARK    1  A    between atoms: C_5  and  C_6 
REMARK    2  A    between atoms: C_6  and  N_7 
REMARK    3  A    between atoms: C_17  and  C_18 
REMARK    4  A    between atoms: C_27  and  C_28 
ROOT
HETATM    1  N   UNL     1       6.752  -1.136  -0.194  1.00  0.00    -0.067 N 
HETATM    2  H   UNL     1       6.698  -0.237  -0.695  1.00  0.00     0.280 HD
HETATM    3  C   UNL     1       7.108  -0.824   1.232  1.00  0.00     0.236 C 
HETATM    4  C   UNL     1       7.457  -2.088   2.019  1.00  0.00     0.039 C 
HETATM    5  C   UNL     1       8.531  -2.998   1.361  1.00  0.00    -0.013 C 
HETATM    6  C   UNL     1       9.966  -2.407   1.462  1.00  0.00     0.244 C 
HETATM    7  N   UNL     1      10.493  -2.416   2.877  1.00  0.00    -0.073 N 
HETATM    8  H   UNL     1       9.910  -1.826   3.485  1.00  0.00     0.279 HD
HETATM    9  C   UNL     1      11.882  -1.810   2.958  1.00  0.00     0.269 C 
HETATM   10  C   UNL     1      10.499  -3.806   3.499  1.00  0.00     0.243 C 
HETATM   11  C   UNL     1       9.077  -4.377   3.480  1.00  0.00     0.045 C 
HETATM   12  C   UNL     1       8.525  -4.398   2.043  1.00  0.00     0.022 C 
HETATM   13  C   UNL     1       8.146  -3.203  -0.135  1.00  0.00     0.039 C 
HETATM   14  C   UNL     1       7.830  -1.916  -0.896  1.00  0.00     0.236 C 
ENDROOT
BRANCH  11  15
HETATM   15  C   UNL     1       9.031  -5.741   4.135  1.00  0.00    -0.052 A 
HETATM   16  C   UNL     1       8.305  -5.912   5.326  1.00  0.00     0.007 A 
HETATM   17  C   UNL     1       8.262  -7.152   5.963  1.00  0.00     0.001 A 
HETATM   18  C   UNL     1       8.941  -8.239   5.422  1.00  0.00     0.000 A 
HETATM   19  C   UNL     1       9.663  -8.088   4.241  1.00  0.00     0.001 A 
HETATM   20  C   UNL     1       9.709  -6.848   3.600  1.00  0.00     0.007 A 
ENDBRANCH  11  15
BRANCH   1  21
HETATM   21  C   UNL     1       5.353  -1.723  -0.409  1.00  0.00     0.277 C 
BRANCH  21  22
HETATM   22  C   UNL     1       4.195  -0.840  -0.109  1.00  0.00     0.011 A 
HETATM   23  C   UNL     1       4.224   0.547   0.187  1.00  0.00     0.149 A 
HETATM   24  N   UNL     1       3.031   1.050   0.469  1.00  0.00    -0.185 NA
HETATM   25  N   UNL     1       2.192   0.019   0.293  1.00  0.00    -0.278 N 
HETATM   26  C   UNL     1       0.772   0.223   0.483  1.00  0.00     0.179 C 
HETATM   27  C   UNL     1       2.835  -1.137  -0.093  1.00  0.00     0.043 A 
BRANCH  27  28
HETATM   28  C   UNL     1       2.082  -2.421  -0.445  1.00  0.00     0.038 A 
HETATM   29  C   UNL     1       2.548  -3.251  -1.622  1.00  0.00     0.011 A 
HETATM   30  C   UNL     1       2.675  -3.793  -0.239  1.00  0.00     0.011 A 
ENDBRANCH  27  28
ENDBRANCH  21  22
ENDBRANCH   1  21
TORSDOF 4
