REMARK  6 active torsions:
REMARK  status: ('A' for Active; 'I' for Inactive)
REMARK    1  A    between atoms: C_2  and  C_3 
REMARK    2  A    between atoms: C_3  and  C_4 
REMARK       I    between atoms: C_4  and  N_5 
REMARK    3  A    between atoms: N_5  and  C_6 
REMARK    4  A    between atoms: C_8  and  C_9 
REMARK    5  A    between atoms: C_9  and  N_10 
REMARK       I    between atoms: N_10  and  C_11 
REMARK    6  A    between atoms: C_11  and  C_12 
ROOT
HETATM    1  C   UNL     1       7.145   4.925   1.398  1.00  0.00     0.161 C 
ENDROOT
BRANCH   1   2
HETATM    2  C   UNL     1       6.694   3.581   1.901  1.00  0.00    -0.038 A 
HETATM    3  C   UNL     1       5.379   3.399   2.360  1.00  0.00     0.038 A 
HETATM    4  C   UNL     1       4.915   2.132   2.726  1.00  0.00     0.035 A 
HETATM    5  C   UNL     1       5.787   1.041   2.648  1.00  0.00     0.029 A 
HETATM    6  C   UNL     1       7.110   1.218   2.238  1.00  0.00     0.003 A 
HETATM    7  C   UNL     1       7.562   2.482   1.865  1.00  0.00     0.009 A 
BRANCH   4   8
HETATM    8  N   UNL     1       3.581   1.876   3.108  1.00  0.00    -0.327 N 
HETATM    9  C   UNL     1       2.654   2.806   3.543  1.00  0.00     0.226 C 
HETATM   10  O   UNL     1       2.917   3.979   3.803  1.00  0.00    -0.273 OA
HETATM   11  H   UNL     1       3.334   0.901   3.178  1.00  0.00     0.169 HD
BRANCH   9  12
HETATM   12  C   UNL     1       1.196   2.304   3.582  1.00  0.00     0.074 C 
HETATM   13  C   UNL     1       0.352   3.219   4.478  1.00  0.00     0.020 C 
BRANCH  12  14
HETATM   14  C   UNL     1       0.973   0.825   3.941  1.00  0.00     0.009 C 
HETATM   15  C   UNL     1       1.445   0.423   5.330  1.00  0.00     0.006 C 
ENDBRANCH  12  14
ENDBRANCH   9  12
ENDBRANCH   4   8
ENDBRANCH   1   2
BRANCH   1  16
HETATM   16  N   UNL     1       8.078   5.564   2.284  1.00  0.00    -0.351 N 
HETATM   17  C   UNL     1       8.756   6.693   1.871  1.00  0.00     0.273 C 
HETATM   18  O   UNL     1       8.782   7.064   0.700  1.00  0.00    -0.266 OA
HETATM   19  H   UNL     1       7.990   5.453   3.290  1.00  0.00     0.163 HD
BRANCH  17  20
HETATM   20  C   UNL     1       9.412   7.429   2.963  1.00  0.00     0.157 A 
HETATM   21  N   UNL     1       9.343   7.011   4.246  1.00  0.00    -0.168 NA
HETATM   22  N   UNL     1      10.035   7.944   4.923  1.00  0.00    -0.277 N 
HETATM   23  H   UNL     1      10.123   7.841   5.928  1.00  0.00     0.189 HD
HETATM   24  C   UNL     1      10.541   8.951   4.149  1.00  0.00     0.063 A 
HETATM   25  C   UNL     1      10.153   8.643   2.851  1.00  0.00     0.029 A 
HETATM   26  C   UNL     1      11.290  10.086   4.471  1.00  0.00     0.032 A 
HETATM   27  C   UNL     1      10.527   9.511   1.807  1.00  0.00     0.023 A 
HETATM   28  C   UNL     1      11.277  10.664   2.096  1.00  0.00    -0.061 A 
HETATM   29  C   UNL     1      11.649  10.937   3.418  1.00  0.00     0.009 A 
HETATM   30  C   UNL     1      11.665  11.587   0.977  1.00  0.00     0.048 C 
ENDBRANCH  17  20
ENDBRANCH   1  16
TORSDOF 6
