REMARK  6 active torsions:
REMARK  status: ('A' for Active; 'I' for Inactive)
REMARK    1  A    between atoms: O_2  and  C_3 
REMARK    2  A    between atoms: C_6  and  C_7 
REMARK    3  A    between atoms: C_7  and  N_8 
REMARK       I    between atoms: N_8  and  C_9 
REMARK    4  A    between atoms: C_9  and  C_10 
REMARK    5  A    between atoms: C_10  and  O_11 
REMARK    6  A    between atoms: N_12  and  C_13 
ROOT
HETATM    1  C   UNL     1       5.779  -7.616  -2.848  1.00  0.00     0.256 C 
HETATM    2  N   UNL     1       6.102  -8.987  -3.253  1.00  0.00    -0.254 N 
HETATM    3  C   UNL     1       6.798  -9.759  -2.316  1.00  0.00     0.330 C 
HETATM    4  O   UNL     1       6.883 -10.986  -2.294  1.00  0.00    -0.246 OA
HETATM    5  N   UNL     1       7.561  -9.057  -1.403  1.00  0.00    -0.308 N 
HETATM    6  C   UNL     1       7.843  -7.696  -1.514  1.00  0.00     0.048 A 
HETATM    7  C   UNL     1       7.025  -6.925  -2.337  1.00  0.00     0.035 A 
HETATM    8  C   UNL     1       8.938  -7.139  -0.858  1.00  0.00     0.031 A 
HETATM    9  C   UNL     1       9.248  -5.794  -1.070  1.00  0.00     0.021 A 
HETATM   10  C   UNL     1       8.460  -5.025  -1.928  1.00  0.00     0.011 A 
HETATM   11 BR   UNL     1       8.896  -3.210  -2.225  1.00  0.00    -0.051 Br
HETATM   12  C   UNL     1       7.346  -5.579  -2.558  1.00  0.00     0.034 A 
HETATM   13  H   UNL     1       8.144  -9.651  -0.826  1.00  0.00     0.170 HD
ENDROOT
BRANCH   1  14
HETATM   14  C   UNL     1       4.656  -7.669  -1.712  1.00  0.00     0.279 C 
HETATM   15  N   UNL     1       4.490  -6.512  -0.972  1.00  0.00    -0.352 N 
HETATM   16  H   UNL     1       4.983  -5.670  -1.242  1.00  0.00     0.162 HD
HETATM   17  O   UNL     1       3.915  -8.641  -1.551  1.00  0.00    -0.268 OA
BRANCH  15  18
HETATM   18  C   UNL     1       3.502  -6.404   0.077  1.00  0.00     0.161 C 
BRANCH  18  19
HETATM   19  C   UNL     1       4.030  -5.606   1.242  1.00  0.00    -0.040 A 
HETATM   20  C   UNL     1       3.339  -4.483   1.714  1.00  0.00     0.011 A 
HETATM   21  C   UNL     1       3.810  -3.780   2.826  1.00  0.00     0.037 A 
HETATM   22  C   UNL     1       4.968  -4.187   3.492  1.00  0.00     0.068 A 
HETATM   23  C   UNL     1       5.668  -5.297   3.022  1.00  0.00     0.037 A 
HETATM   24  C   UNL     1       5.199  -6.004   1.909  1.00  0.00     0.011 A 
BRANCH  22  25
HETATM   25  O   UNL     1       5.306  -3.422   4.574  1.00  0.00    -0.356 OA
HETATM   26  C   UNL     1       6.354  -3.912   5.402  1.00  0.00     0.210 C 
ENDBRANCH  22  25
ENDBRANCH  18  19
ENDBRANCH  15  18
ENDBRANCH   1  14
BRANCH   1  27
HETATM   27  O   UNL     1       5.210  -6.836  -3.903  1.00  0.00    -0.359 OA
HETATM   28  H   UNL     1       4.397  -7.317  -4.148  1.00  0.00     0.213 HD
ENDBRANCH   1  27
BRANCH   2  29
HETATM   29  C   UNL     1       5.541  -9.587  -4.420  1.00  0.00     0.042 A 
HETATM   30  C   UNL     1       4.916 -10.839  -4.373  1.00  0.00     0.030 A 
HETATM   31  C   UNL     1       4.414 -11.435  -5.534  1.00  0.00     0.002 A 
HETATM   32  C   UNL     1       4.541 -10.791  -6.762  1.00  0.00     0.000 A 
HETATM   33  C   UNL     1       5.173  -9.553  -6.830  1.00  0.00     0.002 A 
HETATM   34  C   UNL     1       5.673  -8.959  -5.668  1.00  0.00     0.030 A 
ENDBRANCH   2  29
TORSDOF 6
