REMARK  3 active torsions:
REMARK  status: ('A' for Active; 'I' for Inactive)
REMARK    1  A    between atoms: C_4  and  C_5 
REMARK    2  A    between atoms: C_11  and  C_12 
REMARK    3  A    between atoms: C_21  and  N_22 
ROOT
HETATM    1  C   UNL     1      -0.203   5.318   0.168  1.00  0.00     0.098 A 
HETATM    2  N   UNL     1      -1.405   5.922   0.121  1.00  0.00    -0.172 NA
HETATM    3  N   UNL     1      -2.227   5.002  -0.419  1.00  0.00    -0.256 N 
HETATM    4  H   UNL     1      -3.205   5.235  -0.549  1.00  0.00     0.191 HD
HETATM    5  C   UNL     1      -1.592   3.845  -0.728  1.00  0.00     0.175 A 
HETATM    6  C   UNL     1      -0.275   4.012  -0.393  1.00  0.00     0.036 A 
HETATM    7  C   UNL     1       0.734   2.933  -0.687  1.00  0.00     0.076 C 
HETATM    8  C   UNL     1      -0.037   1.666  -1.128  1.00  0.00     0.063 C 
HETATM    9  C   UNL     1       0.759   0.373  -1.197  1.00  0.00     0.020 C 
HETATM   10  N   UNL     1       1.419  -0.700  -1.253  1.00  0.00    -0.096 N 
HETATM   11  C   UNL     1      -1.370   1.640  -1.400  1.00  0.00     0.139 C 
HETATM   12  O   UNL     1      -2.177   2.781  -1.260  1.00  0.00    -0.279 OA
ENDROOT
BRANCH   7  13
HETATM   13  C   UNL     1       1.828   3.491  -1.673  1.00  0.00     0.003 C 
HETATM   14  C   UNL     1       1.418   3.505  -3.158  1.00  0.00     0.032 C 
HETATM   15  C   UNL     1       1.886   2.321  -3.942  1.00  0.00    -0.030 C 
HETATM   16  C   UNL     1       2.870   1.509  -3.538  1.00  0.00    -0.031 C 
HETATM   17  C   UNL     1       3.625   1.682  -2.259  1.00  0.00     0.027 C 
HETATM   18  C   UNL     1       3.248   2.927  -1.457  1.00  0.00     0.009 C 
ENDBRANCH   7  13
BRANCH  11  19
HETATM   19  N   UNL     1      -2.082   0.535  -1.804  1.00  0.00    -0.282 NA
HETATM   20  H   UNL     1      -1.682  -0.368  -1.563  1.00  0.00     0.126 HD
HETATM   21  H   UNL     1      -3.070   0.609  -1.576  1.00  0.00     0.126 HD
ENDBRANCH  11  19
BRANCH   1  22
HETATM   22  C   UNL     1       0.970   6.013   0.690  1.00  0.00    -0.005 A 
HETATM   23  C   UNL     1       1.805   5.400   1.633  1.00  0.00     0.014 A 
HETATM   24  C   UNL     1       2.955   6.052   2.086  1.00  0.00     0.001 A 
HETATM   25  C   UNL     1       3.276   7.318   1.601  1.00  0.00     0.000 A 
HETATM   26  C   UNL     1       2.445   7.941   0.670  1.00  0.00     0.001 A 
HETATM   27  C   UNL     1       1.293   7.293   0.220  1.00  0.00     0.014 A 
ENDBRANCH   1  22
TORSDOF 3
