REMARK  6 active torsions:
REMARK  status: ('A' for Active; 'I' for Inactive)
REMARK    1  A    between atoms: C_2  and  C_3 
REMARK    2  A    between atoms: C_3  and  C_4 
REMARK    3  A    between atoms: C_3  and  C_10 
REMARK    4  A    between atoms: C_10  and  C_11 
REMARK       I    between atoms: C_11  and  N_12 
REMARK    5  A    between atoms: N_12  and  C_13 
REMARK    6  A    between atoms: C_15  and  C_16 
ROOT
HETATM    1  C   UNL     1       5.402   1.971   1.516  1.00  0.00     0.223 C 
HETATM    2  N   UNL     1       4.632   3.116   1.397  1.00  0.00    -0.327 N 
HETATM    3  O   UNL     1       6.405   1.839   2.211  1.00  0.00    -0.273 OA
HETATM    4  H   UNL     1       3.735   3.017   0.940  1.00  0.00     0.169 HD
ENDROOT
BRANCH   2   5
HETATM    5  C   UNL     1       4.928   4.400   1.903  1.00  0.00     0.035 A 
HETATM    6  C   UNL     1       6.159   4.746   2.473  1.00  0.00     0.042 A 
HETATM    7  C   UNL     1       6.415   6.051   2.932  1.00  0.00    -0.021 A 
HETATM    8  C   UNL     1       5.397   7.007   2.813  1.00  0.00     0.012 A 
HETATM    9  C   UNL     1       4.167   6.674   2.244  1.00  0.00     0.003 A 
HETATM   10  C   UNL     1       3.936   5.377   1.787  1.00  0.00     0.029 A 
BRANCH   7  11
HETATM   11  C   UNL     1       7.717   6.383   3.502  1.00  0.00     0.010 A 
HETATM   12  C   UNL     1       8.862   5.576   3.731  1.00  0.00     0.152 A 
HETATM   13  N   UNL     1       9.882   6.253   4.267  1.00  0.00    -0.187 NA
HETATM   14  N   UNL     1       9.400   7.497   4.388  1.00  0.00    -0.289 N 
HETATM   15  H   UNL     1      10.005   8.210   4.780  1.00  0.00     0.188 HD
HETATM   16  C   UNL     1       8.115   7.629   3.945  1.00  0.00     0.123 A 
ENDBRANCH   7  11
ENDBRANCH   2   5
BRANCH   1  17
HETATM   17  C   UNL     1       4.869   0.812   0.693  1.00  0.00     0.116 C 
BRANCH  17  18
HETATM   18  C   UNL     1       5.092   1.029  -0.817  1.00  0.00     0.049 C 
BRANCH  18  19
HETATM   19  C   UNL     1       6.521   0.935  -1.326  1.00  0.00    -0.027 C 
HETATM   20  C   UNL     1       7.621   0.587  -0.645  1.00  0.00     0.007 C 
ENDBRANCH  18  19
BRANCH  18  21
HETATM   21  C   UNL     1       4.187   0.085  -1.604  1.00  0.00    -0.050 A 
HETATM   22  C   UNL     1       4.407  -1.303  -1.600  1.00  0.00     0.008 A 
HETATM   23  C   UNL     1       3.572  -2.157  -2.322  1.00  0.00     0.001 A 
HETATM   24  C   UNL     1       2.506  -1.637  -3.052  1.00  0.00     0.000 A 
HETATM   25  C   UNL     1       2.273  -0.264  -3.063  1.00  0.00     0.001 A 
HETATM   26  C   UNL     1       3.109   0.594  -2.344  1.00  0.00     0.008 A 
ENDBRANCH  18  21
ENDBRANCH  17  18
ENDBRANCH   1  17
TORSDOF 6
