REMARK  3 active torsions:
REMARK  status: ('A' for Active; 'I' for Inactive)
REMARK    1  A    between atoms: C_9  and  N_10 
REMARK       I    between atoms: N_10  and  C_11 
REMARK    2  A    between atoms: C_11  and  C_12 
REMARK    3  A    between atoms: N_14  and  C_15 
ROOT
HETATM    1  N   UNL     1       5.813  -2.283   5.043  1.00  0.00    -0.322 N 
HETATM    2  C   UNL     1       6.709  -1.892   6.018  1.00  0.00     0.276 C 
HETATM    3  O   UNL     1       7.077  -0.761   6.300  1.00  0.00    -0.266 OA
HETATM    4  H   UNL     1       5.660  -3.287   4.976  1.00  0.00     0.169 HD
ENDROOT
BRANCH   2   5
HETATM    5  C   UNL     1       7.224  -3.062   6.851  1.00  0.00     0.145 A 
HETATM    6  N   UNL     1       7.443  -4.190   6.252  1.00  0.00    -0.159 NA
HETATM    7  N   UNL     1       7.891  -5.261   7.026  1.00  0.00    -0.197 N 
HETATM    8  C   UNL     1       8.063  -5.168   8.418  1.00  0.00     0.268 A 
HETATM    9  O   UNL     1       8.433  -6.044   9.195  1.00  0.00    -0.266 OA
HETATM   10  C   UNL     1       7.784  -3.842   9.021  1.00  0.00     0.079 A 
HETATM   11  C   UNL     1       7.390  -2.805   8.286  1.00  0.00     0.044 A 
BRANCH   7  12
HETATM   12  C   UNL     1       8.171  -6.452   6.261  1.00  0.00     0.062 A 
HETATM   13  C   UNL     1       8.468  -7.690   6.856  1.00  0.00     0.035 A 
HETATM   14  C   UNL     1       8.755  -8.824   6.084  1.00  0.00     0.044 A 
HETATM   15  C   UNL     1       8.751  -8.734   4.702  1.00  0.00     0.116 A 
HETATM   16  F   UNL     1       9.031  -9.816   3.965  1.00  0.00    -0.206 F 
HETATM   17  C   UNL     1       8.459  -7.533   4.076  1.00  0.00     0.044 A 
HETATM   18  C   UNL     1       8.168  -6.404   4.850  1.00  0.00     0.035 A 
ENDBRANCH   7  12
ENDBRANCH   2   5
BRANCH   1  19
HETATM   19  C   UNL     1       5.096  -1.448   4.165  1.00  0.00     0.035 A 
HETATM   20  C   UNL     1       5.270  -0.061   4.112  1.00  0.00     0.039 A 
HETATM   21  C   UNL     1       4.502   0.679   3.224  1.00  0.00    -0.022 A 
HETATM   22  C   UNL     1       4.550   2.147   2.976  1.00  0.00     0.274 C 
HETATM   23  C   UNL     1       3.566   0.067   2.388  1.00  0.00    -0.025 A 
HETATM   24  N   UNL     1       3.344   2.425   2.087  1.00  0.00    -0.067 N 
HETATM   25  C   UNL     1       3.562   3.485   1.067  1.00  0.00     0.270 C 
HETATM   26  H   UNL     1       2.594   2.728   2.720  1.00  0.00     0.280 HD
HETATM   27  C   UNL     1       2.900   1.081   1.521  1.00  0.00     0.273 C 
HETATM   28  C   UNL     1       3.386  -1.305   2.417  1.00  0.00     0.012 A 
HETATM   29  C   UNL     1       4.158  -2.059   3.310  1.00  0.00     0.030 A 
ENDBRANCH   1  19
TORSDOF 3
