REMARK  6 active torsions:
REMARK  status: ('A' for Active; 'I' for Inactive)
REMARK    1  A    between atoms: C_2  and  C_3 
REMARK    2  A    between atoms: C_7  and  C_8 
REMARK       I    between atoms: C_8  and  N_9 
REMARK    3  A    between atoms: N_9  and  C_10 
REMARK    4  A    between atoms: C_10  and  C_11 
REMARK    5  A    between atoms: C_10  and  C_19 
REMARK    6  A    between atoms: C_14  and  O_15 
ROOT
HETATM    1  C   UNL     1       4.852  -0.596   4.339  1.00  0.00     0.151 C 
ENDROOT
BRANCH   1   2
HETATM    2  N   UNL     1       3.697  -0.895   3.509  1.00  0.00    -0.343 N 
HETATM    3  C   UNL     1       2.472  -0.313   3.699  1.00  0.00     0.270 C 
HETATM    4  O   UNL     1       2.249   0.504   4.587  1.00  0.00    -0.266 OA
HETATM    5  H   UNL     1       3.826  -1.565   2.769  1.00  0.00     0.163 HD
BRANCH   3   6
HETATM    6  C   UNL     1       1.447  -0.739   2.783  1.00  0.00     0.119 A 
HETATM    7  N   UNL     1       0.164  -0.271   2.881  1.00  0.00    -0.273 N 
HETATM    8  N   UNL     1      -0.674  -0.763   1.954  1.00  0.00    -0.179 NA
HETATM    9  H   UNL     1      -0.193   0.387   3.568  1.00  0.00     0.189 HD
HETATM   10  C   UNL     1       0.096  -1.575   1.222  1.00  0.00     0.056 A 
HETATM   11  C   UNL     1       1.428  -1.599   1.702  1.00  0.00     0.065 A 
BRANCH  10  12
HETATM   12  C   UNL     1      -0.472  -2.317   0.060  1.00  0.00     0.056 C 
HETATM   13  C   UNL     1      -0.174  -1.632  -1.265  1.00  0.00     0.011 C 
ENDBRANCH  10  12
ENDBRANCH   3   6
ENDBRANCH   1   2
BRANCH   1  14
HETATM   14  C   UNL     1       5.989  -0.171   3.412  1.00  0.00    -0.031 A 
HETATM   15  C   UNL     1       6.627  -1.090   2.563  1.00  0.00     0.012 A 
HETATM   16  C   UNL     1       7.670  -0.679   1.729  1.00  0.00     0.037 A 
HETATM   17  C   UNL     1       8.098   0.649   1.725  1.00  0.00     0.068 A 
HETATM   18  C   UNL     1       7.456   1.575   2.547  1.00  0.00     0.037 A 
HETATM   19  C   UNL     1       6.407   1.168   3.381  1.00  0.00     0.012 A 
BRANCH  17  20
HETATM   20  O   UNL     1       9.136   0.913   0.875  1.00  0.00    -0.356 OA
HETATM   21  C   UNL     1       9.738   2.197   0.982  1.00  0.00     0.210 C 
ENDBRANCH  17  20
ENDBRANCH   1  14
BRANCH   1  22
HETATM   22  C   UNL     1       5.215  -1.749   5.281  1.00  0.00    -0.031 A 
HETATM   23  C   UNL     1       6.468  -1.770   5.925  1.00  0.00     0.009 A 
HETATM   24  C   UNL     1       6.809  -2.793   6.813  1.00  0.00     0.001 A 
HETATM   25  C   UNL     1       5.896  -3.805   7.093  1.00  0.00     0.000 A 
HETATM   26  C   UNL     1       4.641  -3.789   6.493  1.00  0.00     0.001 A 
HETATM   27  C   UNL     1       4.300  -2.768   5.601  1.00  0.00     0.009 A 
ENDBRANCH   1  22
TORSDOF 6
