REMARK  7 active torsions:
REMARK  status: ('A' for Active; 'I' for Inactive)
REMARK    1  A    between atoms: O_2  and  C_3 
REMARK    2  A    between atoms: C_3  and  C_4 
REMARK    3  A    between atoms: C_8  and  C_9 
REMARK    4  A    between atoms: C_9  and  N_10 
REMARK    5  A    between atoms: C_13  and  C_14 
REMARK    6  A    between atoms: C_14  and  N_15 
REMARK       I    between atoms: N_15  and  C_16 
REMARK       I    between atoms: C_16  and  N_17 
REMARK    7  A    between atoms: N_17  and  C_18 
ROOT
HETATM    1  N   UNL     1       2.770   6.112  -2.000  1.00  0.00    -0.067 N 
HETATM    2  H   UNL     1       3.762   6.112  -2.321  1.00  0.00     0.280 HD
HETATM    3  C   UNL     1       2.373   7.559  -1.871  1.00  0.00     0.241 C 
HETATM    4  C   UNL     1       3.125   8.273  -0.741  1.00  0.00     0.029 C 
HETATM    5  C   UNL     1       2.924   7.504   0.572  1.00  0.00     0.009 C 
HETATM    6  C   UNL     1       3.337   6.040   0.438  1.00  0.00     0.028 C 
HETATM    7  C   UNL     1       2.633   5.344  -0.715  1.00  0.00     0.235 C 
ENDROOT
BRANCH   4   8
HETATM    8  C   UNL     1       4.627   8.534  -0.975  1.00  0.00     0.130 C 
BRANCH   8   9
HETATM    9  N   UNL     1       4.953   9.043  -2.290  1.00  0.00    -0.342 N 
HETATM   10  C   UNL     1       5.294   8.154  -3.294  1.00  0.00     0.320 C 
HETATM   11  N   UNL     1       5.731   8.814  -4.415  1.00  0.00    -0.309 N 
HETATM   12  O   UNL     1       5.143   6.946  -3.137  1.00  0.00    -0.247 OA
HETATM   13  H   UNL     1       5.575   9.813  -4.431  1.00  0.00     0.170 HD
HETATM   14  H   UNL     1       5.460   9.921  -2.312  1.00  0.00     0.164 HD
BRANCH  11  15
HETATM   15  C   UNL     1       6.244   8.251  -5.601  1.00  0.00     0.039 A 
HETATM   16  C   UNL     1       6.533   6.897  -5.752  1.00  0.00     0.071 A 
HETATM   17  C   UNL     1       7.024   6.426  -6.968  1.00  0.00     0.118 A 
HETATM   18  F   UNL     1       7.262   5.116  -7.114  1.00  0.00    -0.206 F 
HETATM   19  C   UNL     1       7.253   7.284  -8.037  1.00  0.00     0.042 A 
HETATM   20  C   UNL     1       6.988   8.641  -7.887  1.00  0.00     0.005 A 
HETATM   21  C   UNL     1       6.484   9.122  -6.674  1.00  0.00     0.030 A 
ENDBRANCH  11  15
ENDBRANCH   8   9
ENDBRANCH   4   8
BRANCH   1  22
HETATM   22  C   UNL     1       2.008   5.401  -3.107  1.00  0.00     0.274 C 
BRANCH  22  23
HETATM   23  C   UNL     1       2.414   5.786  -4.486  1.00  0.00    -0.015 A 
HETATM   24  C   UNL     1       3.307   5.116  -5.301  1.00  0.00     0.097 A 
HETATM   25  N   UNL     1       3.419   5.801  -6.483  1.00  0.00    -0.360 N 
HETATM   26  C   UNL     1       2.638   6.933  -6.445  1.00  0.00     0.108 A 
HETATM   27  H   UNL     1       4.025   5.554  -7.259  1.00  0.00     0.165 HD
HETATM   28  C   UNL     1       1.961   6.907  -5.238  1.00  0.00     0.046 A 
BRANCH  26  29
HETATM   29  C   UNL     1       2.583   7.937  -7.481  1.00  0.00     0.309 C 
HETATM   30  O   UNL     1       1.942   8.976  -7.414  1.00  0.00    -0.258 OA
BRANCH  29  31
HETATM   31  O   UNL     1       3.377   7.564  -8.522  1.00  0.00    -0.321 OA
HETATM   32  C   UNL     1       3.419   8.518  -9.583  1.00  0.00     0.213 C 
ENDBRANCH  29  31
ENDBRANCH  26  29
ENDBRANCH  22  23
ENDBRANCH   1  22
TORSDOF 7
