REMARK  3 active torsions:
REMARK  status: ('A' for Active; 'I' for Inactive)
REMARK    1  A    between atoms: S_2  and  C_3 
REMARK    2  A    between atoms: C_6  and  C_7 
REMARK    3  A    between atoms: C_22  and  N_23 
ROOT
HETATM    1  C   UNL     1       7.419   5.746  -2.015  1.00  0.00     0.078 C 
HETATM    2  C   UNL     1       8.647   4.972  -1.540  1.00  0.00     0.127 C 
HETATM    3  C   UNL     1       9.419   5.779  -0.529  1.00  0.00     0.060 C 
HETATM    4  C   UNL     1       9.896   4.896   0.526  1.00  0.00     0.003 A 
HETATM    5  C   UNL     1       9.253   3.670   0.405  1.00  0.00     0.023 A 
HETATM    6  C   UNL     1       9.419   2.669   1.343  1.00  0.00     0.016 A 
HETATM    7  C   UNL     1      10.266   2.934   2.424  1.00  0.00     0.001 A 
HETATM    8  C   UNL     1      10.915   4.179   2.547  1.00  0.00     0.001 A 
HETATM    9  C   UNL     1      10.725   5.183   1.593  1.00  0.00     0.014 A 
HETATM   10  C   UNL     1       8.393   3.678  -0.785  1.00  0.00     0.171 C 
HETATM   11  O   UNL     1       7.642   2.769  -1.081  1.00  0.00    -0.291 OA
HETATM   12  N   UNL     1       9.564   7.059  -0.519  1.00  0.00    -0.231 NA
HETATM   13  C   UNL     1       8.773   7.776  -1.384  1.00  0.00     0.165 C 
HETATM   14  C   UNL     1       7.712   7.233  -2.012  1.00  0.00     0.067 C 
HETATM   15  N   UNL     1       9.083   9.109  -1.405  1.00  0.00    -0.200 NA
HETATM   16  C   UNL     1       8.289   9.910  -2.031  1.00  0.00     0.181 C 
HETATM   17  N   UNL     1       7.165   9.483  -2.656  1.00  0.00    -0.298 N 
HETATM   18  C   UNL     1       6.763   8.183  -2.625  1.00  0.00     0.258 C 
HETATM   19  O   UNL     1       5.656   7.852  -3.035  1.00  0.00    -0.267 OA
HETATM   20  H   UNL     1       6.543  10.136  -3.102  1.00  0.00     0.171 HD
ENDROOT
BRANCH   1  21
HETATM   21  C   UNL     1       7.011   5.187  -3.382  1.00  0.00    -0.048 A 
HETATM   22  C   UNL     1       6.011   4.207  -3.457  1.00  0.00     0.009 A 
HETATM   23  C   UNL     1       5.620   3.663  -4.688  1.00  0.00     0.019 A 
HETATM   24  C   UNL     1       6.216   4.086  -5.877  1.00  0.00    -0.000 A 
HETATM   25  C   UNL     1       7.224   5.056  -5.804  1.00  0.00     0.019 A 
HETATM   26  C   UNL     1       7.627   5.592  -4.575  1.00  0.00     0.009 A 
BRANCH  24  27
HETATM   27  S   UNL     1       5.785   3.490  -7.508  1.00  0.00    -0.134 SA
HETATM   28  C   UNL     1       4.636   2.130  -7.168  1.00  0.00     0.095 C 
ENDBRANCH  24  27
ENDBRANCH   1  21
BRANCH  16  29
HETATM   29  N   UNL     1       8.547  11.240  -2.070  1.00  0.00    -0.272 NA
HETATM   30  H   UNL     1       9.288  11.487  -1.420  1.00  0.00     0.127 HD
HETATM   31  H   UNL     1       7.746  11.852  -1.987  1.00  0.00     0.127 HD
ENDBRANCH  16  29
TORSDOF 3
