REMARK  4 active torsions:
REMARK  status: ('A' for Active; 'I' for Inactive)
REMARK    1  A    between atoms: C_2  and  C_3 
REMARK    2  A    between atoms: C_4  and  C_5 
REMARK       I    between atoms: C_5  and  N_6 
REMARK    3  A    between atoms: N_6  and  C_7 
REMARK    4  A    between atoms: C_14  and  C_15 
REMARK       I    between atoms: C_15  and  N_16 
ROOT
HETATM    1  C   UNL     1       3.398   3.844  -0.982  1.00  0.00     0.035 A 
HETATM    2  C   UNL     1       3.011   2.498  -0.922  1.00  0.00     0.046 A 
HETATM    3  C   UNL     1       3.929   1.490  -1.293  1.00  0.00     0.030 A 
HETATM    4  C   UNL     1       5.202   1.862  -1.706  1.00  0.00     0.063 A 
HETATM    5  N   UNL     1       5.845   0.692  -1.997  1.00  0.00    -0.277 N 
HETATM    6  H   UNL     1       6.796   0.581  -2.331  1.00  0.00     0.189 HD
HETATM    7  N   UNL     1       5.104  -0.413  -1.812  1.00  0.00    -0.168 NA
HETATM    8  C   UNL     1       3.915   0.064  -1.376  1.00  0.00     0.156 A 
HETATM    9  C   UNL     1       5.625   3.190  -1.771  1.00  0.00     0.034 A 
HETATM   10  C   UNL     1       4.695   4.170  -1.402  1.00  0.00     0.032 A 
ENDROOT
BRANCH   1  11
HETATM   11  N   UNL     1       2.546   4.924  -0.658  1.00  0.00    -0.324 N 
HETATM   12  C   UNL     1       1.233   4.859  -0.237  1.00  0.00     0.245 C 
HETATM   13  O   UNL     1       0.574   3.853  -0.016  1.00  0.00    -0.268 OA
HETATM   14  H   UNL     1       2.949   5.843  -0.774  1.00  0.00     0.169 HD
BRANCH  12  15
HETATM   15  C   UNL     1       0.634   6.216  -0.078  1.00  0.00     0.075 C 
HETATM   16  C   UNL     1      -0.672   6.335   0.208  1.00  0.00     0.017 C 
BRANCH  16  17
HETATM   17  C   UNL     1      -1.373   7.616   0.367  1.00  0.00    -0.036 A 
HETATM   18  C   UNL     1      -1.079   8.736  -0.424  1.00  0.00     0.013 A 
HETATM   19  C   UNL     1      -1.801   9.924  -0.271  1.00  0.00     0.024 A 
HETATM   20  C   UNL     1      -2.829   9.995   0.666  1.00  0.00     0.034 A 
HETATM   21  C   UNL     1      -3.143   8.888   1.449  1.00  0.00     0.024 A 
HETATM   22 CL   UNL     1      -3.720  11.455   0.848  1.00  0.00    -0.084 Cl
HETATM   23  C   UNL     1      -2.421   7.700   1.295  1.00  0.00     0.013 A 
ENDBRANCH  16  17
ENDBRANCH  12  15
ENDBRANCH   1  11
BRANCH   8  24
HETATM   24  C   UNL     1       2.805  -0.844  -1.056  1.00  0.00     0.270 C 
HETATM   25  N   UNL     1       3.095  -2.168  -1.244  1.00  0.00    -0.365 N 
HETATM   26  H   UNL     1       4.017  -2.420  -1.580  1.00  0.00     0.159 HD
HETATM   27  H   UNL     1       2.392  -2.864  -1.053  1.00  0.00     0.159 HD
HETATM   28  O   UNL     1       1.703  -0.488  -0.654  1.00  0.00    -0.266 OA
ENDBRANCH   8  24
TORSDOF 4
