REMARK  11 active torsions:
REMARK  status: ('A' for Active; 'I' for Inactive)
REMARK    1  A    between atoms: C_2  and  O_3 
REMARK    2  A    between atoms: O_3  and  C_4 
REMARK    3  A    between atoms: C_4  and  C_5 
REMARK    4  A    between atoms: C_5  and  C_6 
REMARK    5  A    between atoms: C_6  and  C_7 
REMARK    6  A    between atoms: C_13  and  C_14 
REMARK    7  A    between atoms: C_14  and  N_15 
REMARK    8  A    between atoms: N_15  and  C_18 
REMARK    9  A    between atoms: N_21  and  C_23 
REMARK   10  A    between atoms: C_23  and  C_24 
REMARK   11  A    between atoms: C_32  and  O_33 
ROOT
HETATM    1  C   UNL     1       4.306  -0.161  -3.847  1.00  0.00     0.025 A 
HETATM    2  C   UNL     1       5.122   1.017  -4.251  1.00  0.00     0.295 A 
HETATM    3  O   UNL     1       4.664   2.149  -4.342  1.00  0.00    -0.259 OA
HETATM    4  O   UNL     1       6.447   0.790  -4.581  1.00  0.00    -0.274 OA
HETATM    5  C   UNL     1       7.058  -0.461  -4.412  1.00  0.00     0.101 A 
HETATM    6  C   UNL     1       6.321  -1.547  -3.941  1.00  0.00     0.005 A 
HETATM    7  C   UNL     1       8.418  -0.543  -4.752  1.00  0.00     0.035 A 
HETATM    8  C   UNL     1       9.056  -1.774  -4.590  1.00  0.00     0.076 A 
HETATM    9  C   UNL     1       8.370  -2.875  -4.094  1.00  0.00     0.038 A 
HETATM   10  C   UNL     1       7.011  -2.757  -3.773  1.00  0.00     0.017 A 
HETATM   11  C   UNL     1       4.872  -1.380  -3.684  1.00  0.00    -0.037 A 
HETATM   12  C   UNL     1       4.110  -2.624  -3.289  1.00  0.00     0.050 C 
ENDROOT
BRANCH   7  13
HETATM   13  C   UNL     1       9.169   0.642  -5.284  1.00  0.00     0.276 C 
BRANCH  13  14
HETATM   14  N   UNL     1       9.763   0.323  -6.639  1.00  0.00    -0.067 N 
HETATM   15  H   UNL     1      10.436  -0.430  -6.393  1.00  0.00     0.277 HD
HETATM   16  H   UNL     1       9.027  -0.154  -7.172  1.00  0.00     0.277 HD
BRANCH  14  17
HETATM   17  C   UNL     1      10.454   1.446  -7.351  1.00  0.00     0.189 C 
HETATM   18  C   UNL     1       9.469   2.465  -7.926  1.00  0.00     0.060 C 
HETATM   19  C   UNL     1       8.703   1.970  -9.146  1.00  0.00     0.237 C 
HETATM   20  N   UNL     1       9.664   1.458 -10.190  1.00  0.00    -0.067 N 
HETATM   21  H   UNL     1      10.215   2.261 -10.532  1.00  0.00     0.280 HD
HETATM   22  C   UNL     1      10.602   0.399  -9.683  1.00  0.00     0.237 C 
HETATM   23  C   UNL     1      11.358   0.894  -8.456  1.00  0.00     0.060 C 
BRANCH  20  24
HETATM   24  C   UNL     1       8.938   0.964 -11.452  1.00  0.00     0.273 C 
BRANCH  24  25
HETATM   25  C   UNL     1       8.158   2.041 -12.148  1.00  0.00    -0.033 A 
HETATM   26  C   UNL     1       8.818   3.028 -12.898  1.00  0.00     0.009 A 
HETATM   27  C   UNL     1       8.090   4.043 -13.520  1.00  0.00     0.001 A 
HETATM   28  C   UNL     1       6.703   4.084 -13.400  1.00  0.00     0.000 A 
HETATM   29  C   UNL     1       6.038   3.108 -12.664  1.00  0.00     0.001 A 
HETATM   30  C   UNL     1       6.759   2.088 -12.042  1.00  0.00     0.009 A 
ENDBRANCH  24  25
ENDBRANCH  20  24
ENDBRANCH  14  17
ENDBRANCH  13  14
ENDBRANCH   7  13
BRANCH   8  31
HETATM   31  O   UNL     1      10.366  -1.879  -4.976  1.00  0.00    -0.360 OA
HETATM   32  H   UNL     1      10.721  -2.706  -4.583  1.00  0.00     0.217 HD
ENDBRANCH   8  31
BRANCH   1  33
HETATM   33  C   UNL     1       2.834   0.171  -3.656  1.00  0.00     0.055 C 
BRANCH  33  34
HETATM   34  C   UNL     1       2.092   0.572  -4.933  1.00  0.00     0.116 C 
BRANCH  34  35
HETATM   35  C   UNL     1       2.210  -0.461  -6.025  1.00  0.00     0.259 C 
HETATM   36  O   UNL     1       3.232  -0.650  -6.676  1.00  0.00    -0.265 OA
BRANCH  35  37
HETATM   37  O   UNL     1       1.043  -1.141  -6.162  1.00  0.00    -0.322 OA
BRANCH  37  38
HETATM   38  C   UNL     1       0.990  -2.119  -7.212  1.00  0.00     0.174 C 
HETATM   39  C   UNL     1       1.451  -3.465  -6.690  1.00  0.00     0.034 C 
ENDBRANCH  37  38
ENDBRANCH  35  37
ENDBRANCH  34  35
ENDBRANCH  33  34
ENDBRANCH   1  33
TORSDOF 11
