REMARK  4 active torsions:
REMARK  status: ('A' for Active; 'I' for Inactive)
REMARK    1  A    between atoms: C_3  and  N_4 
REMARK       I    between atoms: N_4  and  C_5 
REMARK    2  A    between atoms: C_5  and  C_6 
REMARK    3  A    between atoms: C_7  and  C_8 
REMARK    4  A    between atoms: C_15  and  C_16 
ROOT
HETATM    1  C   UNL     1      -0.722   1.286  -1.160  1.00  0.00     0.003 A 
HETATM    2  C   UNL     1       0.668   1.335  -1.039  1.00  0.00     0.029 A 
HETATM    3  C   UNL     1       1.413   0.159  -1.000  1.00  0.00     0.035 A 
HETATM    4  C   UNL     1       0.744  -1.072  -1.099  1.00  0.00     0.043 A 
HETATM    5  C   UNL     1      -0.655  -1.140  -1.213  1.00  0.00    -0.006 A 
HETATM    6  C   UNL     1      -1.380   0.057  -1.240  1.00  0.00     0.014 A 
ENDROOT
BRANCH   3   7
HETATM    7  N   UNL     1       2.815   0.123  -0.842  1.00  0.00    -0.324 N 
HETATM    8  C   UNL     1       3.658   1.196  -0.640  1.00  0.00     0.245 C 
HETATM    9  O   UNL     1       3.377   2.384  -0.579  1.00  0.00    -0.268 OA
HETATM   10  H   UNL     1       3.244  -0.792  -0.864  1.00  0.00     0.169 HD
BRANCH   8  11
HETATM   11  C   UNL     1       5.045   0.744  -0.362  1.00  0.00     0.077 C 
HETATM   12  C   UNL     1       6.112   1.024  -1.123  1.00  0.00     0.042 C 
BRANCH  12  13
HETATM   13  C   UNL     1       6.044   1.693  -2.374  1.00  0.00     0.075 A 
HETATM   14  O   UNL     1       4.970   1.622  -3.233  1.00  0.00    -0.323 OA
HETATM   15  C   UNL     1       5.252   2.361  -4.333  1.00  0.00     0.142 A 
HETATM   16  C   UNL     1       6.503   2.911  -4.233  1.00  0.00     0.027 A 
HETATM   17  C   UNL     1       7.015   2.477  -2.987  1.00  0.00     0.039 A 
ENDBRANCH  12  13
ENDBRANCH   8  11
ENDBRANCH   3   7
BRANCH   5  18
HETATM   18  C   UNL     1      -1.329  -2.439  -1.275  1.00  0.00     0.061 A 
HETATM   19  N   UNL     1      -2.559  -2.642  -1.854  1.00  0.00    -0.278 N 
HETATM   20  H   UNL     1      -3.146  -1.958  -2.317  1.00  0.00     0.189 HD
HETATM   21  N   UNL     1      -2.999  -3.910  -1.790  1.00  0.00    -0.187 NA
HETATM   22  C   UNL     1      -2.015  -4.550  -1.159  1.00  0.00     0.141 A 
HETATM   23  C   UNL     1      -0.953  -3.692  -0.823  1.00  0.00     0.053 A 
ENDBRANCH   5  18
TORSDOF 4
