REMARK  4 active torsions:
REMARK  status: ('A' for Active; 'I' for Inactive)
REMARK    1  A    between atoms: C_2  and  N_3 
REMARK       I    between atoms: N_3  and  C_4 
REMARK    2  A    between atoms: C_4  and  C_5 
REMARK    3  A    between atoms: C_5  and  N_6 
REMARK    4  A    between atoms: N_6  and  C_7 
ROOT
HETATM    1  C   UNL     1       5.557   0.826  -1.657  1.00  0.00     0.022 A 
HETATM    2  C   UNL     1       6.197  -0.188  -2.430  1.00  0.00     0.013 A 
HETATM    3  C   UNL     1       6.958   0.195  -3.567  1.00  0.00     0.044 A 
HETATM    4  C   UNL     1       7.630  -0.759  -4.349  1.00  0.00     0.032 A 
HETATM    5  C   UNL     1       7.552  -2.113  -4.027  1.00  0.00     0.021 A 
HETATM    6  C   UNL     1       6.799  -2.514  -2.931  1.00  0.00     0.012 A 
HETATM    7 BR   UNL     1       6.680  -4.350  -2.500  1.00  0.00    -0.051 Br
HETATM    8  C   UNL     1       6.127  -1.573  -2.144  1.00  0.00     0.034 A 
HETATM    9  N   UNL     1       7.027   1.494  -3.906  1.00  0.00    -0.365 N 
HETATM   10  H   UNL     1       7.572   1.755  -4.727  1.00  0.00     0.165 HD
HETATM   11  C   UNL     1       6.394   2.459  -3.232  1.00  0.00     0.090 A 
HETATM   12  C   UNL     1       5.642   2.148  -2.110  1.00  0.00     0.041 A 
ENDROOT
BRANCH   1  13
HETATM   13  N   UNL     1       4.747   0.478  -0.564  1.00  0.00    -0.283 NA
HETATM   14  H   UNL     1       5.096  -0.343  -0.065  1.00  0.00     0.128 HD
BRANCH  13  15
HETATM   15  C   UNL     1       4.343   1.505   0.426  1.00  0.00     0.195 C 
BRANCH  15  16
HETATM   16  C   UNL     1       3.502   0.882   1.546  1.00  0.00     0.230 C 
HETATM   17  N   UNL     1       2.622  -0.085   1.106  1.00  0.00    -0.360 N 
HETATM   18  H   UNL     1       2.659  -0.348   0.127  1.00  0.00     0.162 HD
HETATM   19  O   UNL     1       3.589   1.254   2.711  1.00  0.00    -0.272 OA
BRANCH  17  20
HETATM   20  C   UNL     1       1.724  -0.783   2.000  1.00  0.00     0.118 C 
HETATM   21  C   UNL     1       2.385  -2.001   2.618  1.00  0.00     0.026 C 
ENDBRANCH  17  20
ENDBRANCH  15  16
ENDBRANCH  13  15
ENDBRANCH   1  13
TORSDOF 4
