REMARK  2 active torsions:
REMARK  status: ('A' for Active; 'I' for Inactive)
REMARK    1  A    between atoms: N_10  and  S_11 
REMARK    2  A    between atoms: S_11  and  C_14 
ROOT
HETATM    1  S   UNL     1       2.780   2.197  -1.406  1.00  0.00     0.245 S 
HETATM    2  O   UNL     1       3.981   1.701  -2.048  1.00  0.00    -0.206 OA
HETATM    3  O   UNL     1       1.491   1.929  -1.998  1.00  0.00    -0.206 OA
ENDROOT
BRANCH   1   4
HETATM    4  N   UNL     1       2.768   1.492   0.196  1.00  0.00    -0.201 NA
HETATM    5  C   UNL     1       2.621  -0.038   0.214  1.00  0.00     0.096 C 
HETATM    6  C   UNL     1       3.210  -0.775  -0.992  1.00  0.00     0.029 C 
HETATM    7  C   UNL     1       3.357  -0.583   1.463  1.00  0.00     0.252 C 
HETATM    8  N   UNL     1       2.503  -0.628   2.700  1.00  0.00    -0.074 N 
HETATM    9  H   UNL     1       1.985  -1.519   2.706  1.00  0.00     0.277 HD
HETATM   10  H   UNL     1       3.145  -0.698   3.503  1.00  0.00     0.277 HD
HETATM   11  C   UNL     1       1.531   0.465   2.972  1.00  0.00     0.233 C 
HETATM   12  C   UNL     1       2.063   1.828   2.584  1.00  0.00     0.043 C 
HETATM   13  C   UNL     1       1.794   2.155   1.117  1.00  0.00     0.109 C 
ENDBRANCH   1   4
BRANCH   1  14
HETATM   14  C   UNL     1       3.028   3.959  -1.182  1.00  0.00     0.088 A 
HETATM   15  C   UNL     1       4.375   4.373  -1.207  1.00  0.00     0.026 A 
HETATM   16  C   UNL     1       4.703   5.722  -1.240  1.00  0.00     0.002 A 
HETATM   17  C   UNL     1       3.691   6.672  -1.271  1.00  0.00     0.014 A 
HETATM   18  C   UNL     1       2.341   6.289  -1.237  1.00  0.00    -0.004 A 
HETATM   19  C   UNL     1       1.344   7.271  -1.264  1.00  0.00     0.128 A 
HETATM   20  C   UNL     1       1.965   4.921  -1.169  1.00  0.00     0.038 A 
HETATM   21  N   UNL     1       0.019   7.027  -1.202  1.00  0.00    -0.269 NA
HETATM   22  C   UNL     1      -0.338   5.735  -1.100  1.00  0.00     0.159 A 
HETATM   23  C   UNL     1       0.570   4.686  -1.066  1.00  0.00     0.146 A 
HETATM   24  F   UNL     1       0.078   3.469  -0.808  1.00  0.00    -0.204 F 
ENDBRANCH   1  14
TORSDOF 2
