REMARK  3 active torsions:
REMARK  status: ('A' for Active; 'I' for Inactive)
REMARK    1  A    between atoms: C_7  and  C_10 
REMARK    2  A    between atoms: C_10  and  N_11 
REMARK    3  A    between atoms: N_11  and  C_12 
ROOT
HETATM    1  C   UNL     1      -2.036   1.183   0.012  1.00  0.00     0.002 A 
HETATM    2  C   UNL     1      -0.719   1.653   0.013  1.00  0.00     0.033 A 
HETATM    3  C   UNL     1       0.351   0.736   0.010  1.00  0.00     0.075 A 
HETATM    4  C   UNL     1       0.068  -0.627   0.006  1.00  0.00     0.035 A 
HETATM    5  S   UNL     1       1.545  -1.502   0.003  1.00  0.00    -0.067 SA
HETATM    6  C   UNL     1       2.458  -0.023   0.007  1.00  0.00     0.121 A 
HETATM    7  C   UNL     1       3.897  -0.038   0.006  1.00  0.00     0.095 C 
HETATM    8  C   UNL     1       4.639  -1.256   0.001  1.00  0.00     0.103 C 
HETATM    9  N   UNL     1       5.274  -2.229  -0.003  1.00  0.00    -0.191 NA
HETATM   10  N   UNL     1       1.696   1.059   0.011  1.00  0.00    -0.239 NA
HETATM   11  C   UNL     1      -1.250  -1.112   0.004  1.00  0.00     0.021 A 
HETATM   12  C   UNL     1      -2.296  -0.184   0.007  1.00  0.00     0.002 A 
ENDROOT
BRANCH   7  13
HETATM   13  C   UNL     1       4.553   1.143   0.010  1.00  0.00     0.114 C 
BRANCH  13  14
HETATM   14  N   UNL     1       5.911   1.387   0.011  1.00  0.00    -0.364 N 
HETATM   15  H   UNL     1       6.520   0.572   0.002  1.00  0.00     0.165 HD
BRANCH  14  16
HETATM   16  C   UNL     1       6.590   2.621   0.008  1.00  0.00     0.034 A 
HETATM   17  C   UNL     1       5.947   3.866   0.012  1.00  0.00     0.069 A 
HETATM   18  C   UNL     1       6.684   5.054   0.017  1.00  0.00     0.104 A 
HETATM   19  C   UNL     1       8.079   5.019  -0.012  1.00  0.00     0.102 A 
HETATM   20  O   UNL     1       5.964   6.223   0.042  1.00  0.00    -0.346 OA
HETATM   21  O   UNL     1       8.862   6.143  -0.043  1.00  0.00    -0.346 OA
HETATM   22  C   UNL     1       8.736   3.795  -0.001  1.00  0.00     0.042 A 
HETATM   23  C   UNL     1       8.095   7.302  -0.391  1.00  0.00     0.202 C 
HETATM   24  C   UNL     1       6.793   7.338   0.390  1.00  0.00     0.202 C 
HETATM   25  C   UNL     1       7.996   2.608   0.008  1.00  0.00     0.032 A 
ENDBRANCH  14  16
ENDBRANCH  13  14
ENDBRANCH   7  13
TORSDOF 3
