REMARK  5 active torsions:
REMARK  status: ('A' for Active; 'I' for Inactive)
REMARK    1  A    between atoms: C_3  and  N_4 
REMARK       I    between atoms: N_4  and  C_5 
REMARK       I    between atoms: C_5  and  N_6 
REMARK    2  A    between atoms: N_6  and  C_7 
REMARK    3  A    between atoms: C_7  and  C_8 
REMARK    4  A    between atoms: C_8  and  O_9 
REMARK    5  A    between atoms: O_9  and  C_10 
ROOT
HETATM    1  N   UNL     1       6.448   4.006  -3.935  1.00  0.00    -0.307 N 
HETATM    2  C   UNL     1       7.068   2.805  -3.732  1.00  0.00     0.320 C 
HETATM    3  N   UNL     1       7.248   2.456  -2.425  1.00  0.00    -0.340 N 
HETATM    4  O   UNL     1       7.429   2.014  -4.595  1.00  0.00    -0.247 OA
HETATM    5  H   UNL     1       5.800   4.236  -3.199  1.00  0.00     0.170 HD
HETATM    6  H   UNL     1       7.779   1.594  -2.342  1.00  0.00     0.164 HD
ENDROOT
BRANCH   3   7
HETATM    7  C   UNL     1       7.164   3.273  -1.220  1.00  0.00     0.156 C 
BRANCH   7   8
HETATM    8  C   UNL     1       6.754   2.464   0.027  1.00  0.00     0.142 C 
HETATM    9  C   UNL     1       5.442   1.712  -0.192  1.00  0.00     0.042 C 
BRANCH   8  10
HETATM   10  O   UNL     1       7.750   1.479   0.341  1.00  0.00    -0.343 OA
BRANCH  10  11
HETATM   11  C   UNL     1       8.831   1.881   1.081  1.00  0.00     0.091 A 
HETATM   12  C   UNL     1      10.082   1.335   0.752  1.00  0.00     0.067 A 
HETATM   13 CL   UNL     1      10.265   0.258  -0.587  1.00  0.00    -0.081 Cl
HETATM   14  C   UNL     1      11.218   1.662   1.497  1.00  0.00     0.026 A 
HETATM   15  C   UNL     1      11.114   2.529   2.583  1.00  0.00     0.002 A 
HETATM   16  C   UNL     1       9.873   3.058   2.930  1.00  0.00     0.003 A 
HETATM   17  C   UNL     1       8.733   2.726   2.190  1.00  0.00     0.038 A 
ENDBRANCH  10  11
ENDBRANCH   8  10
ENDBRANCH   7   8
ENDBRANCH   3   7
BRANCH   1  18
HETATM   18  C   UNL     1       6.225   4.691  -5.155  1.00  0.00     0.059 A 
HETATM   19  C   UNL     1       7.013   4.641  -6.314  1.00  0.00    -0.032 A 
HETATM   20  C   UNL     1       8.295   3.875  -6.457  1.00  0.00     0.050 C 
HETATM   21  C   UNL     1       6.589   5.379  -7.437  1.00  0.00     0.028 A 
HETATM   22  C   UNL     1       5.458   6.175  -7.356  1.00  0.00     0.117 A 
HETATM   23  N   UNL     1       4.717   6.294  -6.242  1.00  0.00    -0.271 NA
HETATM   24  C   UNL     1       5.119   5.553  -5.182  1.00  0.00     0.146 A 
ENDBRANCH   1  18
TORSDOF 5
