REMARK  8 active torsions:
REMARK  status: ('A' for Active; 'I' for Inactive)
REMARK    1  A    between atoms: N_2  and  C_4 
REMARK    2  A    between atoms: N_2  and  C_28 
REMARK    3  A    between atoms: N_7  and  C_8 
REMARK    4  A    between atoms: C_11  and  C_12 
REMARK       I    between atoms: C_12  and  N_13 
REMARK    5  A    between atoms: N_13  and  C_14 
REMARK    6  A    between atoms: C_14  and  C_15 
REMARK    7  A    between atoms: C_15  and  N_16 
REMARK    8  A    between atoms: C_28  and  C_29 
ROOT
HETATM    1  C   UNL     1       4.050  -4.831  -0.228  1.00  0.00     0.030 A 
HETATM    2  C   UNL     1       5.254  -4.848  -0.949  1.00  0.00     0.030 A 
HETATM    3  C   UNL     1       5.738  -6.020  -1.554  1.00  0.00     0.019 A 
HETATM    4  C   UNL     1       5.015  -7.210  -1.452  1.00  0.00     0.032 A 
HETATM    5  C   UNL     1       3.814  -7.218  -0.744  1.00  0.00     0.019 A 
HETATM    6  C   UNL     1       3.347  -6.045  -0.136  1.00  0.00     0.030 A 
ENDROOT
BRANCH   1   7
HETATM    7  N   UNL     1       3.502  -3.667   0.325  1.00  0.00    -0.381 N 
HETATM    8  C   UNL     1       3.920  -2.375  -0.214  1.00  0.00     0.125 C 
HETATM    9  C   UNL     1       2.862  -1.325   0.116  1.00  0.00     0.053 C 
HETATM   10  C   UNL     1       2.527  -1.264   1.616  1.00  0.00     0.191 C 
HETATM   11  C   UNL     1       2.143  -2.676   2.090  1.00  0.00     0.053 C 
HETATM   12  C   UNL     1       3.210  -3.717   1.761  1.00  0.00     0.125 C 
BRANCH  10  13
HETATM   13  N   UNL     1       3.676  -0.651   2.440  1.00  0.00    -0.067 N 
HETATM   14  C   UNL     1       3.504  -0.809   3.939  1.00  0.00     0.270 C 
HETATM   15  H   UNL     1       4.549  -1.136   2.203  1.00  0.00     0.280 HD
BRANCH  13  16
HETATM   16  C   UNL     1       3.915   0.827   2.123  1.00  0.00     0.273 C 
BRANCH  16  17
HETATM   17  C   UNL     1       5.278   1.286   2.536  1.00  0.00    -0.026 A 
HETATM   18  C   UNL     1       5.530   2.204   3.540  1.00  0.00     0.058 A 
HETATM   19  S   UNL     1       7.198   2.492   3.777  1.00  0.00    -0.113 SA
HETATM   20  C   UNL     1       7.617   1.424   2.513  1.00  0.00     0.050 A 
HETATM   21  C   UNL     1       6.508   0.851   1.931  1.00  0.00     0.016 A 
ENDBRANCH  16  17
ENDBRANCH  13  16
ENDBRANCH  10  13
ENDBRANCH   1   7
BRANCH   4  22
HETATM   22  C   UNL     1       5.439  -8.448  -2.158  1.00  0.00     0.251 C 
HETATM   23  N   UNL     1       6.791  -8.692  -2.249  1.00  0.00    -0.355 N 
HETATM   24  H   UNL     1       7.423  -8.026  -1.818  1.00  0.00     0.162 HD
HETATM   25  O   UNL     1       4.602  -9.219  -2.621  1.00  0.00    -0.268 OA
BRANCH  23  26
HETATM   26  C   UNL     1       7.394  -9.675  -3.148  1.00  0.00     0.150 C 
BRANCH  26  27
HETATM   27  C   UNL     1       6.946 -11.145  -2.978  1.00  0.00     0.254 C 
BRANCH  27  28
HETATM   28  N   UNL     1       5.547 -11.402  -3.481  1.00  0.00    -0.066 N 
HETATM   29  H   UNL     1       4.965 -10.619  -3.114  1.00  0.00     0.280 HD
HETATM   30  C   UNL     1       5.391 -11.364  -4.993  1.00  0.00     0.261 C 
HETATM   31  C   UNL     1       3.916 -11.567  -5.362  1.00  0.00     0.195 C 
HETATM   32  O   UNL     1       3.423 -12.801  -4.830  1.00  0.00    -0.388 OA
HETATM   33  C   UNL     1       3.496 -12.821  -3.400  1.00  0.00     0.195 C 
HETATM   34  C   UNL     1       4.945 -12.681  -2.922  1.00  0.00     0.261 C 
ENDBRANCH  27  28
ENDBRANCH  26  27
ENDBRANCH  23  26
ENDBRANCH   4  22
TORSDOF 8
