REMARK  9 active torsions:
REMARK  status: ('A' for Active; 'I' for Inactive)
REMARK    1  A    between atoms: C_4  and  C_5 
REMARK    2  A    between atoms: C_7  and  O_8 
REMARK    3  A    between atoms: C_10  and  O_11 
REMARK    4  A    between atoms: C_16  and  C_17 
REMARK    5  A    between atoms: C_20  and  C_21 
REMARK    6  A    between atoms: C_21  and  N_22 
REMARK    7  A    between atoms: N_22  and  C_23 
REMARK    8  A    between atoms: C_23  and  N_24 
REMARK    9  A    between atoms: N_24  and  C_25 
ROOT
HETATM    1  C   UNL     1       2.985  -2.461   0.655  1.00  0.00     0.067 C 
HETATM    2  C   UNL     1       2.744  -3.928   0.204  1.00  0.00     0.001 C 
HETATM    3  C   UNL     1       1.301  -4.100  -0.319  1.00  0.00     0.040 C 
HETATM    4  C   UNL     1       0.278  -3.827   0.797  1.00  0.00     0.206 C 
HETATM    5  N   UNL     1       1.053  -3.291   2.009  1.00  0.00    -0.065 N 
HETATM    6  H   UNL     1       0.382  -3.028   2.745  1.00  0.00     0.280 HD
HETATM    7  C   UNL     1       1.893  -2.056   1.667  1.00  0.00     0.246 C 
HETATM    8  C   UNL     1       2.901  -4.831   1.445  1.00  0.00     0.033 C 
HETATM    9  C   UNL     1       1.952  -4.386   2.561  1.00  0.00     0.236 C 
ENDROOT
BRANCH   1  10
HETATM   10  C   UNL     1       3.107  -1.527  -0.516  1.00  0.00     0.038 A 
HETATM   11  N   UNL     1       4.313  -1.085  -1.010  1.00  0.00    -0.277 N 
HETATM   12  C   UNL     1       5.640  -1.351  -0.500  1.00  0.00     0.179 C 
HETATM   13  N   UNL     1       4.197  -0.343  -2.115  1.00  0.00    -0.172 NA
HETATM   14  C   UNL     1       2.884  -0.260  -2.364  1.00  0.00     0.089 A 
HETATM   15  C   UNL     1       2.164  -0.957  -1.355  1.00  0.00     0.061 A 
BRANCH  14  16
HETATM   16  C   UNL     1       2.367   0.435  -3.550  1.00  0.00    -0.003 A 
HETATM   17  C   UNL     1       3.251   0.852  -4.561  1.00  0.00     0.053 A 
HETATM   18  C   UNL     1       2.784   1.486  -5.719  1.00  0.00     0.102 A 
HETATM   19  C   UNL     1       1.404   1.720  -5.874  1.00  0.00     0.101 A 
HETATM   20  C   UNL     1       0.521   1.309  -4.872  1.00  0.00     0.040 A 
HETATM   21  C   UNL     1       0.998   0.673  -3.720  1.00  0.00     0.017 A 
BRANCH  18  22
HETATM   22  O   UNL     1       3.586   1.910  -6.749  1.00  0.00    -0.353 OA
HETATM   23  C   UNL     1       4.987   1.710  -6.623  1.00  0.00     0.210 C 
ENDBRANCH  18  22
BRANCH  19  24
HETATM   24  O   UNL     1       1.024   2.337  -7.039  1.00  0.00    -0.353 OA
HETATM   25  C   UNL     1      -0.324   2.770  -7.147  1.00  0.00     0.210 C 
ENDBRANCH  19  24
ENDBRANCH  14  16
ENDBRANCH   1  10
BRANCH   4  26
HETATM   26  C   UNL     1      -0.888  -2.890   0.421  1.00  0.00     0.155 C 
BRANCH  26  27
HETATM   27  N   UNL     1      -1.591  -3.250  -0.803  1.00  0.00    -0.365 N 
HETATM   28  H   UNL     1      -1.671  -4.234  -1.044  1.00  0.00     0.161 HD
BRANCH  27  29
HETATM   29  C   UNL     1      -2.602  -2.503  -1.357  1.00  0.00     0.172 C 
HETATM   30  S   UNL     1      -3.215  -1.087  -0.718  1.00  0.00    -0.041 SA
BRANCH  29  31
HETATM   31  N   UNL     1      -3.181  -3.009  -2.485  1.00  0.00    -0.333 N 
HETATM   32  H   UNL     1      -4.089  -2.599  -2.692  1.00  0.00     0.168 HD
BRANCH  31  33
HETATM   33  C   UNL     1      -2.663  -3.857  -3.484  1.00  0.00     0.034 A 
HETATM   34  C   UNL     1      -1.296  -4.093  -3.660  1.00  0.00     0.031 A 
HETATM   35  C   UNL     1      -0.847  -4.906  -4.706  1.00  0.00     0.026 A 
HETATM   36  C   UNL     1      -1.765  -5.480  -5.582  1.00  0.00     0.034 A 
HETATM   37 CL   UNL     1      -1.210  -6.479  -6.866  1.00  0.00    -0.084 Cl
HETATM   38  C   UNL     1      -3.127  -5.235  -5.430  1.00  0.00     0.026 A 
HETATM   39  C   UNL     1      -3.572  -4.415  -4.389  1.00  0.00     0.031 A 
ENDBRANCH  31  33
ENDBRANCH  29  31
ENDBRANCH  27  29
ENDBRANCH  26  27
ENDBRANCH   4  26
TORSDOF 9
