REMARK  9 active torsions:
REMARK  status: ('A' for Active; 'I' for Inactive)
REMARK    1  A    between atoms: C_4  and  S_5 
REMARK    2  A    between atoms: S_5  and  C_6 
REMARK    3  A    between atoms: C_6  and  C_7 
REMARK       I    between atoms: C_7  and  N_8 
REMARK    4  A    between atoms: N_8  and  C_9 
REMARK    5  A    between atoms: C_9  and  C_10 
REMARK    6  A    between atoms: C_20  and  C_21 
REMARK    7  A    between atoms: C_26  and  C_27 
REMARK       I    between atoms: C_27  and  N_28 
REMARK    8  A    between atoms: N_28  and  C_29 
REMARK    9  A    between atoms: C_31  and  C_32 
ROOT
HETATM    1  C   UNL     1       0.959  -0.398  -0.346  1.00  0.00     0.069 C 
HETATM    2  C   UNL     1       2.467  -0.385  -0.261  1.00  0.00     0.019 C 
HETATM    3  N   UNL     1       3.048   0.874  -0.153  1.00  0.00    -0.353 N 
HETATM    4  C   UNL     1       4.396   1.132  -0.369  1.00  0.00     0.087 C 
HETATM    5  C   UNL     1       5.250   0.085  -0.431  1.00  0.00     0.057 C 
HETATM    6  C   UNL     1       6.713   0.203  -0.826  1.00  0.00     0.019 C 
HETATM    7  N   UNL     1       7.926   0.302  -1.154  1.00  0.00    -0.096 N 
HETATM    8  C   UNL     1       4.762  -1.335  -0.136  1.00  0.00     0.129 C 
HETATM    9  C   UNL     1       3.252  -1.489  -0.287  1.00  0.00     0.048 C 
HETATM   10  H   UNL     1       2.435   1.652  -0.391  1.00  0.00     0.166 HD
ENDROOT
BRANCH   4  11
HETATM   11  S   UNL     1       4.972   2.782  -0.567  1.00  0.00    -0.102 SA
BRANCH  11  12
HETATM   12  C   UNL     1       4.122   3.555   0.846  1.00  0.00     0.183 C 
BRANCH  12  13
HETATM   13  C   UNL     1       4.496   4.999   1.125  1.00  0.00     0.227 C 
HETATM   14  N   UNL     1       5.582   5.524   0.473  1.00  0.00    -0.356 N 
HETATM   15  H   UNL     1       6.183   4.902  -0.057  1.00  0.00     0.162 HD
HETATM   16  O   UNL     1       3.846   5.652   1.943  1.00  0.00    -0.273 OA
BRANCH  14  17
HETATM   17  C   UNL     1       6.064   6.847   0.804  1.00  0.00     0.161 C 
BRANCH  17  18
HETATM   18  C   UNL     1       6.983   7.420  -0.241  1.00  0.00    -0.041 A 
HETATM   19  C   UNL     1       6.669   7.349  -1.606  1.00  0.00     0.009 A 
HETATM   20  C   UNL     1       7.499   7.943  -2.559  1.00  0.00     0.001 A 
HETATM   21  C   UNL     1       8.644   8.628  -2.158  1.00  0.00     0.000 A 
HETATM   22  C   UNL     1       8.960   8.721  -0.805  1.00  0.00     0.001 A 
HETATM   23  C   UNL     1       8.134   8.123   0.149  1.00  0.00     0.009 A 
ENDBRANCH  17  18
ENDBRANCH  14  17
ENDBRANCH  12  13
ENDBRANCH  11  12
ENDBRANCH   4  11
BRANCH   8  24
HETATM   24  C   UNL     1       5.239  -1.783   1.226  1.00  0.00     0.066 A 
HETATM   25  O   UNL     1       5.870  -2.992   1.281  1.00  0.00    -0.326 OA
HETATM   26  C   UNL     1       6.200  -3.207   2.581  1.00  0.00     0.142 A 
HETATM   27  C   UNL     1       5.766  -2.166   3.367  1.00  0.00     0.027 A 
HETATM   28  C   UNL     1       5.140  -1.246   2.495  1.00  0.00     0.035 A 
ENDBRANCH   8  24
BRANCH   9  29
HETATM   29  C   UNL     1       2.672  -2.841  -0.606  1.00  0.00     0.255 C 
HETATM   30  N   UNL     1       3.345  -3.917  -0.067  1.00  0.00    -0.323 N 
HETATM   31  H   UNL     1       4.181  -3.742   0.477  1.00  0.00     0.169 HD
HETATM   32  O   UNL     1       1.699  -2.920  -1.350  1.00  0.00    -0.268 OA
BRANCH  30  33
HETATM   33  C   UNL     1       3.012  -5.285  -0.182  1.00  0.00     0.035 A 
HETATM   34  C   UNL     1       1.830  -5.761  -0.755  1.00  0.00     0.045 A 
HETATM   35  C   UNL     1       1.562  -7.141  -0.814  1.00  0.00     0.050 A 
HETATM   36  C   UNL     1       2.503  -8.043  -0.296  1.00  0.00     0.016 A 
HETATM   37  C   UNL     1       3.684  -7.577   0.274  1.00  0.00     0.003 A 
HETATM   38  C   UNL     1       3.932  -6.205   0.336  1.00  0.00     0.029 A 
BRANCH  35  39
HETATM   39  C   UNL     1       0.271  -7.659  -1.399  1.00  0.00     0.417 C 
HETATM   40  F   UNL     1      -0.496  -6.701  -1.989  1.00  0.00    -0.166 F 
HETATM   41  F   UNL     1       0.476  -8.611  -2.352  1.00  0.00    -0.166 F 
HETATM   42  F   UNL     1      -0.522  -8.243  -0.458  1.00  0.00    -0.166 F 
ENDBRANCH  35  39
ENDBRANCH  30  33
ENDBRANCH   9  29
TORSDOF 9
