REMARK  5 active torsions:
REMARK  status: ('A' for Active; 'I' for Inactive)
REMARK    1  A    between atoms: C_2  and  N_3 
REMARK       I    between atoms: N_3  and  C_4 
REMARK       I    between atoms: C_4  and  N_5 
REMARK    2  A    between atoms: N_5  and  C_6 
REMARK    3  A    between atoms: C_9  and  C_10 
REMARK    4  A    between atoms: C_10  and  C_11 
REMARK       I    between atoms: C_11  and  N_12 
REMARK    5  A    between atoms: N_12  and  C_13 
ROOT
HETATM    1  C   UNL     1      -1.850   2.759   0.482  1.00  0.00     0.174 A 
HETATM    2  S   UNL     1      -2.370   2.961  -1.128  1.00  0.00    -0.062 SA
HETATM    3  C   UNL     1      -3.705   1.930  -0.804  1.00  0.00     0.081 A 
HETATM    4  C   UNL     1      -3.676   1.519   0.517  1.00  0.00     0.052 A 
HETATM    5  N   UNL     1      -2.601   2.010   1.247  1.00  0.00    -0.228 NA
ENDROOT
BRANCH   1   6
HETATM    6  N   UNL     1      -0.710   3.436   0.805  1.00  0.00    -0.287 N 
HETATM    7  C   UNL     1      -0.025   3.179   1.953  1.00  0.00     0.326 C 
HETATM    8  N   UNL     1       1.045   3.989   2.222  1.00  0.00    -0.309 N 
HETATM    9  O   UNL     1      -0.230   2.234   2.713  1.00  0.00    -0.247 OA
HETATM   10  H   UNL     1       1.650   3.574   2.922  1.00  0.00     0.170 HD
HETATM   11  H   UNL     1      -0.248   3.944   0.068  1.00  0.00     0.172 HD
BRANCH   8  12
HETATM   12  C   UNL     1       1.359   5.298   1.819  1.00  0.00     0.036 A 
HETATM   13  C   UNL     1       0.438   6.183   1.248  1.00  0.00     0.032 A 
HETATM   14  C   UNL     1       0.826   7.486   0.917  1.00  0.00     0.044 A 
HETATM   15  C   UNL     1       2.127   7.904   1.168  1.00  0.00     0.116 A 
HETATM   16  C   UNL     1       3.048   7.047   1.753  1.00  0.00     0.044 A 
HETATM   17  F   UNL     1       2.491   9.154   0.856  1.00  0.00    -0.206 F 
HETATM   18  C   UNL     1       2.661   5.747   2.088  1.00  0.00     0.032 A 
ENDBRANCH   8  12
ENDBRANCH   1   6
BRANCH   4  19
HETATM   19  C   UNL     1      -4.687   0.673   1.220  1.00  0.00     0.163 C 
BRANCH  19  20
HETATM   20  C   UNL     1      -4.122  -0.588   1.859  1.00  0.00     0.227 C 
HETATM   21  N   UNL     1      -2.955  -0.401   2.577  1.00  0.00    -0.327 N 
HETATM   22  H   UNL     1      -2.487   0.501   2.440  1.00  0.00     0.169 HD
HETATM   23  O   UNL     1      -4.746  -1.645   1.774  1.00  0.00    -0.273 OA
BRANCH  21  24
HETATM   24  C   UNL     1      -2.291  -1.329   3.405  1.00  0.00     0.036 A 
HETATM   25  C   UNL     1      -2.823  -2.568   3.774  1.00  0.00     0.056 A 
HETATM   26  C   UNL     1      -2.106  -3.413   4.626  1.00  0.00     0.074 A 
HETATM   27 CL   UNL     1      -2.786  -4.928   5.088  1.00  0.00    -0.081 Cl
HETATM   28  C   UNL     1      -0.857  -3.028   5.105  1.00  0.00     0.138 A 
HETATM   29  F   UNL     1      -0.156  -3.827   5.924  1.00  0.00    -0.204 F 
HETATM   30  C   UNL     1      -0.316  -1.801   4.746  1.00  0.00     0.046 A 
HETATM   31  C   UNL     1      -1.035  -0.952   3.902  1.00  0.00     0.032 A 
ENDBRANCH  21  24
ENDBRANCH  19  20
ENDBRANCH   4  19
TORSDOF 5
