REMARK  5 active torsions:
REMARK  status: ('A' for Active; 'I' for Inactive)
REMARK    1  A    between atoms: O_2  and  C_3 
REMARK    2  A    between atoms: C_5  and  C_6 
REMARK    3  A    between atoms: C_6  and  C_7 
REMARK       I    between atoms: C_7  and  N_8 
REMARK    4  A    between atoms: N_11  and  C_12 
REMARK    5  A    between atoms: C_16  and  C_17 
ROOT
HETATM    1  C   UNL     1       3.003   4.179  -2.498  1.00  0.00     0.224 C 
HETATM    2  N   UNL     1       2.694   3.904  -1.177  1.00  0.00    -0.349 N 
HETATM    3  C   UNL     1       1.585   4.476  -0.409  1.00  0.00     0.145 C 
HETATM    4  C   UNL     1       0.889   3.418   0.471  1.00  0.00     0.144 C 
HETATM    5  N   UNL     1       1.856   2.648   1.295  1.00  0.00    -0.363 N 
HETATM    6  C   UNL     1       2.991   2.101   0.503  1.00  0.00     0.144 C 
HETATM    7  C   UNL     1       3.665   3.183  -0.353  1.00  0.00     0.145 C 
HETATM    8  O   UNL     1       4.045   3.770  -3.019  1.00  0.00    -0.273 OA
ENDROOT
BRANCH   5   9
HETATM    9  C   UNL     1       1.360   1.846   2.293  1.00  0.00     0.122 A 
HETATM   10  N   UNL     1       0.310   2.208   3.094  1.00  0.00    -0.262 N 
HETATM   11  H   UNL     1      -0.202   3.080   3.081  1.00  0.00     0.191 HD
HETATM   12  N   UNL     1      -0.045   1.285   4.001  1.00  0.00    -0.173 NA
HETATM   13  C   UNL     1       0.839   0.288   3.829  1.00  0.00     0.090 A 
HETATM   14  C   UNL     1       1.745   0.615   2.781  1.00  0.00     0.084 A 
BRANCH  13  15
HETATM   15  C   UNL     1       0.800  -0.928   4.653  1.00  0.00    -0.005 A 
HETATM   16  C   UNL     1       1.618  -2.032   4.363  1.00  0.00     0.015 A 
HETATM   17  C   UNL     1       1.573  -3.184   5.156  1.00  0.00     0.024 A 
HETATM   18  C   UNL     1       0.708  -3.244   6.246  1.00  0.00     0.034 A 
HETATM   19 CL   UNL     1       0.655  -4.661   7.219  1.00  0.00    -0.084 Cl
HETATM   20  C   UNL     1      -0.112  -2.162   6.550  1.00  0.00     0.024 A 
HETATM   21  C   UNL     1      -0.066  -1.011   5.756  1.00  0.00     0.015 A 
ENDBRANCH  13  15
ENDBRANCH   5   9
BRANCH   1  22
HETATM   22  C   UNL     1       2.022   4.995  -3.329  1.00  0.00     0.141 C 
BRANCH  22  23
HETATM   23  C   UNL     1       2.122   6.488  -3.115  1.00  0.00    -0.047 A 
HETATM   24  C   UNL     1       3.373   7.126  -3.034  1.00  0.00     0.044 A 
HETATM   25  C   UNL     1       3.461   8.509  -2.867  1.00  0.00     0.068 A 
HETATM   26  C   UNL     1       2.289   9.264  -2.803  1.00  0.00     0.037 A 
HETATM   27  C   UNL     1       1.042   8.650  -2.907  1.00  0.00     0.003 A 
HETATM   28  C   UNL     1       0.958   7.268  -3.067  1.00  0.00     0.007 A 
BRANCH  25  29
HETATM   29  O   UNL     1       4.617   9.234  -2.762  1.00  0.00    -0.356 OA
HETATM   30  C   UNL     1       5.837   8.503  -2.784  1.00  0.00     0.210 C 
ENDBRANCH  25  29
ENDBRANCH  22  23
ENDBRANCH   1  22
TORSDOF 5
