REMARK  8 active torsions:
REMARK  status: ('A' for Active; 'I' for Inactive)
REMARK    1  A    between atoms: C_2  and  N_3 
REMARK       I    between atoms: N_3  and  C_4 
REMARK       I    between atoms: C_4  and  N_5 
REMARK    2  A    between atoms: N_8  and  C_9 
REMARK    3  A    between atoms: C_11  and  C_12 
REMARK    4  A    between atoms: C_19  and  C_20 
REMARK    5  A    between atoms: C_20  and  O_21 
REMARK    6  A    between atoms: C_23  and  C_24 
REMARK    7  A    between atoms: C_24  and  C_25 
REMARK    8  A    between atoms: C_27  and  O_28 
ROOT
HETATM    1  C   UNL     1       0.497   5.396  -2.337  1.00  0.00     0.137 A 
HETATM    2  N   UNL     1      -0.436   4.816  -3.117  1.00  0.00    -0.210 NA
HETATM    3  C   UNL     1      -1.097   5.588  -4.001  1.00  0.00     0.162 A 
HETATM    4  N   UNL     1      -0.920   6.911  -4.127  1.00  0.00    -0.230 NA
HETATM    5  C   UNL     1       0.032   7.490  -3.368  1.00  0.00     0.071 A 
HETATM    6  C   UNL     1       0.795   6.762  -2.450  1.00  0.00     0.019 A 
ENDROOT
BRANCH   1   7
HETATM    7  N   UNL     1       1.218   4.567  -1.480  1.00  0.00    -0.362 N 
HETATM    8  C   UNL     1       1.175   4.830  -0.021  1.00  0.00     0.144 C 
HETATM    9  C   UNL     1       0.427   3.742   0.771  1.00  0.00     0.147 C 
HETATM   10  N   UNL     1       0.886   2.412   0.378  1.00  0.00    -0.331 N 
HETATM   11  C   UNL     1       1.755   1.743   1.221  1.00  0.00     0.318 C 
HETATM   12  C   UNL     1       0.649   2.159  -1.047  1.00  0.00     0.147 C 
HETATM   13  N   UNL     1       2.322   0.606   0.708  1.00  0.00    -0.339 N 
HETATM   14  O   UNL     1       1.986   2.131   2.363  1.00  0.00    -0.247 OA
HETATM   15  H   UNL     1       2.454   0.590  -0.288  1.00  0.00     0.164 HD
HETATM   16  C   UNL     1       1.443   3.167  -1.896  1.00  0.00     0.144 C 
BRANCH  13  17
HETATM   17  C   UNL     1       3.225  -0.265   1.458  1.00  0.00     0.078 C 
HETATM   18  C   UNL     1       2.581  -0.853   2.713  1.00  0.00     0.032 C 
HETATM   19  C   UNL     1       4.559   0.407   1.774  1.00  0.00     0.032 C 
ENDBRANCH  13  17
ENDBRANCH   1   7
BRANCH   6  20
HETATM   20  C   UNL     1       1.952   7.402  -1.718  1.00  0.00     0.083 C 
BRANCH  20  21
HETATM   21  C   UNL     1       1.655   8.245  -0.489  1.00  0.00    -0.051 A 
HETATM   22  C   UNL     1       2.755   8.761   0.223  1.00  0.00     0.044 A 
HETATM   23  C   UNL     1       2.575   9.538   1.369  1.00  0.00     0.068 A 
HETATM   24  C   UNL     1       1.281   9.826   1.799  1.00  0.00     0.037 A 
HETATM   25  C   UNL     1       0.178   9.324   1.109  1.00  0.00     0.003 A 
HETATM   26  C   UNL     1       0.363   8.533  -0.025  1.00  0.00     0.007 A 
BRANCH  23  27
HETATM   27  O   UNL     1       3.572  10.073   2.138  1.00  0.00    -0.356 OA
HETATM   28  C   UNL     1       4.893   9.615   1.878  1.00  0.00     0.210 C 
ENDBRANCH  23  27
ENDBRANCH  20  21
ENDBRANCH   6  20
BRANCH   3  29
HETATM   29  C   UNL     1      -2.032   4.943  -4.949  1.00  0.00     0.012 A 
HETATM   30  C   UNL     1      -2.341   3.572  -4.872  1.00  0.00     0.015 A 
HETATM   31  C   UNL     1      -3.202   2.964  -5.795  1.00  0.00     0.001 A 
HETATM   32  C   UNL     1      -3.771   3.712  -6.822  1.00  0.00     0.000 A 
HETATM   33  C   UNL     1      -3.489   5.070  -6.922  1.00  0.00     0.001 A 
HETATM   34  C   UNL     1      -2.632   5.675  -5.997  1.00  0.00     0.015 A 
ENDBRANCH   3  29
BRANCH   5  35
HETATM   35  C   UNL     1       0.227   8.972  -3.614  1.00  0.00     0.226 C 
BRANCH  35  36
HETATM   36  O   UNL     1       1.486   9.219  -4.243  1.00  0.00    -0.390 OA
HETATM   37  C   UNL     1       1.731  10.612  -4.377  1.00  0.00     0.201 C 
ENDBRANCH  35  36
ENDBRANCH   5  35
TORSDOF 8
