REMARK  4 active torsions:
REMARK  status: ('A' for Active; 'I' for Inactive)
REMARK    1  A    between atoms: C_7  and  C_8 
REMARK    2  A    between atoms: C_8  and  C_9 
REMARK       I    between atoms: C_9  and  N_10 
REMARK    3  A    between atoms: N_10  and  C_11 
REMARK    4  A    between atoms: C_13  and  C_14 
ROOT
HETATM    1  C   UNL     1       3.271  -3.471  -0.330  1.00  0.00     0.226 C 
HETATM    2  N   UNL     1       4.330  -3.695   0.539  1.00  0.00    -0.327 N 
HETATM    3  O   UNL     1       2.862  -4.254  -1.185  1.00  0.00    -0.273 OA
HETATM    4  H   UNL     1       4.519  -2.972   1.222  1.00  0.00     0.169 HD
ENDROOT
BRANCH   1   5
HETATM    5  C   UNL     1       2.592  -2.130  -0.115  1.00  0.00     0.144 C 
BRANCH   5   6
HETATM    6  C   UNL     1       3.111  -0.990  -0.945  1.00  0.00    -0.015 A 
HETATM    7  C   UNL     1       3.938  -0.998  -2.062  1.00  0.00     0.013 A 
HETATM    8  C   UNL     1       4.599  -2.103  -2.811  1.00  0.00     0.068 C 
HETATM    9  N   UNL     1       4.083   0.301  -2.488  1.00  0.00    -0.359 N 
HETATM   10  H   UNL     1       4.622   0.588  -3.294  1.00  0.00     0.166 HD
HETATM   11  C   UNL     1       3.365   1.160  -1.695  1.00  0.00     0.043 A 
HETATM   12  C   UNL     1       2.749   0.385  -0.715  1.00  0.00     0.002 A 
HETATM   13  C   UNL     1       3.209   2.550  -1.784  1.00  0.00     0.033 A 
HETATM   14  C   UNL     1       1.932   1.034   0.235  1.00  0.00     0.056 A 
HETATM   15  C   UNL     1       1.774   2.418   0.156  1.00  0.00     0.117 A 
HETATM   16  C   UNL     1       2.395   3.169  -0.833  1.00  0.00     0.044 A 
HETATM   17  F   UNL     1       0.997   3.037   1.056  1.00  0.00    -0.206 F 
ENDBRANCH   5   6
ENDBRANCH   1   5
BRANCH   2  18
HETATM   18  C   UNL     1       5.143  -4.848   0.613  1.00  0.00     0.035 A 
HETATM   19  C   UNL     1       6.038  -4.941   1.691  1.00  0.00     0.042 A 
HETATM   20  C   UNL     1       6.863  -6.068   1.863  1.00  0.00    -0.021 A 
HETATM   21  C   UNL     1       6.801  -7.093   0.911  1.00  0.00     0.012 A 
HETATM   22  C   UNL     1       5.930  -7.000  -0.174  1.00  0.00     0.003 A 
HETATM   23  C   UNL     1       5.102  -5.886  -0.318  1.00  0.00     0.029 A 
BRANCH  20  24
HETATM   24  C   UNL     1       7.758  -6.191   3.004  1.00  0.00     0.010 A 
HETATM   25  C   UNL     1       8.910  -6.994   3.194  1.00  0.00     0.152 A 
HETATM   26  N   UNL     1       9.450  -6.853   4.407  1.00  0.00    -0.187 NA
HETATM   27  N   UNL     1       8.643  -5.967   5.007  1.00  0.00    -0.289 N 
HETATM   28  H   UNL     1       8.848  -5.702   5.965  1.00  0.00     0.188 HD
HETATM   29  C   UNL     1       7.617  -5.539   4.213  1.00  0.00     0.123 A 
ENDBRANCH  20  24
ENDBRANCH   2  18
TORSDOF 4
