REMARK  6 active torsions:
REMARK  status: ('A' for Active; 'I' for Inactive)
REMARK    1  A    between atoms: C_2  and  O_3 
REMARK    2  A    between atoms: O_3  and  C_4 
REMARK    3  A    between atoms: C_5  and  C_6 
REMARK       I    between atoms: C_6  and  N_7 
REMARK    4  A    between atoms: N_7  and  C_8 
REMARK    5  A    between atoms: N_9  and  C_10 
REMARK    6  A    between atoms: C_21  and  C_22 
ROOT
HETATM    1  C   UNL     1       5.713   5.548  -0.136  1.00  0.00     0.152 A 
HETATM    2  N   UNL     1       6.222   6.807  -0.418  1.00  0.00    -0.044 N 
HETATM    3  N   UNL     1       7.587   6.817  -0.482  1.00  0.00    -0.148 NA
HETATM    4  C   UNL     1       7.928   5.545  -0.232  1.00  0.00     0.115 A 
HETATM    5  C   UNL     1       6.806   4.728   0.020  1.00  0.00     0.087 A 
ENDROOT
BRANCH   1   6
HETATM    6  N   UNL     1       4.351   5.304  -0.090  1.00  0.00    -0.307 N 
HETATM    7  C   UNL     1       3.803   4.068   0.178  1.00  0.00     0.261 C 
HETATM    8  O   UNL     1       4.376   3.071   0.599  1.00  0.00    -0.267 OA
HETATM    9  H   UNL     1       3.728   6.076  -0.337  1.00  0.00     0.170 HD
BRANCH   7  10
HETATM   10  C   UNL     1       2.346   4.026  -0.081  1.00  0.00     0.076 A 
HETATM   11  C   UNL     1       1.928   3.813  -1.408  1.00  0.00     0.085 A 
HETATM   12  C   UNL     1       0.564   3.821  -1.689  1.00  0.00     0.039 A 
HETATM   13  C   UNL     1      -0.362   4.045  -0.666  1.00  0.00     0.015 A 
HETATM   14  C   UNL     1       0.050   4.266   0.658  1.00  0.00    -0.025 A 
HETATM   15  C   UNL     1       1.428   4.252   0.976  1.00  0.00    -0.007 A 
HETATM   16  C   UNL     1      -0.898   4.508   1.666  1.00  0.00     0.012 A 
HETATM   17  C   UNL     1       1.803   4.477   2.322  1.00  0.00     0.013 A 
HETATM   18  C   UNL     1       0.848   4.718   3.312  1.00  0.00     0.001 A 
HETATM   19  C   UNL     1      -0.501   4.735   2.983  1.00  0.00     0.001 A 
BRANCH  11  20
HETATM   20  O   UNL     1       2.914   3.641  -2.341  1.00  0.00    -0.350 OA
BRANCH  20  21
HETATM   21  C   UNL     1       2.536   3.281  -3.667  1.00  0.00     0.171 C 
HETATM   22  C   UNL     1       3.808   3.025  -4.455  1.00  0.00     0.034 C 
ENDBRANCH  20  21
ENDBRANCH  11  20
ENDBRANCH   7  10
ENDBRANCH   1   6
BRANCH   2  23
HETATM   23  C   UNL     1       5.502   7.998  -0.636  1.00  0.00     0.732 A 
HETATM   24  N   UNL     1       4.202   8.059  -0.607  1.00  0.00    -0.067 NA
HETATM   25  C   UNL     1       3.697   9.307  -0.831  1.00  0.00     0.065 A 
HETATM   26  C   UNL     1       4.408  10.410  -1.072  1.00  0.00     0.036 A 
HETATM   27  C   UNL     1       2.233   9.596  -0.829  1.00  0.00     0.061 C 
HETATM   28  C   UNL     1       3.577  11.618  -1.271  1.00  0.00     0.047 C 
HETATM   29  C   UNL     1       5.868  10.323  -1.109  1.00  0.00     0.268 A 
HETATM   30  C   UNL     1       2.199  11.131  -0.800  1.00  0.00     0.011 C 
HETATM   31  O   UNL     1       6.581  11.291  -1.328  1.00  0.00    -0.267 OA
HETATM   32  N   UNL     1       6.341   9.062  -0.876  1.00  0.00    -0.152 N 
HETATM   33  H   UNL     1       7.344   8.905  -0.879  1.00  0.00     0.188 HD
ENDBRANCH   2  23
BRANCH   4  34
HETATM   34  C   UNL     1       9.342   5.071  -0.251  1.00  0.00     0.105 A 
HETATM   35  O   UNL     1       9.731   3.782  -0.009  1.00  0.00    -0.320 OA
HETATM   36  C   UNL     1      11.082   3.735  -0.136  1.00  0.00     0.142 A 
HETATM   37  C   UNL     1      11.578   4.975  -0.457  1.00  0.00     0.027 A 
HETATM   38  C   UNL     1      10.458   5.839  -0.529  1.00  0.00     0.041 A 
ENDBRANCH   4  34
TORSDOF 6
