REMARK  7 active torsions:
REMARK  status: ('A' for Active; 'I' for Inactive)
REMARK    1  A    between atoms: C_4  and  C_5 
REMARK    2  A    between atoms: C_5  and  N_6 
REMARK    3  A    between atoms: C_14  and  C_15 
REMARK    4  A    between atoms: C_18  and  O_19 
REMARK    5  A    between atoms: O_19  and  C_20 
REMARK    6  A    between atoms: C_20  and  C_21 
REMARK    7  A    between atoms: C_22  and  C_23 
ROOT
HETATM    1  N   UNL     1       3.302  -1.405  -0.262  1.00  0.00    -0.063 N 
HETATM    2  H   UNL     1       3.862  -1.637   0.566  1.00  0.00     0.280 HD
HETATM    3  C   UNL     1       2.316  -2.557  -0.409  1.00  0.00     0.282 C 
HETATM    4  C   UNL     1       3.050  -3.813  -0.735  1.00  0.00     0.018 A 
HETATM    5  C   UNL     1       4.353  -3.873  -1.197  1.00  0.00    -0.023 A 
HETATM    6  C   UNL     1       4.766  -5.229  -1.398  1.00  0.00     0.073 A 
HETATM    7  C   UNL     1       3.740  -6.113  -1.168  1.00  0.00     0.088 A 
HETATM    8  N   UNL     1       3.851  -7.443  -1.350  1.00  0.00    -0.358 N 
HETATM    9  C   UNL     1       5.161  -8.051  -1.480  1.00  0.00     0.219 C 
HETATM   10  N   UNL     1       6.158  -7.099  -1.895  1.00  0.00    -0.332 N 
HETATM   11  C   UNL     1       6.060  -5.741  -1.806  1.00  0.00     0.256 C 
HETATM   12  O   UNL     1       7.011  -5.006  -2.049  1.00  0.00    -0.267 OA
HETATM   13  S   UNL     1       2.322  -5.347  -0.625  1.00  0.00    -0.074 SA
HETATM   14  C   UNL     1       5.170  -2.632  -1.411  1.00  0.00     0.068 C 
HETATM   15  C   UNL     1       4.283  -1.371  -1.428  1.00  0.00     0.240 C 
HETATM   16  H   UNL     1       3.136  -8.060  -0.977  1.00  0.00     0.162 HD
HETATM   17  H   UNL     1       7.078  -7.449  -2.120  1.00  0.00     0.165 HD
ENDROOT
BRANCH   9  18
HETATM   18  C   UNL     1       5.522  -8.767  -0.192  1.00  0.00    -0.016 A 
HETATM   19  C   UNL     1       5.455 -10.171  -0.135  1.00  0.00     0.014 A 
HETATM   20  C   UNL     1       5.683 -10.848   1.065  1.00  0.00     0.038 A 
HETATM   21  C   UNL     1       5.985 -10.126   2.218  1.00  0.00     0.079 A 
HETATM   22  C   UNL     1       6.066  -8.737   2.186  1.00  0.00     0.038 A 
HETATM   23  C   UNL     1       5.843  -8.063   0.983  1.00  0.00     0.014 A 
BRANCH  21  24
HETATM   24  O   UNL     1       6.050 -10.876   3.410  1.00  0.00    -0.276 OA
BRANCH  24  25
HETATM   25  C   UNL     1       6.836 -10.487   4.484  1.00  0.00     0.288 C 
HETATM   26  O   UNL     1       7.684  -9.607   4.495  1.00  0.00    -0.260 OA
BRANCH  25  27
HETATM   27  C   UNL     1       6.484 -11.261   5.694  1.00  0.00     0.085 C 
HETATM   28  C   UNL     1       5.544 -12.218   5.727  1.00  0.00     0.043 C 
BRANCH  28  29
HETATM   29  C   UNL     1       5.205 -12.867   6.945  1.00  0.00     0.075 A 
HETATM   30  O   UNL     1       5.743 -12.544   8.171  1.00  0.00    -0.323 OA
HETATM   31  C   UNL     1       5.177 -13.339   9.111  1.00  0.00     0.142 A 
HETATM   32  C   UNL     1       4.272 -14.192   8.534  1.00  0.00     0.027 A 
HETATM   33  C   UNL     1       4.290 -13.894   7.151  1.00  0.00     0.039 A 
ENDBRANCH  28  29
ENDBRANCH  25  27
ENDBRANCH  24  25
ENDBRANCH  21  24
ENDBRANCH   9  18
BRANCH   1  34
HETATM   34  C   UNL     1       2.652  -0.081   0.052  1.00  0.00     0.273 C 
BRANCH  34  35
HETATM   35  C   UNL     1       1.574   0.364  -0.898  1.00  0.00    -0.033 A 
HETATM   36  C   UNL     1       0.222   0.130  -0.591  1.00  0.00     0.009 A 
HETATM   37  C   UNL     1      -0.783   0.512  -1.480  1.00  0.00     0.001 A 
HETATM   38  C   UNL     1      -0.452   1.134  -2.681  1.00  0.00     0.000 A 
HETATM   39  C   UNL     1       0.882   1.383  -2.992  1.00  0.00     0.001 A 
HETATM   40  C   UNL     1       1.892   1.003  -2.105  1.00  0.00     0.009 A 
ENDBRANCH  34  35
ENDBRANCH   1  34
TORSDOF 7
