REMARK  8 active torsions:
REMARK  status: ('A' for Active; 'I' for Inactive)
REMARK    1  A    between atoms: C_2  and  C_3 
REMARK    2  A    between atoms: C_3  and  C_4 
REMARK    3  A    between atoms: C_4  and  N_5 
REMARK       I    between atoms: N_5  and  C_6 
REMARK    4  A    between atoms: C_6  and  C_7 
REMARK    5  A    between atoms: C_14  and  S_15 
REMARK    6  A    between atoms: S_15  and  N_16 
REMARK    7  A    between atoms: N_16  and  C_17 
REMARK    8  A    between atoms: C_19  and  O_20 
ROOT
HETATM    1  C   UNL     1       1.887   4.213   2.833  1.00  0.00     0.098 C 
HETATM    2  C   UNL     1       0.721   3.770   2.018  1.00  0.00     0.201 C 
HETATM    3  O   UNL     1       0.324   2.607   2.037  1.00  0.00    -0.286 OA
HETATM    4  C   UNL     1       0.052   4.781   1.153  1.00  0.00     0.043 A 
HETATM    5  C   UNL     1       0.475   6.122   1.231  1.00  0.00     0.046 A 
HETATM    6  N   UNL     1       1.466   6.491   2.150  1.00  0.00    -0.364 N 
HETATM    7  C   UNL     1      -0.960   4.397   0.265  1.00  0.00     0.043 A 
HETATM    8  C   UNL     1      -1.566   5.373  -0.530  1.00  0.00     0.081 A 
HETATM    9  C   UNL     1      -1.164   6.712  -0.453  1.00  0.00     0.027 A 
HETATM   10  C   UNL     1      -0.156   7.085   0.439  1.00  0.00     0.032 A 
HETATM   11  C   UNL     1       2.167   5.527   2.831  1.00  0.00     0.109 C 
HETATM   12  H   UNL     1       1.913   7.397   2.038  1.00  0.00     0.165 HD
ENDROOT
BRANCH   8  13
HETATM   13  S   UNL     1      -2.828   4.917  -1.703  1.00  0.00     0.263 S 
HETATM   14  O   UNL     1      -2.783   5.895  -2.770  1.00  0.00    -0.200 OA
HETATM   15  O   UNL     1      -2.701   3.503  -1.973  1.00  0.00    -0.200 OA
BRANCH  13  16
HETATM   16  N   UNL     1      -4.255   5.214  -0.851  1.00  0.00    -0.281 N 
HETATM   17  H   UNL     1      -4.539   6.191  -0.890  1.00  0.00     0.179 HD
BRANCH  16  18
HETATM   18  C   UNL     1      -4.492   4.498   0.353  1.00  0.00     0.045 A 
HETATM   19  C   UNL     1      -4.263   5.115   1.585  1.00  0.00     0.066 A 
HETATM   20  C   UNL     1      -4.436   4.386   2.763  1.00  0.00     0.070 A 
HETATM   21  C   UNL     1      -4.882   3.064   2.700  1.00  0.00     0.037 A 
HETATM   22  C   UNL     1      -5.104   2.450   1.468  1.00  0.00     0.005 A 
HETATM   23  C   UNL     1      -4.893   3.164   0.291  1.00  0.00     0.030 A 
BRANCH  20  24
HETATM   24  O   UNL     1      -4.228   4.873   4.024  1.00  0.00    -0.356 OA
HETATM   25  C   UNL     1      -3.245   5.898   4.131  1.00  0.00     0.210 C 
ENDBRANCH  20  24
ENDBRANCH  16  18
ENDBRANCH  13  16
ENDBRANCH   8  13
BRANCH   1  26
HETATM   26  C   UNL     1       2.780   3.306   3.608  1.00  0.00     0.257 C 
HETATM   27  N   UNL     1       2.337   2.014   3.739  1.00  0.00    -0.357 N 
HETATM   28  H   UNL     1       1.479   1.752   3.253  1.00  0.00     0.162 HD
HETATM   29  O   UNL     1       3.845   3.704   4.073  1.00  0.00    -0.267 OA
BRANCH  27  30
HETATM   30  C   UNL     1       3.157   0.960   4.301  1.00  0.00     0.123 C 
BRANCH  30  31
HETATM   31  C   UNL     1       3.322   1.076   5.818  1.00  0.00     0.023 C 
BRANCH  31  32
HETATM   32  C   UNL     1       4.236  -0.018   6.402  1.00  0.00    -0.021 C 
HETATM   33  C   UNL     1       3.581  -1.399   6.355  1.00  0.00     0.009 C 
HETATM   34  C   UNL     1       4.613   0.325   7.845  1.00  0.00     0.009 C 
ENDBRANCH  31  32
ENDBRANCH  30  31
ENDBRANCH  27  30
ENDBRANCH   1  26
TORSDOF 8
