REMARK  6 active torsions:
REMARK  status: ('A' for Active; 'I' for Inactive)
REMARK    1  A    between atoms: C_2  and  N_3 
REMARK    2  A    between atoms: C_2  and  C_24 
REMARK       I    between atoms: N_3  and  C_4 
REMARK    3  A    between atoms: C_4  and  C_5 
REMARK    4  A    between atoms: C_5  and  N_6 
REMARK    5  A    between atoms: C_10  and  N_11 
REMARK       I    between atoms: N_11  and  C_12 
REMARK       I    between atoms: C_12  and  N_13 
REMARK    6  A    between atoms: N_13  and  C_14 
ROOT
HETATM    1  N   UNL     1       1.438   2.460   0.501  1.00  0.00    -0.063 N 
HETATM    2  H   UNL     1       1.895   3.197  -0.061  1.00  0.00     0.280 HD
HETATM    3  C   UNL     1       1.980   1.140   0.007  1.00  0.00     0.237 C 
HETATM    4  C   UNL     1       1.350   0.706  -1.303  1.00  0.00     0.053 C 
HETATM    5  C   UNL     1      -0.171   0.834  -1.364  1.00  0.00     0.089 C 
HETATM    6  C   UNL     1      -0.624   2.213  -0.896  1.00  0.00     0.053 C 
HETATM    7  C   UNL     1      -0.052   2.631   0.442  1.00  0.00     0.237 C 
ENDROOT
BRANCH   1   8
HETATM    8  C   UNL     1       1.923   2.719   1.947  1.00  0.00     0.337 C 
BRANCH   8   9
HETATM    9  C   UNL     1       3.402   3.091   1.975  1.00  0.00     0.244 C 
HETATM   10  N   UNL     1       4.171   2.935   3.080  1.00  0.00    -0.351 N 
HETATM   11  H   UNL     1       5.110   3.293   2.931  1.00  0.00     0.163 HD
HETATM   12  O   UNL     1       3.919   3.527   0.940  1.00  0.00    -0.272 OA
BRANCH  10  13
HETATM   13  C   UNL     1       3.883   2.585   4.474  1.00  0.00     0.120 C 
HETATM   14  C   UNL     1       2.953   1.396   4.696  1.00  0.00     0.038 C 
BRANCH  13  15
HETATM   15  C   UNL     1       3.473   3.790   5.283  1.00  0.00     0.005 A 
HETATM   16  S   UNL     1       2.283   4.907   4.755  1.00  0.00    -0.104 SA
HETATM   17  C   UNL     1       2.418   5.843   6.176  1.00  0.00     0.050 A 
HETATM   18  C   UNL     1       3.336   5.315   7.053  1.00  0.00     0.008 A 
HETATM   19  C   UNL     1       3.944   4.134   6.539  1.00  0.00     0.017 A 
ENDBRANCH  13  15
ENDBRANCH  10  13
ENDBRANCH   8   9
ENDBRANCH   1   8
BRANCH   5  20
HETATM   20  N   UNL     1      -0.914  -0.279  -0.773  1.00  0.00    -0.338 N 
HETATM   21  C   UNL     1      -0.895  -0.686   0.531  1.00  0.00     0.316 C 
HETATM   22  N   UNL     1      -1.754  -1.723   0.761  1.00  0.00    -0.339 N 
HETATM   23  O   UNL     1      -0.204  -0.169   1.398  1.00  0.00    -0.247 OA
HETATM   24  H   UNL     1      -1.990  -2.299  -0.035  1.00  0.00     0.164 HD
HETATM   25  H   UNL     1      -1.705  -0.619  -1.306  1.00  0.00     0.164 HD
BRANCH  22  26
HETATM   26  C   UNL     1      -1.824  -2.367   2.073  1.00  0.00     0.086 C 
HETATM   27  C   UNL     1      -3.205  -2.991   2.303  1.00  0.00     0.025 C 
HETATM   28  C   UNL     1      -3.432  -4.258   1.480  1.00  0.00     0.002 C 
HETATM   29  C   UNL     1      -2.310  -5.272   1.683  1.00  0.00     0.000 C 
HETATM   30  C   UNL     1      -0.940  -4.662   1.407  1.00  0.00     0.002 C 
HETATM   31  C   UNL     1      -0.705  -3.404   2.243  1.00  0.00     0.025 C 
ENDBRANCH  22  26
ENDBRANCH   5  20
TORSDOF 6
