REMARK  6 active torsions:
REMARK  status: ('A' for Active; 'I' for Inactive)
REMARK    1  A    between atoms: C_5  and  N_6 
REMARK       I    between atoms: N_6  and  C_7 
REMARK       I    between atoms: C_7  and  N_8 
REMARK    2  A    between atoms: N_8  and  C_9 
REMARK    3  A    between atoms: C_12  and  C_13 
REMARK    4  A    between atoms: C_13  and  C_14 
REMARK       I    between atoms: C_14  and  N_15 
REMARK    5  A    between atoms: N_18  and  C_19 
REMARK    6  A    between atoms: C_21  and  C_22 
ROOT
HETATM    1  C   UNL     1       2.741  -1.976   0.725  1.00  0.00     0.162 C 
ENDROOT
BRANCH   1   2
HETATM    2  C   UNL     1       3.530  -2.283  -0.502  1.00  0.00     0.052 A 
HETATM    3  C   UNL     1       3.707  -1.429  -1.578  1.00  0.00     0.081 A 
HETATM    4  S   UNL     1       4.881  -2.066  -2.648  1.00  0.00    -0.062 SA
HETATM    5  C   UNL     1       5.021  -3.433  -1.643  1.00  0.00     0.174 A 
HETATM    6  N   UNL     1       4.251  -3.474  -0.581  1.00  0.00    -0.228 NA
BRANCH   5   7
HETATM    7  N   UNL     1       5.953  -4.337  -2.054  1.00  0.00    -0.287 N 
HETATM    8  C   UNL     1       6.207  -5.563  -1.512  1.00  0.00     0.326 C 
HETATM    9  N   UNL     1       5.308  -6.025  -0.588  1.00  0.00    -0.309 N 
HETATM   10  O   UNL     1       7.178  -6.181  -1.945  1.00  0.00    -0.247 OA
HETATM   11  H   UNL     1       4.528  -5.402  -0.405  1.00  0.00     0.170 HD
HETATM   12  H   UNL     1       6.550  -4.078  -2.825  1.00  0.00     0.172 HD
BRANCH   9  13
HETATM   13  C   UNL     1       5.268  -7.300   0.010  1.00  0.00     0.036 A 
HETATM   14  C   UNL     1       6.313  -8.222  -0.040  1.00  0.00     0.030 A 
HETATM   15  C   UNL     1       6.179  -9.481   0.556  1.00  0.00     0.009 A 
HETATM   16  C   UNL     1       4.998  -9.838   1.215  1.00  0.00    -0.062 A 
HETATM   17  C   UNL     1       4.842 -11.213   1.795  1.00  0.00     0.048 C 
HETATM   18  C   UNL     1       3.949  -8.917   1.263  1.00  0.00     0.009 A 
HETATM   19  C   UNL     1       4.091  -7.656   0.674  1.00  0.00     0.030 A 
ENDBRANCH   9  13
ENDBRANCH   5   7
ENDBRANCH   1   2
BRANCH   1  20
HETATM   20  C   UNL     1       1.299  -2.448   0.642  1.00  0.00     0.225 C 
HETATM   21  N   UNL     1       0.921  -3.574   1.371  1.00  0.00    -0.349 N 
HETATM   22  C   UNL     1      -0.503  -3.675   1.730  1.00  0.00     0.145 C 
HETATM   23  C   UNL     1       1.850  -4.313   2.235  1.00  0.00     0.145 C 
HETATM   24  C   UNL     1      -0.962  -5.074   2.189  1.00  0.00     0.143 C 
HETATM   25  N   UNL     1      -0.013  -5.631   3.177  1.00  0.00    -0.378 N 
HETATM   26  C   UNL     1       1.352  -5.715   2.617  1.00  0.00     0.143 C 
HETATM   27  O   UNL     1       0.483  -1.801  -0.022  1.00  0.00    -0.273 OA
BRANCH  25  28
HETATM   28  C   UNL     1      -0.388  -6.744   3.939  1.00  0.00     0.030 A 
HETATM   29  C   UNL     1       0.387  -7.105   5.057  1.00  0.00     0.045 A 
HETATM   30  C   UNL     1       0.077  -8.213   5.865  1.00  0.00     0.050 A 
HETATM   31  C   UNL     1      -1.061  -8.967   5.564  1.00  0.00     0.016 A 
HETATM   32  C   UNL     1      -1.862  -8.616   4.480  1.00  0.00     0.003 A 
HETATM   33  C   UNL     1      -1.527  -7.516   3.681  1.00  0.00     0.029 A 
BRANCH  30  34
HETATM   34  C   UNL     1       0.943  -8.575   7.043  1.00  0.00     0.417 C 
HETATM   35  F   UNL     1       2.090  -7.844   7.126  1.00  0.00    -0.166 F 
HETATM   36  F   UNL     1       0.305  -8.403   8.234  1.00  0.00    -0.166 F 
HETATM   37  F   UNL     1       1.339  -9.879   7.017  1.00  0.00    -0.166 F 
ENDBRANCH  30  34
ENDBRANCH  25  28
ENDBRANCH   1  20
TORSDOF 6
