REMARK  6 active torsions:
REMARK  status: ('A' for Active; 'I' for Inactive)
REMARK    1  A    between atoms: O_2  and  C_3 
REMARK    2  A    between atoms: C_5  and  O_6 
REMARK    3  A    between atoms: C_8  and  N_9 
REMARK       I    between atoms: N_9  and  C_10 
REMARK    4  A    between atoms: C_10  and  C_11 
REMARK    5  A    between atoms: C_11  and  N_12 
REMARK    6  A    between atoms: C_18  and  C_19 
ROOT
HETATM    1  N   UNL     1       5.693   0.566   3.950  1.00  0.00    -0.063 N 
HETATM    2  H   UNL     1       5.792   0.687   2.934  1.00  0.00     0.280 HD
HETATM    3  C   UNL     1       5.745  -0.917   4.231  1.00  0.00     0.240 C 
HETATM    4  C   UNL     1       4.667  -1.613   3.426  1.00  0.00     0.083 C 
HETATM    5  C   UNL     1       3.276  -1.033   3.709  1.00  0.00     0.131 A 
HETATM    6  N   UNL     1       2.370  -1.607   2.684  1.00  0.00    -0.251 NA
HETATM    7  C   UNL     1       1.501  -2.351   3.316  1.00  0.00     0.132 A 
HETATM    8  C   UNL     1       1.711  -2.309   4.812  1.00  0.00     0.272 A 
HETATM    9  O   UNL     1       1.108  -2.909   5.666  1.00  0.00    -0.266 OA
HETATM   10  N   UNL     1       2.760  -1.455   4.973  1.00  0.00    -0.327 N 
HETATM   11  C   UNL     1       3.256   0.492   3.556  1.00  0.00     0.083 C 
HETATM   12  C   UNL     1       4.368   1.166   4.347  1.00  0.00     0.240 C 
HETATM   13  H   UNL     1       3.142  -1.300   5.899  1.00  0.00     0.165 HD
ENDROOT
BRANCH   1  14
HETATM   14  C   UNL     1       6.923   1.311   4.541  1.00  0.00     0.337 C 
BRANCH  14  15
HETATM   15  C   UNL     1       6.960   1.414   6.066  1.00  0.00     0.248 C 
HETATM   16  N   UNL     1       7.678   2.371   6.715  1.00  0.00    -0.323 N 
HETATM   17  H   UNL     1       7.402   2.427   7.692  1.00  0.00     0.169 HD
HETATM   18  O   UNL     1       6.234   0.684   6.752  1.00  0.00    -0.271 OA
BRANCH  16  19
HETATM   19  C   UNL     1       8.712   3.261   6.344  1.00  0.00     0.068 A 
HETATM   20  C   UNL     1       9.620   3.108   5.279  1.00  0.00     0.097 A 
HETATM   21  C   UNL     1      10.620   4.077   5.075  1.00  0.00     0.075 A 
HETATM   22  C   UNL     1      10.759   5.159   5.945  1.00  0.00     0.070 A 
HETATM   23  C   UNL     1       9.869   5.307   7.000  1.00  0.00     0.039 A 
HETATM   24  C   UNL     1       8.867   4.359   7.207  1.00  0.00     0.035 A 
BRANCH  20  25
HETATM   25  O   UNL     1       9.529   1.979   4.512  1.00  0.00    -0.354 OA
HETATM   26  C   UNL     1      10.650   1.642   3.693  1.00  0.00     0.210 C 
ENDBRANCH  20  25
BRANCH  22  27
HETATM   27  O   UNL     1      11.708   6.135   5.833  1.00  0.00    -0.356 OA
HETATM   28  C   UNL     1      12.968   5.711   5.319  1.00  0.00     0.210 C 
ENDBRANCH  22  27
ENDBRANCH  16  19
ENDBRANCH  14  15
ENDBRANCH   1  14
BRANCH   7  29
HETATM   29  C   UNL     1       0.465  -3.150   2.634  1.00  0.00    -0.002 A 
HETATM   30  C   UNL     1       0.591  -3.359   1.251  1.00  0.00     0.016 A 
HETATM   31  C   UNL     1      -0.353  -4.125   0.561  1.00  0.00     0.024 A 
HETATM   32  C   UNL     1      -1.429  -4.679   1.249  1.00  0.00     0.034 A 
HETATM   33 CL   UNL     1      -2.590  -5.624   0.403  1.00  0.00    -0.084 Cl
HETATM   34  C   UNL     1      -1.569  -4.470   2.620  1.00  0.00     0.024 A 
HETATM   35  C   UNL     1      -0.623  -3.706   3.314  1.00  0.00     0.016 A 
ENDBRANCH   7  29
TORSDOF 6
