REMARK  8 active torsions:
REMARK  status: ('A' for Active; 'I' for Inactive)
REMARK    1  A    between atoms: C_2  and  O_3 
REMARK    2  A    between atoms: O_3  and  C_4 
REMARK    3  A    between atoms: C_5  and  C_6 
REMARK    4  A    between atoms: C_6  and  N_7 
REMARK    5  A    between atoms: C_23  and  C_24 
REMARK    6  A    between atoms: N_25  and  N_26 
REMARK       I    between atoms: N_26  and  C_27 
REMARK    7  A    between atoms: C_27  and  C_28 
REMARK    8  A    between atoms: C_32  and  C_33 
ROOT
HETATM    1  C   UNL     1       4.443  -1.751  -0.249  1.00  0.00     0.076 A 
HETATM    2  C   UNL     1       5.341  -0.671  -0.130  1.00  0.00     0.002 A 
HETATM    3  C   UNL     1       6.706  -0.958  -0.004  1.00  0.00     0.024 A 
HETATM    4  C   UNL     1       7.184  -2.274  -0.067  1.00  0.00    -0.016 A 
HETATM    5  C   UNL     1       6.295  -3.334  -0.189  1.00  0.00     0.016 A 
HETATM    6  C   UNL     1       4.923  -3.069  -0.271  1.00  0.00     0.038 A 
ENDROOT
BRANCH   2   7
HETATM    7  C   UNL     1       4.805   0.744  -0.083  1.00  0.00     0.276 C 
BRANCH   7   8
HETATM    8  N   UNL     1       5.798   1.875  -0.362  1.00  0.00    -0.066 N 
HETATM    9  H   UNL     1       6.566   1.665   0.286  1.00  0.00     0.280 HD
HETATM   10  C   UNL     1       6.439   1.861  -1.743  1.00  0.00     0.246 C 
HETATM   11  C   UNL     1       5.718   2.749  -2.775  1.00  0.00     0.062 C 
HETATM   12  C   UNL     1       5.570   4.162  -2.229  1.00  0.00     0.020 C 
HETATM   13  C   UNL     1       4.371   2.176  -3.163  1.00  0.00     0.020 A 
HETATM   14  C   UNL     1       4.675   4.084  -1.003  1.00  0.00     0.031 C 
HETATM   15  C   UNL     1       3.283   3.597  -1.415  1.00  0.00     0.138 C 
HETATM   16  C   UNL     1       5.324   3.233   0.092  1.00  0.00     0.241 C 
HETATM   17  N   UNL     1       3.239   2.550  -2.434  1.00  0.00    -0.317 N 
HETATM   18  C   UNL     1       1.966   2.032  -2.715  1.00  0.00     0.247 A 
HETATM   19  O   UNL     1       0.956   2.319  -2.079  1.00  0.00    -0.268 OA
HETATM   20  C   UNL     1       1.877   1.071  -3.841  1.00  0.00     0.074 A 
HETATM   21  C   UNL     1       2.975   0.745  -4.530  1.00  0.00     0.007 A 
HETATM   22  C   UNL     1       4.253   1.308  -4.183  1.00  0.00     0.026 A 
ENDBRANCH   7   8
ENDBRANCH   2   7
BRANCH   1  23
HETATM   23  O   UNL     1       3.123  -1.396  -0.328  1.00  0.00    -0.351 OA
BRANCH  23  24
HETATM   24  C   UNL     1       2.162  -2.434  -0.534  1.00  0.00     0.171 C 
HETATM   25  C   UNL     1       0.799  -1.780  -0.674  1.00  0.00     0.034 C 
ENDBRANCH  23  24
ENDBRANCH   1  23
BRANCH   4  26
HETATM   26  C   UNL     1       8.646  -2.493  -0.049  1.00  0.00     0.150 C 
HETATM   27  N   UNL     1       9.418  -1.459  -0.115  1.00  0.00    -0.184 NA
BRANCH  27  28
HETATM   28  N   UNL     1      10.754  -1.673  -0.118  1.00  0.00    -0.242 N 
HETATM   29  C   UNL     1      11.622  -0.595  -0.226  1.00  0.00     0.292 C 
HETATM   30  O   UNL     1      11.266   0.579  -0.326  1.00  0.00    -0.264 OA
HETATM   31  H   UNL     1      11.164  -2.604  -0.051  1.00  0.00     0.192 HD
BRANCH  29  32
HETATM   32  C   UNL     1      13.033  -1.003  -0.212  1.00  0.00     0.148 A 
HETATM   33  N   UNL     1      13.407  -2.295  -0.127  1.00  0.00    -0.169 NA
HETATM   34  N   UNL     1      14.753  -2.246  -0.152  1.00  0.00    -0.281 N 
HETATM   35  H   UNL     1      15.265  -3.122  -0.110  1.00  0.00     0.189 HD
HETATM   36  C   UNL     1      15.267  -0.976  -0.230  1.00  0.00     0.038 A 
HETATM   37  C   UNL     1      14.162  -0.152  -0.285  1.00  0.00     0.066 A 
BRANCH  36  38
HETATM   38  C   UNL     1      16.753  -0.684  -0.279  1.00  0.00    -0.007 C 
HETATM   39  C   UNL     1      17.266  -0.901  -1.713  1.00  0.00     0.021 C 
HETATM   40  C   UNL     1      17.034   0.776   0.131  1.00  0.00     0.021 C 
HETATM   41  C   UNL     1      17.531  -1.602   0.684  1.00  0.00     0.021 C 
ENDBRANCH  36  38
ENDBRANCH  29  32
ENDBRANCH  27  28
ENDBRANCH   4  26
TORSDOF 8
