REMARK  8 active torsions:
REMARK  status: ('A' for Active; 'I' for Inactive)
REMARK    1  A    between atoms: C_2  and  N_3 
REMARK    2  A    between atoms: N_3  and  C_5 
REMARK    3  A    between atoms: N_3  and  C_29 
REMARK    4  A    between atoms: C_5  and  C_6 
REMARK    5  A    between atoms: C_6  and  N_7 
REMARK       I    between atoms: N_7  and  C_8 
REMARK    6  A    between atoms: C_8  and  C_9 
REMARK    7  A    between atoms: C_9  and  O_10 
REMARK    8  A    between atoms: N_11  and  C_12 
ROOT
HETATM    1  C   UNL     1      -2.033   1.250  -2.871  1.00  0.00     0.256 C 
HETATM    2  N   UNL     1      -2.074   1.505  -1.426  1.00  0.00    -0.254 N 
HETATM    3  C   UNL     1      -1.252   0.770  -0.587  1.00  0.00     0.330 C 
HETATM    4  O   UNL     1      -0.891   1.133   0.532  1.00  0.00    -0.246 OA
HETATM    5  N   UNL     1      -0.806  -0.437  -1.047  1.00  0.00    -0.308 N 
HETATM    6  C   UNL     1      -1.194  -1.017  -2.249  1.00  0.00     0.048 A 
HETATM    7  C   UNL     1      -1.851  -0.222  -3.186  1.00  0.00     0.034 A 
HETATM    8  C   UNL     1      -0.891  -2.351  -2.512  1.00  0.00     0.030 A 
HETATM    9  C   UNL     1      -1.264  -2.910  -3.733  1.00  0.00     0.002 A 
HETATM   10  C   UNL     1      -1.928  -2.134  -4.682  1.00  0.00     0.001 A 
HETATM   11  C   UNL     1      -2.216  -0.795  -4.415  1.00  0.00     0.015 A 
HETATM   12  H   UNL     1      -0.332  -0.999  -0.348  1.00  0.00     0.170 HD
ENDROOT
BRANCH   1  13
HETATM   13  C   UNL     1      -0.843   2.103  -3.499  1.00  0.00     0.279 C 
HETATM   14  N   UNL     1       0.440   1.565  -3.483  1.00  0.00    -0.355 N 
HETATM   15  H   UNL     1       0.491   0.555  -3.373  1.00  0.00     0.162 HD
HETATM   16  O   UNL     1      -1.016   3.251  -3.918  1.00  0.00    -0.268 OA
BRANCH  14  17
HETATM   17  C   UNL     1       1.484   2.167  -4.309  1.00  0.00     0.150 C 
BRANCH  17  18
HETATM   18  C   UNL     1       1.980   3.532  -3.801  1.00  0.00     0.254 C 
BRANCH  18  19
HETATM   19  N   UNL     1       2.278   3.492  -2.304  1.00  0.00    -0.070 N 
HETATM   20  H   UNL     1       1.420   3.101  -1.884  1.00  0.00     0.279 HD
BRANCH  19  21
HETATM   21  C   UNL     1       2.448   4.876  -1.705  1.00  0.00     0.230 C 
HETATM   22  C   UNL     1       1.099   5.538  -1.486  1.00  0.00     0.034 C 
ENDBRANCH  19  21
BRANCH  19  23
HETATM   23  C   UNL     1       3.382   2.542  -1.890  1.00  0.00     0.230 C 
HETATM   24  C   UNL     1       4.722   2.894  -2.511  1.00  0.00     0.034 C 
ENDBRANCH  19  23
ENDBRANCH  18  19
ENDBRANCH  17  18
ENDBRANCH  14  17
ENDBRANCH   1  13
BRANCH   1  25
HETATM   25  O   UNL     1      -3.271   1.626  -3.469  1.00  0.00    -0.359 OA
HETATM   26  H   UNL     1      -3.222   2.581  -3.642  1.00  0.00     0.213 HD
ENDBRANCH   1  25
BRANCH   2  27
HETATM   27  C   UNL     1      -2.925   2.504  -0.853  1.00  0.00     0.043 A 
HETATM   28  C   UNL     1      -3.083   3.781  -1.406  1.00  0.00     0.031 A 
HETATM   29  C   UNL     1      -3.976   4.701  -0.840  1.00  0.00     0.026 A 
HETATM   30  C   UNL     1      -4.726   4.349   0.279  1.00  0.00     0.034 A 
HETATM   31 CL   UNL     1      -5.837   5.473   0.953  1.00  0.00    -0.084 Cl
HETATM   32  C   UNL     1      -4.576   3.091   0.851  1.00  0.00     0.026 A 
HETATM   33  C   UNL     1      -3.671   2.181   0.295  1.00  0.00     0.031 A 
ENDBRANCH   2  27
TORSDOF 8
