REMARK  8 active torsions:
REMARK  status: ('A' for Active; 'I' for Inactive)
REMARK    1  A    between atoms: C_2  and  C_3 
REMARK    2  A    between atoms: C_3  and  C_4 
REMARK    3  A    between atoms: C_7  and  C_8 
REMARK    4  A    between atoms: C_8  and  N_9 
REMARK    5  A    between atoms: C_8  and  C_26 
REMARK    6  A    between atoms: N_9  and  C_12 
REMARK    7  A    between atoms: C_12  and  C_13 
REMARK       I    between atoms: C_13  and  N_14 
REMARK    8  A    between atoms: N_14  and  C_15 
ROOT
HETATM    1  N   UNL     1       9.410  -0.573  -0.156  1.00  0.00    -0.054 N 
HETATM    2  H   UNL     1      10.424  -0.729  -0.206  1.00  0.00     0.278 HD
HETATM    3  H   UNL     1       9.304   0.447  -0.269  1.00  0.00     0.278 HD
ENDROOT
BRANCH   1   4
HETATM    4  C   UNL     1       8.771  -1.284  -1.298  1.00  0.00     0.259 C 
BRANCH   4   5
HETATM    5  C   UNL     1       9.087  -0.635  -2.639  1.00  0.00    -0.023 A 
HETATM    6  C   UNL     1      10.281   0.066  -2.882  1.00  0.00     0.010 A 
HETATM    7  C   UNL     1      10.544   0.617  -4.138  1.00  0.00     0.007 A 
HETATM    8  C   UNL     1       9.635   0.466  -5.190  1.00  0.00    -0.058 A 
HETATM    9  C   UNL     1       8.449  -0.236  -4.960  1.00  0.00     0.007 A 
HETATM   10  C   UNL     1       8.176  -0.779  -3.701  1.00  0.00     0.010 A 
BRANCH   8  11
HETATM   11  C   UNL     1       9.951   1.025  -6.557  1.00  0.00     0.038 C 
BRANCH  11  12
HETATM   12  C   UNL     1      11.027   0.204  -7.271  1.00  0.00     0.000 C 
HETATM   13  C   UNL     1      11.333   0.766  -8.650  1.00  0.00     0.005 C 
ENDBRANCH  11  12
ENDBRANCH   8  11
ENDBRANCH   4   5
BRANCH   4  14
HETATM   14  C   UNL     1       9.096  -2.758  -1.287  1.00  0.00     0.017 A 
HETATM   15  S   UNL     1      10.728  -3.299  -1.192  1.00  0.00    -0.104 SA
HETATM   16  C   UNL     1      10.258  -4.939  -1.234  1.00  0.00     0.050 A 
HETATM   17  C   UNL     1       8.892  -5.084  -1.313  1.00  0.00     0.008 A 
HETATM   18  C   UNL     1       8.220  -3.827  -1.343  1.00  0.00     0.017 A 
ENDBRANCH   4  14
ENDBRANCH   1   4
BRANCH   1  19
HETATM   19  C   UNL     1       8.954  -0.922   1.234  1.00  0.00     0.336 C 
BRANCH  19  20
HETATM   20  C   UNL     1       9.687  -0.015   2.226  1.00  0.00     0.248 C 
HETATM   21  N   UNL     1       9.777  -0.508   3.510  1.00  0.00    -0.326 N 
HETATM   22  H   UNL     1       9.329  -1.392   3.728  1.00  0.00     0.169 HD
HETATM   23  O   UNL     1      10.162   1.033   1.789  1.00  0.00    -0.271 OA
BRANCH  21  24
HETATM   24  C   UNL     1      10.483   0.077   4.590  1.00  0.00     0.037 A 
HETATM   25  C   UNL     1      11.165   1.298   4.501  1.00  0.00     0.061 A 
HETATM   26  C   UNL     1      11.832   1.730   5.627  1.00  0.00     0.065 A 
HETATM   27  C   UNL     1      11.841   1.006   6.815  1.00  0.00     0.063 A 
HETATM   28  N   UNL     1      12.586   2.881   5.821  1.00  0.00    -0.306 N 
HETATM   29  N   UNL     1      12.603   1.709   7.740  1.00  0.00    -0.307 N 
HETATM   30  C   UNL     1      11.180  -0.188   6.943  1.00  0.00     0.034 A 
HETATM   31  C   UNL     1      13.076   2.883   7.136  1.00  0.00     0.325 A 
HETATM   32  H   UNL     1      12.807   1.455   8.693  1.00  0.00     0.170 HD
HETATM   33  O   UNL     1      13.776   3.736   7.648  1.00  0.00    -0.247 OA
HETATM   34  C   UNL     1      10.493  -0.651   5.811  1.00  0.00     0.032 A 
HETATM   35  H   UNL     1      12.776   3.617   5.159  1.00  0.00     0.170 HD
ENDBRANCH  21  24
ENDBRANCH  19  20
ENDBRANCH   1  19
TORSDOF 8
