REMARK  9 active torsions:
REMARK  status: ('A' for Active; 'I' for Inactive)
REMARK    1  A    between atoms: C_2  and  N_3 
REMARK    2  A    between atoms: C_4  and  S_5 
REMARK    3  A    between atoms: S_5  and  C_6 
REMARK    4  A    between atoms: C_6  and  C_7 
REMARK       I    between atoms: C_7  and  N_8 
REMARK    5  A    between atoms: N_8  and  C_9 
REMARK    6  A    between atoms: C_9  and  C_10 
REMARK    7  A    between atoms: C_10  and  C_11 
REMARK    8  A    between atoms: C_14  and  O_15 
REMARK    9  A    between atoms: C_22  and  C_23 
ROOT
HETATM    1  S   UNL     1       2.757   3.691  -1.022  1.00  0.00    -0.081 SA
ENDROOT
BRANCH   1   2
HETATM    2  C   UNL     1       3.179   2.088  -1.510  1.00  0.00     0.192 A 
HETATM    3  N   UNL     1       3.648   1.757  -2.753  1.00  0.00    -0.308 N 
HETATM    4  C   UNL     1       3.813   0.385  -2.732  1.00  0.00     0.165 A 
HETATM    5  N   UNL     1       3.465  -0.058  -1.536  1.00  0.00    -0.128 NA
HETATM    6  N   UNL     1       3.074   1.011  -0.770  1.00  0.00    -0.122 NA
BRANCH   3   7
HETATM    7  C   UNL     1       3.884   2.644  -3.872  1.00  0.00     0.128 C 
HETATM    8  C   UNL     1       2.683   2.760  -4.795  1.00  0.00     0.027 C 
ENDBRANCH   3   7
BRANCH   4   9
HETATM    9  C   UNL     1       4.226  -0.452  -3.859  1.00  0.00     0.018 A 
HETATM   10  C   UNL     1       3.348  -1.404  -4.421  1.00  0.00    -0.048 A 
HETATM   11  C   UNL     1       1.966  -1.630  -3.867  1.00  0.00     0.049 C 
HETATM   12  C   UNL     1       3.786  -2.188  -5.501  1.00  0.00     0.007 A 
HETATM   13  C   UNL     1       5.071  -2.033  -6.021  1.00  0.00     0.001 A 
HETATM   14  C   UNL     1       5.942  -1.107  -5.458  1.00  0.00     0.001 A 
HETATM   15  C   UNL     1       5.525  -0.327  -4.377  1.00  0.00     0.016 A 
ENDBRANCH   4   9
ENDBRANCH   1   2
BRANCH   1  16
HETATM   16  C   UNL     1       2.588   3.445   0.771  1.00  0.00     0.185 C 
BRANCH  16  17
HETATM   17  C   UNL     1       2.383   4.788   1.453  1.00  0.00     0.227 C 
HETATM   18  N   UNL     1       1.216   4.888   2.189  1.00  0.00    -0.360 N 
HETATM   19  H   UNL     1       0.499   4.187   2.050  1.00  0.00     0.162 HD
HETATM   20  O   UNL     1       3.202   5.702   1.376  1.00  0.00    -0.273 OA
BRANCH  18  21
HETATM   21  C   UNL     1       0.820   6.144   2.804  1.00  0.00     0.127 C 
BRANCH  21  22
HETATM   22  C   UNL     1       0.124   5.927   4.148  1.00  0.00     0.058 C 
BRANCH  22  23
HETATM   23  C   UNL     1      -0.302   7.234   4.769  1.00  0.00    -0.057 A 
HETATM   24  C   UNL     1      -1.577   7.756   4.526  1.00  0.00     0.010 A 
HETATM   25  C   UNL     1      -1.948   8.988   5.069  1.00  0.00     0.037 A 
HETATM   26  C   UNL     1      -1.057   9.720   5.856  1.00  0.00     0.068 A 
HETATM   27  C   UNL     1       0.213   9.202   6.105  1.00  0.00     0.037 A 
HETATM   28  C   UNL     1       0.589   7.967   5.563  1.00  0.00     0.010 A 
BRANCH  26  29
HETATM   29  O   UNL     1      -1.545  10.913   6.315  1.00  0.00    -0.356 OA
HETATM   30  C   UNL     1      -0.647  11.733   7.052  1.00  0.00     0.210 C 
ENDBRANCH  26  29
ENDBRANCH  22  23
ENDBRANCH  21  22
ENDBRANCH  18  21
ENDBRANCH  16  17
ENDBRANCH   1  16
TORSDOF 9
