REMARK  5 active torsions:
REMARK  status: ('A' for Active; 'I' for Inactive)
REMARK    1  A    between atoms: C_3  and  N_4 
REMARK       I    between atoms: N_4  and  C_5 
REMARK       I    between atoms: C_5  and  N_6 
REMARK    2  A    between atoms: N_6  and  C_7 
REMARK    3  A    between atoms: C_8  and  O_9 
REMARK    4  A    between atoms: O_9  and  C_10 
REMARK    5  A    between atoms: C_10  and  C_11 
ROOT
HETATM    1  N   UNL     1       3.349   4.541  -1.677  1.00  0.00    -0.307 N 
HETATM    2  C   UNL     1       3.607   3.401  -0.936  1.00  0.00     0.325 C 
HETATM    3  N   UNL     1       4.964   3.314  -0.689  1.00  0.00    -0.306 N 
HETATM    4  O   UNL     1       2.766   2.602  -0.552  1.00  0.00    -0.247 OA
HETATM    5  H   UNL     1       3.981   5.300  -1.463  1.00  0.00     0.170 HD
HETATM    6  H   UNL     1       5.563   3.989  -1.147  1.00  0.00     0.171 HD
ENDROOT
BRANCH   3   7
HETATM    7  C   UNL     1       5.687   2.292  -0.039  1.00  0.00     0.069 A 
HETATM    8  C   UNL     1       7.094   2.403  -0.080  1.00  0.00     0.095 A 
HETATM    9  C   UNL     1       7.891   1.424   0.517  1.00  0.00     0.039 A 
HETATM   10  C   UNL     1       7.292   0.332   1.147  1.00  0.00     0.003 A 
HETATM   11  C   UNL     1       5.903   0.221   1.188  1.00  0.00     0.002 A 
HETATM   12  C   UNL     1       5.099   1.200   0.598  1.00  0.00     0.032 A 
BRANCH   8  13
HETATM   13  O   UNL     1       7.574   3.529  -0.707  1.00  0.00    -0.348 OA
BRANCH  13  14
HETATM   14  C   UNL     1       8.904   3.462  -1.221  1.00  0.00     0.180 C 
BRANCH  14  15
HETATM   15  C   UNL     1       9.208   4.690  -2.036  1.00  0.00     0.010 A 
HETATM   16  C   UNL     1       8.141   5.467  -2.769  1.00  0.00     0.007 A 
HETATM   17  C   UNL     1       8.804   6.062  -1.555  1.00  0.00     0.007 A 
ENDBRANCH  14  15
ENDBRANCH  13  14
ENDBRANCH   8  13
ENDBRANCH   3   7
BRANCH   1  18
HETATM   18  C   UNL     1       2.189   4.898  -2.402  1.00  0.00     0.059 A 
HETATM   19  C   UNL     1       1.233   4.034  -2.955  1.00  0.00    -0.032 A 
HETATM   20  C   UNL     1       1.270   2.535  -2.877  1.00  0.00     0.050 C 
HETATM   21  C   UNL     1       0.157   4.602  -3.664  1.00  0.00     0.028 A 
HETATM   22  C   UNL     1       0.093   5.974  -3.843  1.00  0.00     0.117 A 
HETATM   23  N   UNL     1       1.015   6.826  -3.366  1.00  0.00    -0.271 NA
HETATM   24  C   UNL     1       2.029   6.267  -2.663  1.00  0.00     0.146 A 
ENDBRANCH   1  18
TORSDOF 5
