REMARK  9 active torsions:
REMARK  status: ('A' for Active; 'I' for Inactive)
REMARK    1  A    between atoms: C_7  and  C_8 
REMARK    2  A    between atoms: C_9  and  O_10 
REMARK    3  A    between atoms: C_13  and  N_14 
REMARK    4  A    between atoms: N_14  and  C_15 
REMARK    5  A    between atoms: C_15  and  N_16 
REMARK       I    between atoms: N_16  and  C_17 
REMARK    6  A    between atoms: C_17  and  C_18 
REMARK    7  A    between atoms: C_21  and  O_22 
REMARK    8  A    between atoms: O_22  and  C_23 
REMARK    9  A    between atoms: C_23  and  C_24 
ROOT
HETATM    1  N   UNL     1       8.615  -5.794  -0.340  1.00  0.00    -0.337 N 
HETATM    2  H   UNL     1       9.300  -5.690   0.399  1.00  0.00     0.168 HD
ENDROOT
BRANCH   1   3
HETATM    3  C   UNL     1       9.123  -5.812  -1.659  1.00  0.00     0.035 A 
HETATM    4  C   UNL     1      10.503  -5.934  -1.832  1.00  0.00     0.032 A 
HETATM    5  C   UNL     1      11.058  -5.894  -3.112  1.00  0.00     0.040 A 
HETATM    6  C   UNL     1      10.238  -5.698  -4.222  1.00  0.00     0.080 A 
HETATM    7  C   UNL     1       8.852  -5.543  -4.078  1.00  0.00     0.052 A 
HETATM    8  C   UNL     1       8.310  -5.606  -2.781  1.00  0.00     0.048 A 
BRANCH   6   9
HETATM    9  O   UNL     1      10.872  -5.649  -5.438  1.00  0.00    -0.360 OA
HETATM   10  H   UNL     1      10.201  -5.469  -6.131  1.00  0.00     0.217 HD
ENDBRANCH   6   9
BRANCH   7  11
HETATM   11  C   UNL     1       8.004  -5.281  -5.238  1.00  0.00     0.183 A 
HETATM   12  N   UNL     1       8.377  -5.109  -6.498  1.00  0.00    -0.221 NA
HETATM   13  C   UNL     1       7.194  -4.853  -7.150  1.00  0.00     0.093 A 
HETATM   14  C   UNL     1       6.141  -4.897  -6.251  1.00  0.00     0.107 A 
HETATM   15  C   UNL     1       6.923  -4.565  -8.492  1.00  0.00     0.035 A 
HETATM   16  C   UNL     1       4.807  -4.684  -6.578  1.00  0.00     0.046 A 
HETATM   17  O   UNL     1       6.654  -5.172  -5.019  1.00  0.00    -0.289 OA
HETATM   18  C   UNL     1       4.538  -4.409  -7.930  1.00  0.00    -0.059 A 
HETATM   19  C   UNL     1       3.128  -4.129  -8.368  1.00  0.00     0.048 C 
HETATM   20  C   UNL     1       5.588  -4.338  -8.866  1.00  0.00     0.009 A 
ENDBRANCH   7  11
ENDBRANCH   1   3
BRANCH   1  21
HETATM   21  C   UNL     1       7.328  -6.048   0.069  1.00  0.00     0.157 C 
HETATM   22  S   UNL     1       6.308  -7.228  -0.543  1.00  0.00    -0.047 SA
BRANCH  21  23
HETATM   23  N   UNL     1       6.846  -5.271   1.101  1.00  0.00    -0.201 NA
HETATM   24  C   UNL     1       7.230  -3.957   1.255  1.00  0.00     0.237 C 
HETATM   25  O   UNL     1       6.539  -3.025   0.857  1.00  0.00    -0.274 OA
HETATM   26  H   UNL     1       5.834  -5.331   1.048  1.00  0.00     0.139 HD
BRANCH  24  27
HETATM   27  C   UNL     1       8.476  -3.698   2.011  1.00  0.00     0.026 A 
HETATM   28  C   UNL     1       9.318  -2.664   1.593  1.00  0.00     0.019 A 
HETATM   29  C   UNL     1      10.445  -2.329   2.352  1.00  0.00     0.038 A 
HETATM   30  C   UNL     1      10.711  -3.004   3.545  1.00  0.00     0.068 A 
HETATM   31  C   UNL     1       9.881  -4.058   3.941  1.00  0.00     0.038 A 
HETATM   32  C   UNL     1       8.764  -4.411   3.178  1.00  0.00     0.019 A 
BRANCH  30  33
HETATM   33  O   UNL     1      11.738  -2.726   4.406  1.00  0.00    -0.351 OA
BRANCH  33  34
HETATM   34  C   UNL     1      12.383  -1.460   4.242  1.00  0.00     0.179 C 
BRANCH  34  35
HETATM   35  C   UNL     1      13.239  -1.166   5.483  1.00  0.00     0.002 C 
HETATM   36  C   UNL     1      14.066   0.101   5.269  1.00  0.00     0.011 C 
HETATM   37  C   UNL     1      12.371  -1.024   6.735  1.00  0.00     0.011 C 
ENDBRANCH  34  35
ENDBRANCH  33  34
ENDBRANCH  30  33
ENDBRANCH  24  27
ENDBRANCH  21  23
ENDBRANCH   1  21
TORSDOF 9
