REMARK  5 active torsions:
REMARK  status: ('A' for Active; 'I' for Inactive)
REMARK    1  A    between atoms: C_6  and  N_7 
REMARK       I    between atoms: N_7  and  C_8 
REMARK    2  A    between atoms: C_8  and  C_9 
REMARK    3  A    between atoms: C_9  and  O_10 
REMARK    4  A    between atoms: O_10  and  C_11 
REMARK    5  A    between atoms: C_19  and  C_20 
ROOT
HETATM    1  C   UNL     1       8.592  -5.267   2.531  1.00  0.00     0.073 C 
HETATM    2  C   UNL     1       8.453  -3.874   2.037  1.00  0.00     0.065 A 
HETATM    3  N   UNL     1       8.058  -3.650   0.777  1.00  0.00    -0.177 NA
HETATM    4  N   UNL     1       8.019  -2.310   0.686  1.00  0.00    -0.262 N 
HETATM    5  H   UNL     1       7.739  -1.874  -0.189  1.00  0.00     0.191 HD
HETATM    6  C   UNL     1       8.397  -1.662   1.834  1.00  0.00     0.137 A 
HETATM    7  C   UNL     1       8.677  -2.659   2.747  1.00  0.00     0.046 A 
ENDROOT
BRANCH   6   8
HETATM    8  N   UNL     1       8.462  -0.285   1.952  1.00  0.00    -0.309 N 
HETATM    9  C   UNL     1       8.095   0.563   0.921  1.00  0.00     0.252 C 
HETATM   10  O   UNL     1       7.687   0.188  -0.179  1.00  0.00    -0.270 OA
HETATM   11  H   UNL     1       8.842   0.112   2.806  1.00  0.00     0.170 HD
BRANCH   9  12
HETATM   12  C   UNL     1       8.179   2.053   1.285  1.00  0.00     0.217 C 
HETATM   13  C   UNL     1       7.031   2.400   2.230  1.00  0.00     0.050 C 
BRANCH  12  14
HETATM   14  O   UNL     1       9.392   2.369   1.968  1.00  0.00    -0.337 OA
BRANCH  14  15
HETATM   15  C   UNL     1      10.479   2.692   1.202  1.00  0.00     0.070 A 
HETATM   16  C   UNL     1      11.495   3.366   1.885  1.00  0.00     0.037 A 
HETATM   17  C   UNL     1      12.659   3.758   1.221  1.00  0.00     0.003 A 
HETATM   18  C   UNL     1      12.819   3.465  -0.130  1.00  0.00     0.000 A 
HETATM   19  C   UNL     1      11.817   2.778  -0.814  1.00  0.00     0.003 A 
HETATM   20  C   UNL     1      10.650   2.389  -0.150  1.00  0.00     0.037 A 
ENDBRANCH  14  15
ENDBRANCH  12  14
ENDBRANCH   9  12
ENDBRANCH   6   8
BRANCH   7  21
HETATM   21  C   UNL     1       9.082  -2.442   4.122  1.00  0.00    -0.020 A 
HETATM   22  C   UNL     1       8.266  -1.707   4.993  1.00  0.00     0.014 A 
HETATM   23  C   UNL     1       8.646  -1.516   6.324  1.00  0.00     0.020 A 
HETATM   24  C   UNL     1       9.841  -2.065   6.786  1.00  0.00     0.011 A 
HETATM   25 BR   UNL     1      10.352  -1.815   8.588  1.00  0.00    -0.051 Br
HETATM   26  C   UNL     1      10.659  -2.801   5.930  1.00  0.00     0.020 A 
HETATM   27  C   UNL     1      10.279  -2.989   4.599  1.00  0.00     0.014 A 
ENDBRANCH   7  21
TORSDOF 5
