REMARK  2 active torsions:
REMARK  status: ('A' for Active; 'I' for Inactive)
REMARK    1  A    between atoms: C_6  and  N_7 
REMARK       I    between atoms: N_7  and  C_8 
REMARK       I    between atoms: C_8  and  N_9 
REMARK    2  A    between atoms: N_9  and  C_10 
ROOT
HETATM    1  N   UNL     1       1.875   4.766  -1.364  1.00  0.00    -0.306 N 
HETATM    2  C   UNL     1       2.174   3.452  -1.555  1.00  0.00     0.321 C 
HETATM    3  N   UNL     1       2.111   2.614  -0.487  1.00  0.00    -0.338 N 
HETATM    4  O   UNL     1       2.361   3.037  -2.697  1.00  0.00    -0.247 OA
HETATM    5  H   UNL     1       1.662   5.207  -2.252  1.00  0.00     0.171 HD
HETATM    6  H   UNL     1       2.255   3.032   0.421  1.00  0.00     0.164 HD
ENDROOT
BRANCH   3   7
HETATM    7  C   UNL     1       2.287   1.172  -0.567  1.00  0.00     0.089 C 
HETATM    8  C   UNL     1       1.162   0.506  -1.380  1.00  0.00     0.058 C 
HETATM    9  C   UNL     1       1.374  -0.992  -1.383  1.00  0.00     0.190 C 
HETATM   10  N   UNL     1       2.725  -1.283  -1.981  1.00  0.00    -0.067 N 
HETATM   11  C   UNL     1       0.471  -1.819  -2.273  1.00  0.00     0.035 C 
HETATM   12  H   UNL     1       2.771  -0.804  -2.895  1.00  0.00     0.280 HD
HETATM   13  C   UNL     1       3.850  -0.748  -1.153  1.00  0.00     0.237 C 
HETATM   14  C   UNL     1       2.727  -2.761  -2.277  1.00  0.00     0.235 C 
HETATM   15  C   UNL     1       3.691   0.766  -1.053  1.00  0.00     0.053 C 
HETATM   16  C   UNL     1       1.247  -3.127  -2.401  1.00  0.00     0.030 C 
ENDBRANCH   3   7
BRANCH   1  17
HETATM   17  C   UNL     1       1.561   5.514  -0.206  1.00  0.00     0.077 A 
HETATM   18  C   UNL     1       2.101   5.384   1.078  1.00  0.00     0.152 A 
HETATM   19  N   UNL     1       1.701   6.095   2.159  1.00  0.00    -0.247 NA
HETATM   20 CL   UNL     1       3.476   4.412   1.450  1.00  0.00    -0.060 Cl
HETATM   21  C   UNL     1       0.746   7.024   1.958  1.00  0.00     0.118 A 
HETATM   22  C   UNL     1       0.190   7.288   0.720  1.00  0.00     0.022 A 
HETATM   23  C   UNL     1       0.614   6.532  -0.372  1.00  0.00     0.034 A 
ENDBRANCH   1  17
TORSDOF 2
