REMARK  4 active torsions:
REMARK  status: ('A' for Active; 'I' for Inactive)
REMARK    1  A    between atoms: O_2  and  C_3 
REMARK    2  A    between atoms: C_6  and  C_7 
REMARK    3  A    between atoms: C_11  and  C_12 
REMARK       I    between atoms: C_12  and  N_13 
REMARK    4  A    between atoms: N_13  and  N_14 
ROOT
HETATM    1  C   UNL     1       4.766  -8.332  -1.952  1.00  0.00     0.289 C 
HETATM    2  N   UNL     1       3.761  -8.859  -1.156  1.00  0.00    -0.241 N 
HETATM    3  O   UNL     1       5.466  -8.977  -2.725  1.00  0.00    -0.264 OA
HETATM    4  H   UNL     1       3.386  -8.288  -0.414  1.00  0.00     0.192 HD
ENDROOT
BRANCH   1   5
HETATM    5  C   UNL     1       4.914  -6.902  -1.814  1.00  0.00     0.121 A 
HETATM    6  N   UNL     1       5.875  -6.202  -2.488  1.00  0.00    -0.272 N 
HETATM    7  N   UNL     1       5.854  -4.878  -2.256  1.00  0.00    -0.174 NA
HETATM    8  H   UNL     1       6.570  -6.581  -3.125  1.00  0.00     0.189 HD
HETATM    9  C   UNL     1       4.822  -4.696  -1.418  1.00  0.00     0.089 A 
HETATM   10  C   UNL     1       4.223  -5.945  -1.099  1.00  0.00     0.071 A 
BRANCH   9  11
HETATM   11  C   UNL     1       4.425  -3.372  -0.931  1.00  0.00    -0.005 A 
HETATM   12  C   UNL     1       3.134  -3.148  -0.434  1.00  0.00     0.016 A 
HETATM   13  C   UNL     1       2.767  -1.891   0.056  1.00  0.00     0.037 A 
HETATM   14  C   UNL     1       3.680  -0.837   0.063  1.00  0.00     0.068 A 
HETATM   15  C   UNL     1       4.961  -1.042  -0.449  1.00  0.00     0.037 A 
HETATM   16  C   UNL     1       5.328  -2.301  -0.944  1.00  0.00     0.016 A 
BRANCH  14  17
HETATM   17  O   UNL     1       3.196   0.330   0.584  1.00  0.00    -0.356 OA
HETATM   18  C   UNL     1       4.136   1.378   0.783  1.00  0.00     0.210 C 
ENDBRANCH  14  17
ENDBRANCH   9  11
ENDBRANCH   1   5
BRANCH   2  19
HETATM   19  N   UNL     1       3.518 -10.197  -1.102  1.00  0.00    -0.165 NA
HETATM   20  C   UNL     1       2.418 -10.595  -0.540  1.00  0.00     0.157 A 
HETATM   21  C   UNL     1       2.161 -12.086  -0.235  1.00  0.00     0.277 A 
HETATM   22  C   UNL     1       1.231  -9.880  -0.042  1.00  0.00     0.027 A 
HETATM   23  O   UNL     1       2.870 -13.020  -0.533  1.00  0.00    -0.266 OA
HETATM   24  N   UNL     1       0.974 -12.115   0.464  1.00  0.00    -0.321 N 
HETATM   25  C   UNL     1       0.427 -10.843   0.573  1.00  0.00     0.048 A 
HETATM   26  H   UNL     1       0.561 -12.974   0.795  1.00  0.00     0.169 HD
HETATM   27  C   UNL     1      -0.777 -10.519   1.167  1.00  0.00     0.030 A 
HETATM   28  C   UNL     1      -1.184  -9.184   1.118  1.00  0.00     0.002 A 
HETATM   29  C   UNL     1      -0.401  -8.216   0.464  1.00  0.00     0.001 A 
HETATM   30  C   UNL     1       0.815  -8.563  -0.136  1.00  0.00     0.016 A 
ENDBRANCH   2  19
TORSDOF 4
