REMARK  4 active torsions:
REMARK  status: ('A' for Active; 'I' for Inactive)
REMARK    1  A    between atoms: C_2  and  C_3 
REMARK    2  A    between atoms: C_4  and  C_5 
REMARK       I    between atoms: C_5  and  N_6 
REMARK    3  A    between atoms: N_6  and  C_7 
REMARK    4  A    between atoms: C_14  and  C_15 
REMARK       I    between atoms: C_15  and  N_16 
ROOT
HETATM    1  C   UNL     1       4.726   4.305  -2.853  1.00  0.00     0.035 A 
HETATM    2  C   UNL     1       5.466   5.496  -2.755  1.00  0.00     0.046 A 
HETATM    3  C   UNL     1       6.687   5.620  -3.451  1.00  0.00     0.030 A 
HETATM    4  C   UNL     1       7.137   4.547  -4.209  1.00  0.00     0.063 A 
HETATM    5  N   UNL     1       8.322   4.958  -4.752  1.00  0.00    -0.277 N 
HETATM    6  H   UNL     1       8.932   4.427  -5.363  1.00  0.00     0.189 HD
HETATM    7  N   UNL     1       8.680   6.211  -4.421  1.00  0.00    -0.168 NA
HETATM    8  C   UNL     1       7.679   6.631  -3.616  1.00  0.00     0.156 A 
HETATM    9  C   UNL     1       6.434   3.346  -4.317  1.00  0.00     0.034 A 
HETATM   10  C   UNL     1       5.219   3.250  -3.624  1.00  0.00     0.032 A 
ENDROOT
BRANCH   1  11
HETATM   11  N   UNL     1       3.509   4.252  -2.142  1.00  0.00    -0.327 N 
HETATM   12  C   UNL     1       2.567   3.246  -2.172  1.00  0.00     0.227 C 
HETATM   13  O   UNL     1       2.570   2.249  -2.880  1.00  0.00    -0.273 OA
HETATM   14  H   UNL     1       3.283   5.065  -1.584  1.00  0.00     0.169 HD
BRANCH  12  15
HETATM   15  C   UNL     1       1.381   3.491  -1.305  1.00  0.00     0.087 A 
HETATM   16  C   UNL     1       1.137   2.703  -0.028  1.00  0.00     0.032 A 
HETATM   17  C   UNL     1       1.445   4.183   0.029  1.00  0.00     0.025 A 
BRANCH  16  18
HETATM   18  C   UNL     1       2.130   1.739   0.583  1.00  0.00    -0.053 A 
HETATM   19  C   UNL     1       2.539   1.881   1.923  1.00  0.00     0.009 A 
HETATM   20  C   UNL     1       3.436   0.987   2.516  1.00  0.00     0.024 A 
HETATM   21  C   UNL     1       3.940  -0.076   1.775  1.00  0.00     0.034 A 
HETATM   22  C   UNL     1       3.543  -0.256   0.455  1.00  0.00     0.024 A 
HETATM   23 CL   UNL     1       5.048  -1.176   2.497  1.00  0.00    -0.084 Cl
HETATM   24  C   UNL     1       2.637   0.637  -0.126  1.00  0.00     0.009 A 
ENDBRANCH  16  18
ENDBRANCH  12  15
ENDBRANCH   1  11
BRANCH   8  25
HETATM   25  C   UNL     1       7.680   7.979  -3.031  1.00  0.00     0.270 C 
HETATM   26  N   UNL     1       8.761   8.740  -3.384  1.00  0.00    -0.365 N 
HETATM   27  H   UNL     1       9.454   8.338  -4.005  1.00  0.00     0.159 HD
HETATM   28  H   UNL     1       8.846   9.683  -3.040  1.00  0.00     0.159 HD
HETATM   29  O   UNL     1       6.804   8.414  -2.291  1.00  0.00    -0.266 OA
ENDBRANCH   8  25
TORSDOF 4
