REMARK  6 active torsions:
REMARK  status: ('A' for Active; 'I' for Inactive)
REMARK    1  A    between atoms: C_2  and  N_3 
REMARK    2  A    between atoms: C_2  and  C_12 
REMARK       I    between atoms: N_3  and  C_4 
REMARK    3  A    between atoms: C_4  and  C_5 
REMARK    4  A    between atoms: C_12  and  C_13 
REMARK       I    between atoms: C_13  and  N_14 
REMARK    5  A    between atoms: N_14  and  C_15 
REMARK    6  A    between atoms: C_17  and  C_18 
ROOT
HETATM    1  C   UNL     1       4.534  -1.628   0.288  1.00  0.00     0.224 C 
HETATM    2  N   UNL     1       5.007  -1.090  -0.894  1.00  0.00    -0.327 N 
HETATM    3  O   UNL     1       5.193  -1.875   1.294  1.00  0.00    -0.273 OA
HETATM    4  H   UNL     1       4.318  -0.859  -1.600  1.00  0.00     0.169 HD
ENDROOT
BRANCH   1   5
HETATM    5  C   UNL     1       3.039  -1.865   0.287  1.00  0.00     0.128 C 
BRANCH   5   6
HETATM    6  C   UNL     1       2.311  -0.708   0.980  1.00  0.00     0.089 C 
HETATM    7  C   UNL     1       2.065   0.471   0.036  1.00  0.00     0.032 C 
BRANCH   6   8
HETATM    8  N   UNL     1       1.070  -1.156   1.611  1.00  0.00    -0.352 N 
HETATM    9  C   UNL     1       0.028  -1.737   0.917  1.00  0.00     0.252 C 
HETATM   10  O   UNL     1       0.020  -1.872  -0.301  1.00  0.00    -0.268 OA
HETATM   11  H   UNL     1       1.100  -1.278   2.615  1.00  0.00     0.163 HD
BRANCH   9  12
HETATM   12  C   UNL     1      -1.094  -2.269   1.743  1.00  0.00     0.032 A 
HETATM   13  C   UNL     1      -1.416  -1.732   2.997  1.00  0.00     0.017 A 
HETATM   14  C   UNL     1      -2.460  -2.282   3.746  1.00  0.00     0.001 A 
HETATM   15  C   UNL     1      -3.191  -3.358   3.242  1.00  0.00     0.000 A 
HETATM   16  C   UNL     1      -2.888  -3.882   1.986  1.00  0.00     0.001 A 
HETATM   17  C   UNL     1      -1.844  -3.336   1.236  1.00  0.00     0.017 A 
ENDBRANCH   9  12
ENDBRANCH   6   8
ENDBRANCH   5   6
ENDBRANCH   1   5
BRANCH   2  18
HETATM   18  C   UNL     1       6.350  -0.812  -1.228  1.00  0.00     0.035 A 
HETATM   19  C   UNL     1       7.442  -1.160  -0.426  1.00  0.00     0.042 A 
HETATM   20  C   UNL     1       8.760  -0.881  -0.826  1.00  0.00    -0.021 A 
HETATM   21  C   UNL     1       8.970  -0.231  -2.048  1.00  0.00     0.012 A 
HETATM   22  C   UNL     1       7.888   0.125  -2.855  1.00  0.00     0.003 A 
HETATM   23  C   UNL     1       6.586  -0.170  -2.449  1.00  0.00     0.029 A 
BRANCH  20  24
HETATM   24  C   UNL     1       9.877  -1.290   0.014  1.00  0.00     0.010 A 
HETATM   25  C   UNL     1       9.974  -2.316   0.986  1.00  0.00     0.152 A 
HETATM   26  N   UNL     1      11.182  -2.383   1.552  1.00  0.00    -0.187 NA
HETATM   27  N   UNL     1      11.861  -1.392   0.956  1.00  0.00    -0.289 N 
HETATM   28  H   UNL     1      12.825  -1.237   1.233  1.00  0.00     0.188 HD
HETATM   29  C   UNL     1      11.128  -0.710   0.028  1.00  0.00     0.123 A 
ENDBRANCH  20  24
ENDBRANCH   2  18
TORSDOF 6
