REMARK  9 active torsions:
REMARK  status: ('A' for Active; 'I' for Inactive)
REMARK    1  A    between atoms: C_2  and  O_3 
REMARK    2  A    between atoms: O_3  and  C_4 
REMARK    3  A    between atoms: C_4  and  C_5 
REMARK    4  A    between atoms: C_7  and  C_8 
REMARK       I    between atoms: C_8  and  N_9 
REMARK    5  A    between atoms: N_9  and  N_10 
REMARK    6  A    between atoms: N_10  and  C_11 
REMARK    7  A    between atoms: C_11  and  N_12 
REMARK    8  A    between atoms: N_12  and  C_13 
REMARK    9  A    between atoms: C_13  and  C_14 
ROOT
HETATM    1  C   UNL     1      16.094   2.971  -7.979  1.00  0.00     0.078 A 
HETATM    2  O   UNL     1      15.880   2.882  -6.636  1.00  0.00    -0.307 OA
HETATM    3  C   UNL     1      15.624   4.145  -6.169  1.00  0.00     0.145 A 
HETATM    4  C   UNL     1      15.663   5.033  -7.232  1.00  0.00     0.045 A 
HETATM    5  C   UNL     1      15.965   4.279  -8.391  1.00  0.00     0.038 A 
ENDROOT
BRANCH   3   6
HETATM    6  C   UNL     1      15.388   4.314  -4.748  1.00  0.00     0.293 C 
HETATM    7  N   UNL     1      15.049   5.604  -4.368  1.00  0.00    -0.262 N 
HETATM    8  H   UNL     1      14.770   6.308  -5.045  1.00  0.00     0.190 HD
HETATM    9  O   UNL     1      15.468   3.415  -3.909  1.00  0.00    -0.264 OA
BRANCH   7  10
HETATM   10  N   UNL     1      14.651   5.832  -3.036  1.00  0.00    -0.274 N 
HETATM   11  H   UNL     1      14.783   5.023  -2.431  1.00  0.00     0.189 HD
BRANCH  10  12
HETATM   12  C   UNL     1      13.617   6.691  -2.768  1.00  0.00     0.186 C 
HETATM   13  S   UNL     1      12.825   7.622  -3.914  1.00  0.00    -0.040 SA
BRANCH  12  14
HETATM   14  N   UNL     1      13.260   6.833  -1.465  1.00  0.00    -0.364 N 
HETATM   15  H   UNL     1      12.548   7.539  -1.304  1.00  0.00     0.162 HD
BRANCH  14  16
HETATM   16  C   UNL     1      13.948   6.382  -0.258  1.00  0.00     0.154 C 
BRANCH  16  17
HETATM   17  C   UNL     1      14.782   7.489   0.410  1.00  0.00     0.139 C 
HETATM   18  O   UNL     1      13.952   8.650   0.625  1.00  0.00    -0.384 OA
HETATM   19  C   UNL     1      14.610   9.791   0.060  1.00  0.00     0.168 C 
HETATM   20  C   UNL     1      15.576   9.263  -0.974  1.00  0.00     0.029 C 
HETATM   21  C   UNL     1      16.003   7.946  -0.378  1.00  0.00     0.035 C 
ENDBRANCH  16  17
ENDBRANCH  14  16
ENDBRANCH  12  14
ENDBRANCH  10  12
ENDBRANCH   7  10
ENDBRANCH   3   6
BRANCH   1  22
HETATM   22  C   UNL     1      16.411   1.709  -8.697  1.00  0.00     0.240 C 
BRANCH  22  23
HETATM   23  O   UNL     1      17.831   1.663  -8.811  1.00  0.00    -0.345 OA
BRANCH  23  24
HETATM   24  C   UNL     1      18.367   0.550  -9.401  1.00  0.00     0.069 A 
HETATM   25  C   UNL     1      17.661  -0.387 -10.174  1.00  0.00     0.037 A 
HETATM   26  C   UNL     1      18.319  -1.482 -10.747  1.00  0.00     0.010 A 
HETATM   27  C   UNL     1      19.680  -1.616 -10.543  1.00  0.00    -0.052 A 
HETATM   28  C   UNL     1      20.386  -0.688  -9.774  1.00  0.00    -0.049 A 
HETATM   29  C   UNL     1      20.583  -2.713 -11.015  1.00  0.00     0.039 C 
HETATM   30  C   UNL     1      19.743   0.396  -9.201  1.00  0.00     0.044 A 
HETATM   31  C   UNL     1      21.824  -1.080  -9.648  1.00  0.00     0.039 C 
HETATM   32  C   UNL     1      21.964  -2.071 -10.813  1.00  0.00     0.009 C 
ENDBRANCH  23  24
ENDBRANCH  22  23
ENDBRANCH   1  22
TORSDOF 9
