REMARK  5 active torsions:
REMARK  status: ('A' for Active; 'I' for Inactive)
REMARK    1  A    between atoms: O_2  and  C_3 
REMARK    2  A    between atoms: C_5  and  C_6 
REMARK    3  A    between atoms: C_10  and  C_11 
REMARK       I    between atoms: C_11  and  N_12 
REMARK    4  A    between atoms: N_12  and  C_13 
REMARK    5  A    between atoms: C_15  and  O_16 
ROOT
HETATM    1  C   UNL     1       3.538   4.478   1.650  1.00  0.00     0.063 A 
HETATM    2  N   UNL     1       2.824   5.100   0.656  1.00  0.00    -0.277 N 
HETATM    3  H   UNL     1       2.271   4.661  -0.071  1.00  0.00     0.189 HD
HETATM    4  N   UNL     1       2.866   6.445   0.692  1.00  0.00    -0.169 NA
HETATM    5  C   UNL     1       3.622   6.715   1.775  1.00  0.00     0.147 A 
HETATM    6  C   UNL     1       4.065   5.518   2.392  1.00  0.00     0.071 A 
ENDROOT
BRANCH   5   7
HETATM    7  C   UNL     1       3.901   8.096   2.212  1.00  0.00     0.276 C 
HETATM    8  N   UNL     1       3.325   9.024   1.366  1.00  0.00    -0.322 N 
HETATM    9  H   UNL     1       2.836   8.599   0.581  1.00  0.00     0.169 HD
HETATM   10  O   UNL     1       4.567   8.327   3.215  1.00  0.00    -0.266 OA
BRANCH   8  11
HETATM   11  C   UNL     1       3.325  10.425   1.466  1.00  0.00     0.037 A 
HETATM   12  C   UNL     1       3.913  11.131   2.521  1.00  0.00     0.066 A 
HETATM   13  C   UNL     1       3.856  12.528   2.560  1.00  0.00     0.070 A 
HETATM   14  C   UNL     1       3.218  13.219   1.528  1.00  0.00     0.037 A 
HETATM   15  C   UNL     1       2.631  12.527   0.472  1.00  0.00     0.005 A 
HETATM   16  C   UNL     1       2.683  11.134   0.443  1.00  0.00     0.029 A 
BRANCH  13  17
HETATM   17  O   UNL     1       4.381  13.327   3.540  1.00  0.00    -0.356 OA
HETATM   18  C   UNL     1       4.962  12.670   4.661  1.00  0.00     0.210 C 
ENDBRANCH  13  17
ENDBRANCH   8  11
ENDBRANCH   5   7
BRANCH   1  19
HETATM   19  C   UNL     1       3.622   3.025   1.817  1.00  0.00    -0.005 A 
HETATM   20  C   UNL     1       3.931   2.478   3.076  1.00  0.00     0.050 A 
HETATM   21  C   UNL     1       4.010   1.095   3.261  1.00  0.00     0.069 A 
HETATM   22  C   UNL     1       3.774   0.246   2.180  1.00  0.00     0.037 A 
HETATM   23  C   UNL     1       3.473   0.768   0.924  1.00  0.00     0.004 A 
HETATM   24  C   UNL     1       3.401   2.151   0.743  1.00  0.00     0.014 A 
BRANCH  21  25
HETATM   25  O   UNL     1       4.301   0.455   4.435  1.00  0.00    -0.356 OA
HETATM   26  C   UNL     1       4.634   1.272   5.550  1.00  0.00     0.210 C 
ENDBRANCH  21  25
ENDBRANCH   1  19
TORSDOF 5
