REMARK  10 active torsions:
REMARK  status: ('A' for Active; 'I' for Inactive)
REMARK    1  A    between atoms: C_6  and  N_7 
REMARK    2  A    between atoms: C_6  and  C_29 
REMARK       I    between atoms: N_7  and  C_8 
REMARK    3  A    between atoms: N_7  and  C_23 
REMARK    4  A    between atoms: C_8  and  C_9 
REMARK    5  A    between atoms: C_9  and  N_10 
REMARK    6  A    between atoms: C_14  and  C_15 
REMARK    7  A    between atoms: C_23  and  C_24 
REMARK       I    between atoms: C_29  and  N_30 
REMARK    8  A    between atoms: N_30  and  C_31 
REMARK    9  A    between atoms: C_32  and  O_33 
REMARK   10  A    between atoms: C_36  and  O_37 
ROOT
HETATM    1  N   UNL     1       6.315   0.576   2.814  1.00  0.00    -0.326 N 
HETATM    2  C   UNL     1       7.453   0.410   2.007  1.00  0.00     0.239 C 
HETATM    3  O   UNL     1       7.417   0.599   0.794  1.00  0.00    -0.271 OA
ENDROOT
BRANCH   1   4
HETATM    4  C   UNL     1       4.937   0.309   2.266  1.00  0.00     0.120 C 
HETATM    5  C   UNL     1       4.314   1.546   1.589  1.00  0.00     0.069 C 
HETATM    6  C   UNL     1       2.923   1.267   1.027  1.00  0.00     0.237 C 
HETATM    7  N   UNL     1       2.962   0.115   0.066  1.00  0.00    -0.075 N 
HETATM    8  C   UNL     1       1.600  -0.150  -0.527  1.00  0.00     0.269 C 
HETATM    9  H   UNL     1       3.571   0.382  -0.723  1.00  0.00     0.279 HD
HETATM   10  C   UNL     1       3.551  -1.143   0.663  1.00  0.00     0.237 C 
HETATM   11  C   UNL     1       4.947  -0.833   1.192  1.00  0.00     0.069 C 
BRANCH   4  12
HETATM   12  C   UNL     1       4.086  -0.278   3.451  1.00  0.00     0.251 C 
HETATM   13  N   UNL     1       3.440   0.629   4.261  1.00  0.00    -0.323 N 
HETATM   14  H   UNL     1       3.469   1.624   4.072  1.00  0.00     0.169 HD
HETATM   15  O   UNL     1       4.045  -1.497   3.614  1.00  0.00    -0.270 OA
BRANCH  13  16
HETATM   16  C   UNL     1       2.628   0.331   5.385  1.00  0.00     0.068 A 
HETATM   17  C   UNL     1       1.841   1.384   5.898  1.00  0.00     0.097 A 
HETATM   18  C   UNL     1       0.997   1.159   6.996  1.00  0.00     0.075 A 
HETATM   19  C   UNL     1       0.938  -0.106   7.585  1.00  0.00     0.070 A 
HETATM   20  C   UNL     1       1.738  -1.133   7.089  1.00  0.00     0.039 A 
HETATM   21  C   UNL     1       2.576  -0.922   5.994  1.00  0.00     0.035 A 
BRANCH  17  22
HETATM   22  O   UNL     1       1.959   2.579   5.220  1.00  0.00    -0.354 OA
HETATM   23  C   UNL     1       1.183   3.671   5.708  1.00  0.00     0.210 C 
ENDBRANCH  17  22
BRANCH  19  24
HETATM   24  O   UNL     1       0.157  -0.465   8.648  1.00  0.00    -0.356 OA
HETATM   25  C   UNL     1      -0.833   0.461   9.074  1.00  0.00     0.210 C 
ENDBRANCH  19  24
ENDBRANCH  13  16
ENDBRANCH   4  12
ENDBRANCH   1   4
BRANCH   1  26
HETATM   26  C   UNL     1       6.481   1.556   3.897  1.00  0.00     0.192 C 
BRANCH  26  27
HETATM   27  C   UNL     1       6.604   0.945   5.239  1.00  0.00     0.070 A 
HETATM   28  O   UNL     1       6.769   1.846   6.252  1.00  0.00    -0.325 OA
HETATM   29  C   UNL     1       6.876   1.142   7.405  1.00  0.00     0.142 A 
HETATM   30  C   UNL     1       6.778  -0.205   7.152  1.00  0.00     0.027 A 
HETATM   31  C   UNL     1       6.606  -0.336   5.753  1.00  0.00     0.036 A 
ENDBRANCH  26  27
ENDBRANCH   1  26
BRANCH   2  32
HETATM   32  C   UNL     1       8.684  -0.134   2.769  1.00  0.00     0.228 C 
BRANCH  32  33
HETATM   33  N   UNL     1       9.913  -0.181   1.997  1.00  0.00    -0.347 N 
HETATM   34  C   UNL     1      10.376  -1.219   1.195  1.00  0.00     0.171 C 
HETATM   35  S   UNL     1       9.667  -2.677   0.871  1.00  0.00    -0.041 SA
HETATM   36  N   UNL     1      11.614  -0.849   0.692  1.00  0.00    -0.357 N 
HETATM   37  C   UNL     1      12.067   0.409   1.247  1.00  0.00     0.135 C 
HETATM   38  H   UNL     1      12.203  -1.495   0.182  1.00  0.00     0.162 HD
HETATM   39  C   UNL     1      10.795   0.971   1.903  1.00  0.00     0.155 C 
BRANCH  37  40
HETATM   40  C   UNL     1      13.202   0.241   2.238  1.00  0.00    -0.034 A 
HETATM   41  C   UNL     1      14.256   1.169   2.245  1.00  0.00     0.009 A 
HETATM   42  C   UNL     1      15.292   1.069   3.177  1.00  0.00     0.001 A 
HETATM   43  C   UNL     1      15.289   0.042   4.117  1.00  0.00     0.000 A 
HETATM   44  C   UNL     1      14.251  -0.886   4.127  1.00  0.00     0.001 A 
HETATM   45  C   UNL     1      13.214  -0.786   3.197  1.00  0.00     0.009 A 
ENDBRANCH  37  40
ENDBRANCH  32  33
ENDBRANCH   2  32
TORSDOF 10
