REMARK  3 active torsions:
REMARK  status: ('A' for Active; 'I' for Inactive)
REMARK    1  A    between atoms: C_4  and  C_5 
REMARK    2  A    between atoms: C_11  and  C_12 
REMARK    3  A    between atoms: C_21  and  N_22 
ROOT
HETATM    1  C   UNL     1       4.352  -2.946  -3.632  1.00  0.00     0.071 A 
HETATM    2  N   UNL     1       5.234  -2.208  -4.396  1.00  0.00    -0.274 N 
HETATM    3  H   UNL     1       6.034  -2.553  -4.915  1.00  0.00     0.189 HD
HETATM    4  N   UNL     1       4.941  -0.900  -4.469  1.00  0.00    -0.148 NA
HETATM    5  C   UNL     1       3.844  -0.815  -3.729  1.00  0.00     0.199 A 
HETATM    6  C   UNL     1       3.441  -2.020  -3.133  1.00  0.00     0.036 A 
HETATM    7  C   UNL     1       2.209  -2.090  -2.267  1.00  0.00     0.079 A 
HETATM    8  C   UNL     1       1.499  -0.703  -2.319  1.00  0.00     0.063 A 
HETATM    9  C   UNL     1       0.233  -0.556  -1.490  1.00  0.00     0.020 C 
HETATM   10  N   UNL     1      -0.817  -0.434  -0.803  1.00  0.00    -0.096 N 
HETATM   11  C   UNL     1       1.993   0.391  -2.952  1.00  0.00     0.139 A 
HETATM   12  O   UNL     1       3.200   0.360  -3.649  1.00  0.00    -0.277 OA
ENDROOT
BRANCH   7  13
HETATM   13  C   UNL     1       2.437  -2.579  -0.764  1.00  0.00     0.022 C 
HETATM   14  C   UNL     1       3.606  -3.516  -0.536  1.00  0.00    -0.025 C 
HETATM   15  C   UNL     1       3.518  -4.747  -0.011  1.00  0.00    -0.030 C 
HETATM   16  C   UNL     1       2.239  -5.326   0.497  1.00  0.00     0.027 C 
HETATM   17  C   UNL     1       1.299  -4.213   0.928  1.00  0.00     0.004 C 
HETATM   18  C   UNL     1       1.117  -3.184  -0.185  1.00  0.00     0.010 C 
ENDBRANCH   7  13
BRANCH  11  19
HETATM   19  N   UNL     1       1.403   1.635  -2.970  1.00  0.00    -0.282 NA
HETATM   20  H   UNL     1       0.802   1.861  -2.182  1.00  0.00     0.126 HD
HETATM   21  H   UNL     1       2.075   2.369  -3.186  1.00  0.00     0.126 HD
ENDBRANCH  11  19
BRANCH   1  22
HETATM   22  C   UNL     1       4.497  -4.392  -3.494  1.00  0.00    -0.007 A 
HETATM   23  C   UNL     1       5.732  -4.945  -3.120  1.00  0.00     0.014 A 
HETATM   24  C   UNL     1       5.875  -6.325  -2.964  1.00  0.00     0.001 A 
HETATM   25  C   UNL     1       4.788  -7.165  -3.187  1.00  0.00     0.000 A 
HETATM   26  C   UNL     1       3.559  -6.627  -3.566  1.00  0.00     0.001 A 
HETATM   27  C   UNL     1       3.412  -5.246  -3.718  1.00  0.00     0.014 A 
ENDBRANCH   1  22
TORSDOF 3
