REMARK  7 active torsions:
REMARK  status: ('A' for Active; 'I' for Inactive)
REMARK    1  A    between atoms: C_2  and  C_3 
REMARK    2  A    between atoms: C_3  and  C_4 
REMARK    3  A    between atoms: C_3  and  C_12 
REMARK    4  A    between atoms: C_7  and  O_8 
REMARK    5  A    between atoms: C_12  and  C_13 
REMARK       I    between atoms: C_13  and  N_14 
REMARK    6  A    between atoms: N_14  and  C_15 
REMARK    7  A    between atoms: C_22  and  C_23 
REMARK       I    between atoms: C_23  and  N_24 
ROOT
HETATM    1  C   UNL     1       4.395   2.794  -1.340  1.00  0.00     0.222 C 
HETATM    2  N   UNL     1       5.548   2.847  -2.114  1.00  0.00    -0.327 N 
HETATM    3  O   UNL     1       3.598   3.710  -1.198  1.00  0.00    -0.273 OA
HETATM    4  H   UNL     1       6.212   2.094  -1.993  1.00  0.00     0.169 HD
ENDROOT
BRANCH   2   5
HETATM    5  C   UNL     1       5.956   3.913  -2.946  1.00  0.00     0.035 A 
HETATM    6  C   UNL     1       5.099   4.949  -3.345  1.00  0.00     0.046 A 
HETATM    7  C   UNL     1       5.587   5.974  -4.183  1.00  0.00     0.030 A 
HETATM    8  C   UNL     1       6.916   5.937  -4.584  1.00  0.00     0.063 A 
HETATM    9  C   UNL     1       5.045   7.141  -4.801  1.00  0.00     0.156 A 
HETATM   10  N   UNL     1       7.092   7.052  -5.354  1.00  0.00    -0.277 N 
HETATM   11  C   UNL     1       7.795   4.916  -4.215  1.00  0.00     0.034 A 
HETATM   12  H   UNL     1       7.946   7.356  -5.808  1.00  0.00     0.189 HD
HETATM   13  N   UNL     1       5.988   7.800  -5.514  1.00  0.00    -0.168 NA
HETATM   14  C   UNL     1       7.282   3.899  -3.399  1.00  0.00     0.032 A 
BRANCH   9  15
HETATM   15  C   UNL     1       3.660   7.629  -4.735  1.00  0.00     0.270 C 
HETATM   16  N   UNL     1       3.445   8.796  -5.416  1.00  0.00    -0.365 N 
HETATM   17  H   UNL     1       4.219   9.215  -5.918  1.00  0.00     0.159 HD
HETATM   18  H   UNL     1       2.518   9.187  -5.451  1.00  0.00     0.159 HD
HETATM   19  O   UNL     1       2.747   7.064  -4.144  1.00  0.00    -0.266 OA
ENDBRANCH   9  15
ENDBRANCH   2   5
BRANCH   1  20
HETATM   20  C   UNL     1       4.267   1.452  -0.626  1.00  0.00     0.112 C 
BRANCH  20  21
HETATM   21  C   UNL     1       3.087   1.254   0.349  1.00  0.00     0.027 C 
BRANCH  21  22
HETATM   22  C   UNL     1       2.954   2.381   1.396  1.00  0.00     0.005 C 
HETATM   23  C   UNL     1       2.084   1.984   2.584  1.00  0.00     0.006 C 
ENDBRANCH  21  22
BRANCH  21  24
HETATM   24  C   UNL     1       1.779   0.908  -0.350  1.00  0.00    -0.053 A 
HETATM   25  C   UNL     1       1.040   1.853  -1.071  1.00  0.00     0.010 A 
HETATM   26  C   UNL     1      -0.173   1.505  -1.674  1.00  0.00     0.037 A 
HETATM   27  C   UNL     1      -0.685   0.214  -1.557  1.00  0.00     0.068 A 
HETATM   28  C   UNL     1       0.045  -0.740  -0.852  1.00  0.00     0.037 A 
HETATM   29  C   UNL     1       1.266  -0.396  -0.257  1.00  0.00     0.010 A 
BRANCH  27  30
HETATM   30  O   UNL     1      -1.888   0.013  -2.174  1.00  0.00    -0.356 OA
HETATM   31  C   UNL     1      -2.565  -1.199  -1.869  1.00  0.00     0.210 C 
ENDBRANCH  27  30
ENDBRANCH  21  24
ENDBRANCH  20  21
ENDBRANCH   1  20
TORSDOF 7
