REMARK  9 active torsions:
REMARK  status: ('A' for Active; 'I' for Inactive)
REMARK    1  A    between atoms: O_2  and  C_3 
REMARK    2  A    between atoms: C_6  and  N_7 
REMARK       I    between atoms: N_7  and  C_8 
REMARK    3  A    between atoms: C_8  and  C_9 
REMARK    4  A    between atoms: C_9  and  N_10 
REMARK    5  A    between atoms: N_10  and  C_12 
REMARK    6  A    between atoms: N_10  and  C_24 
REMARK    7  A    between atoms: C_12  and  S_13 
REMARK    8  A    between atoms: S_13  and  C_14 
REMARK    9  A    between atoms: C_24  and  C_25 
ROOT
HETATM    1  N   UNL     1       5.616  -2.288   3.051  1.00  0.00    -0.041 N 
HETATM    2  H   UNL     1       4.909  -1.521   3.042  1.00  0.00     0.282 HD
ENDROOT
BRANCH   1   3
HETATM    3  C   UNL     1       5.980  -2.509   4.621  1.00  0.00     0.208 C 
HETATM    4  C   UNL     1       7.235  -3.421   4.685  1.00  0.00     0.049 C 
HETATM    5  C   UNL     1       7.478  -4.192   5.991  1.00  0.00     0.003 C 
HETATM    6  C   UNL     1       6.214  -4.731   6.643  1.00  0.00     0.000 C 
HETATM    7  C   UNL     1       5.133  -3.666   6.758  1.00  0.00     0.003 C 
HETATM    8  C   UNL     1       4.782  -3.126   5.372  1.00  0.00     0.049 C 
BRANCH   3   9
HETATM    9  C   UNL     1       6.180  -1.065   5.247  1.00  0.00     0.259 C 
HETATM   10  N   UNL     1       6.917  -0.975   6.405  1.00  0.00    -0.325 N 
HETATM   11  H   UNL     1       7.446  -1.775   6.713  1.00  0.00     0.169 HD
HETATM   12  O   UNL     1       5.628  -0.116   4.687  1.00  0.00    -0.270 OA
BRANCH  10  13
HETATM   13  C   UNL     1       7.003   0.118   7.295  1.00  0.00     0.035 A 
HETATM   14  C   UNL     1       6.276   1.299   7.166  1.00  0.00     0.032 A 
HETATM   15  C   UNL     1       6.368   2.289   8.153  1.00  0.00     0.039 A 
HETATM   16  C   UNL     1       7.176   2.114   9.277  1.00  0.00     0.068 A 
HETATM   17  C   UNL     1       7.927   0.949   9.394  1.00  0.00     0.039 A 
HETATM   18  C   UNL     1       7.838  -0.043   8.410  1.00  0.00     0.032 A 
BRANCH  16  19
HETATM   19  O   UNL     1       7.150   3.143  10.176  1.00  0.00    -0.356 OA
HETATM   20  C   UNL     1       7.745   2.899  11.445  1.00  0.00     0.210 C 
ENDBRANCH  16  19
ENDBRANCH  10  13
ENDBRANCH   3   9
ENDBRANCH   1   3
BRANCH   1  21
HETATM   21  C   UNL     1       6.786  -1.634   2.322  1.00  0.00     0.318 C 
BRANCH  21  22
HETATM   22  S   UNL     1       6.440  -1.046   0.659  1.00  0.00    -0.064 SA
BRANCH  22  23
HETATM   23  C   UNL     1       5.071  -0.040   0.896  1.00  0.00     0.169 A 
HETATM   24  N   UNL     1       4.247  -0.086   1.911  1.00  0.00    -0.223 NA
HETATM   25  C   UNL     1       3.278   0.849   1.602  1.00  0.00     0.086 A 
HETATM   26  C   UNL     1       3.528   1.439   0.364  1.00  0.00     0.063 A 
HETATM   27  C   UNL     1       2.138   1.234   2.323  1.00  0.00     0.034 A 
HETATM   28  N   UNL     1       4.692   0.853  -0.061  1.00  0.00    -0.333 N 
HETATM   29  C   UNL     1       2.697   2.399  -0.213  1.00  0.00     0.032 A 
HETATM   30  H   UNL     1       5.170   1.034  -0.932  1.00  0.00     0.168 HD
HETATM   31  C   UNL     1       1.561   2.765   0.518  1.00  0.00     0.002 A 
HETATM   32  C   UNL     1       1.285   2.196   1.763  1.00  0.00     0.002 A 
ENDBRANCH  22  23
ENDBRANCH  21  22
ENDBRANCH   1  21
BRANCH   1  33
HETATM   33  C   UNL     1       5.033  -3.455   2.271  1.00  0.00     0.275 C 
BRANCH  33  34
HETATM   34  C   UNL     1       3.630  -3.905   2.591  1.00  0.00    -0.033 A 
HETATM   35  C   UNL     1       2.562  -3.003   2.697  1.00  0.00     0.009 A 
HETATM   36  C   UNL     1       1.277  -3.454   3.005  1.00  0.00     0.001 A 
HETATM   37  C   UNL     1       1.037  -4.812   3.193  1.00  0.00     0.000 A 
HETATM   38  C   UNL     1       2.078  -5.726   3.057  1.00  0.00     0.001 A 
HETATM   39  C   UNL     1       3.363  -5.278   2.747  1.00  0.00     0.009 A 
ENDBRANCH  33  34
ENDBRANCH   1  33
TORSDOF 9
