REMARK  6 active torsions:
REMARK  status: ('A' for Active; 'I' for Inactive)
REMARK    1  A    between atoms: N_2  and  C_4 
REMARK    2  A    between atoms: C_4  and  C_5 
REMARK    3  A    between atoms: C_7  and  N_8 
REMARK       I    between atoms: N_8  and  C_9 
REMARK    4  A    between atoms: C_9  and  C_10 
REMARK    5  A    between atoms: C_12  and  C_13 
REMARK    6  A    between atoms: C_20  and  C_21 
ROOT
HETATM    1  N   UNL     1      -0.933   3.076   0.571  1.00  0.00    -0.322 N 
HETATM    2  C   UNL     1      -2.098   2.323   0.572  1.00  0.00     0.277 C 
HETATM    3  O   UNL     1      -3.235   2.787   0.550  1.00  0.00    -0.266 OA
HETATM    4  H   UNL     1      -0.083   2.538   0.730  1.00  0.00     0.169 HD
ENDROOT
BRANCH   2   5
HETATM    5  C   UNL     1      -1.829   0.891   0.649  1.00  0.00     0.157 A 
HETATM    6  N   UNL     1      -0.537   0.376   0.722  1.00  0.00    -0.216 NA
HETATM    7  C   UNL     1      -0.717  -0.933   0.762  1.00  0.00     0.180 A 
HETATM    8  O   UNL     1      -2.030  -1.315   0.732  1.00  0.00    -0.293 OA
HETATM    9  C   UNL     1      -2.739  -0.149   0.660  1.00  0.00     0.094 A 
BRANCH   7  10
HETATM   10  C   UNL     1       0.268  -2.010   0.827  1.00  0.00     0.017 A 
HETATM   11  C   UNL     1       1.637  -1.706   0.871  1.00  0.00     0.016 A 
HETATM   12  C   UNL     1       2.594  -2.723   0.928  1.00  0.00     0.001 A 
HETATM   13  C   UNL     1       2.194  -4.058   0.940  1.00  0.00     0.000 A 
HETATM   14  C   UNL     1       0.840  -4.377   0.896  1.00  0.00     0.001 A 
HETATM   15  C   UNL     1      -0.117  -3.360   0.840  1.00  0.00     0.016 A 
ENDBRANCH   7  10
BRANCH   9  16
HETATM   16  C   UNL     1      -4.255  -0.084   0.601  1.00  0.00     0.046 A 
HETATM   17  C   UNL     1      -4.980  -1.195  -0.130  1.00  0.00     0.012 A 
HETATM   18  C   UNL     1      -5.036  -1.138   1.358  1.00  0.00     0.012 A 
ENDBRANCH   9  16
ENDBRANCH   2   5
BRANCH   1  19
HETATM   19  C   UNL     1      -0.840   4.477   0.492  1.00  0.00     0.035 A 
HETATM   20  C   UNL     1      -1.916   5.281   0.111  1.00  0.00     0.038 A 
HETATM   21  C   UNL     1      -1.833   6.682   0.134  1.00  0.00    -0.030 A 
HETATM   22  C   UNL     1      -0.623   7.279   0.500  1.00  0.00     0.009 A 
HETATM   23  C   UNL     1       0.478   6.482   0.822  1.00  0.00     0.003 A 
HETATM   24  C   UNL     1       0.371   5.087   0.816  1.00  0.00     0.029 A 
BRANCH  21  25
HETATM   25  C   UNL     1      -3.057   7.494  -0.191  1.00  0.00     0.272 C 
BRANCH  25  26
HETATM   26  N   UNL     1      -3.941   7.773   1.008  1.00  0.00    -0.075 N 
HETATM   27  C   UNL     1      -4.477   6.531   1.672  1.00  0.00     0.269 C 
HETATM   28  H   UNL     1      -3.345   8.240   1.701  1.00  0.00     0.279 HD
HETATM   29  C   UNL     1      -5.054   8.717   0.652  1.00  0.00     0.269 C 
ENDBRANCH  25  26
ENDBRANCH  21  25
ENDBRANCH   1  19
TORSDOF 6
