REMARK  7 active torsions:
REMARK  status: ('A' for Active; 'I' for Inactive)
REMARK    1  A    between atoms: C_2  and  C_3 
REMARK    2  A    between atoms: N_4  and  C_5 
REMARK    3  A    between atoms: C_13  and  C_14 
REMARK       I    between atoms: C_14  and  N_15 
REMARK    4  A    between atoms: N_15  and  N_16 
REMARK       I    between atoms: N_16  and  C_17 
REMARK    5  A    between atoms: C_17  and  C_18 
REMARK    6  A    between atoms: C_22  and  C_23 
REMARK    7  A    between atoms: C_26  and  O_27 
ROOT
HETATM    1  N   UNL     1       2.110  -2.403  -0.055  1.00  0.00    -0.262 N 
HETATM    2  C   UNL     1       2.101  -2.391   1.322  1.00  0.00     0.288 C 
HETATM    3  O   UNL     1       3.083  -2.722   1.983  1.00  0.00    -0.264 OA
HETATM    4  H   UNL     1       1.348  -2.043  -0.625  1.00  0.00     0.190 HD
ENDROOT
BRANCH   1   5
HETATM    5  N   UNL     1       3.279  -2.756  -0.743  1.00  0.00    -0.263 N 
HETATM    6  C   UNL     1       3.327  -2.494  -2.095  1.00  0.00     0.273 C 
HETATM    7  O   UNL     1       2.360  -1.989  -2.670  1.00  0.00    -0.266 OA
HETATM    8  H   UNL     1       4.093  -2.970  -0.178  1.00  0.00     0.190 HD
BRANCH   6   9
HETATM    9  C   UNL     1       4.557  -2.809  -2.805  1.00  0.00     0.077 A 
HETATM   10  C   UNL     1       5.619  -3.679  -2.528  1.00  0.00     0.053 A 
HETATM   11  N   UNL     1       6.470  -3.629  -3.652  1.00  0.00    -0.237 N 
HETATM   12  N   UNL     1       5.993  -2.743  -4.569  1.00  0.00    -0.178 NA
HETATM   13  C   UNL     1       4.861  -2.278  -4.068  1.00  0.00     0.158 A 
BRANCH  10  14
HETATM   14  C   UNL     1       5.787  -4.602  -1.361  1.00  0.00     0.056 C 
HETATM   15  C   UNL     1       6.620  -3.976  -0.248  1.00  0.00     0.011 C 
ENDBRANCH  10  14
BRANCH  11  16
HETATM   16  C   UNL     1       7.673  -4.339  -3.999  1.00  0.00     0.058 A 
HETATM   17  C   UNL     1       8.415  -5.116  -3.106  1.00  0.00     0.031 A 
HETATM   18  C   UNL     1       9.566  -5.794  -3.530  1.00  0.00     0.002 A 
HETATM   19  C   UNL     1       9.998  -5.704  -4.849  1.00  0.00     0.000 A 
HETATM   20  C   UNL     1       9.285  -4.924  -5.750  1.00  0.00     0.002 A 
HETATM   21  C   UNL     1       8.138  -4.244  -5.329  1.00  0.00     0.031 A 
ENDBRANCH  11  16
ENDBRANCH   6   9
ENDBRANCH   1   5
BRANCH   2  22
HETATM   22  C   UNL     1       0.865  -1.957   1.914  1.00  0.00     0.121 A 
HETATM   23  N   UNL     1       0.704  -1.836   3.266  1.00  0.00    -0.272 N 
HETATM   24  H   UNL     1       1.395  -2.030   3.984  1.00  0.00     0.189 HD
HETATM   25  N   UNL     1      -0.509  -1.399   3.638  1.00  0.00    -0.174 NA
HETATM   26  C   UNL     1      -1.186  -1.251   2.488  1.00  0.00     0.089 A 
HETATM   27  C   UNL     1      -0.355  -1.589   1.384  1.00  0.00     0.071 A 
BRANCH  26  28
HETATM   28  C   UNL     1      -2.576  -0.786   2.454  1.00  0.00    -0.005 A 
HETATM   29  C   UNL     1      -3.111  -0.059   3.524  1.00  0.00     0.016 A 
HETATM   30  C   UNL     1      -4.427   0.413   3.476  1.00  0.00     0.037 A 
HETATM   31  C   UNL     1      -5.234   0.167   2.364  1.00  0.00     0.068 A 
HETATM   32  C   UNL     1      -4.716  -0.571   1.301  1.00  0.00     0.037 A 
HETATM   33  C   UNL     1      -3.396  -1.043   1.346  1.00  0.00     0.016 A 
BRANCH  31  34
HETATM   34  O   UNL     1      -6.494   0.691   2.439  1.00  0.00    -0.356 OA
HETATM   35  C   UNL     1      -7.327   0.529   1.298  1.00  0.00     0.210 C 
ENDBRANCH  31  34
ENDBRANCH  26  28
ENDBRANCH   2  22
TORSDOF 7
