REMARK  5 active torsions:
REMARK  status: ('A' for Active; 'I' for Inactive)
REMARK    1  A    between atoms: C_4  and  N_5 
REMARK       I    between atoms: N_5  and  C_6 
REMARK       I    between atoms: C_6  and  N_7 
REMARK    2  A    between atoms: N_7  and  C_8 
REMARK    3  A    between atoms: C_8  and  C_9 
REMARK    4  A    between atoms: C_9  and  N_10 
REMARK    5  A    between atoms: C_9  and  C_14 
ROOT
HETATM    1  N   UNL     1       5.049   4.424   0.477  1.00  0.00    -0.307 N 
HETATM    2  C   UNL     1       4.173   3.397   0.516  1.00  0.00     0.320 C 
HETATM    3  N   UNL     1       2.892   3.641   0.149  1.00  0.00    -0.340 N 
HETATM    4  O   UNL     1       4.531   2.258   0.813  1.00  0.00    -0.247 OA
HETATM    5  H   UNL     1       6.032   4.151   0.505  1.00  0.00     0.170 HD
HETATM    6  H   UNL     1       2.759   4.432  -0.472  1.00  0.00     0.164 HD
ENDROOT
BRANCH   1   7
HETATM    7  C   UNL     1       4.889   5.834   0.530  1.00  0.00     0.066 A 
HETATM    8  C   UNL     1       3.676   6.469   0.825  1.00  0.00     0.038 A 
HETATM    9  C   UNL     1       3.593   7.865   0.874  1.00  0.00    -0.059 A 
HETATM   10  C   UNL     1       2.298   8.542   1.218  1.00  0.00     0.048 C 
HETATM   11  C   UNL     1       4.752   8.619   0.678  1.00  0.00     0.020 A 
HETATM   12  C   UNL     1       5.982   7.991   0.426  1.00  0.00    -0.005 A 
HETATM   13  C   UNL     1       6.063   6.584   0.350  1.00  0.00     0.093 A 
HETATM   14  C   UNL     1       7.158   8.734   0.258  1.00  0.00     0.015 A 
HETATM   15  N   UNL     1       7.238   5.949   0.121  1.00  0.00    -0.258 NA
HETATM   16  C   UNL     1       8.351   6.702  -0.033  1.00  0.00     0.117 A 
HETATM   17  C   UNL     1       8.362   8.081   0.026  1.00  0.00     0.020 A 
ENDBRANCH   1   7
BRANCH   3  18
HETATM   18  C   UNL     1       1.761   2.757   0.412  1.00  0.00     0.164 C 
BRANCH  18  19
HETATM   19  C   UNL     1       1.765   1.362  -0.292  1.00  0.00     0.261 C 
BRANCH  19  20
HETATM   20  N   UNL     1       2.840   0.435   0.274  1.00  0.00    -0.067 N 
HETATM   21  H   UNL     1       3.678   1.041   0.392  1.00  0.00     0.280 HD
HETATM   22  C   UNL     1       2.579  -0.115   1.642  1.00  0.00     0.270 C 
HETATM   23  C   UNL     1       3.248  -0.639  -0.687  1.00  0.00     0.270 C 
ENDBRANCH  19  20
BRANCH  19  24
HETATM   24  C   UNL     1       0.400   0.742  -0.274  1.00  0.00     0.085 A 
HETATM   25  O   UNL     1       0.128  -0.124  -1.295  1.00  0.00    -0.325 OA
HETATM   26  C   UNL     1      -1.135  -0.583  -1.106  1.00  0.00     0.142 A 
HETATM   27  C   UNL     1      -1.681  -0.035   0.029  1.00  0.00     0.027 A 
HETATM   28  C   UNL     1      -0.691   0.820   0.573  1.00  0.00     0.037 A 
ENDBRANCH  19  24
ENDBRANCH  18  19
ENDBRANCH   3  18
TORSDOF 5
