REMARK  9 active torsions:
REMARK  status: ('A' for Active; 'I' for Inactive)
REMARK    1  A    between atoms: C_2  and  C_3 
REMARK    2  A    between atoms: C_3  and  C_4 
REMARK       I    between atoms: C_4  and  N_6 
REMARK    3  A    between atoms: N_6  and  C_7 
REMARK    4  A    between atoms: C_11  and  C_13 
REMARK    5  A    between atoms: C_15  and  N_16 
REMARK    6  A    between atoms: N_16  and  C_17 
REMARK    7  A    between atoms: C_29  and  O_30 
REMARK    8  A    between atoms: O_30  and  C_31 
REMARK    9  A    between atoms: C_31  and  C_32 
ROOT
HETATM    1  C   UNL     1       9.464  -0.410  -2.193  1.00  0.00     0.162 A 
HETATM    2  N   UNL     1      10.742  -0.347  -2.589  1.00  0.00    -0.210 NA
HETATM    3  C   UNL     1      11.384  -1.501  -2.836  1.00  0.00     0.143 A 
HETATM    4  C   UNL     1      10.744  -2.744  -2.711  1.00  0.00     0.041 A 
HETATM    5  C   UNL     1      11.343  -4.002  -2.978  1.00  0.00     0.054 A 
HETATM    6  C   UNL     1      10.625  -5.190  -2.848  1.00  0.00     0.069 A 
HETATM    7  C   UNL     1       9.309  -5.131  -2.412  1.00  0.00     0.039 A 
HETATM    8  C   UNL     1       8.723  -3.890  -2.130  1.00  0.00     0.035 A 
HETATM    9  C   UNL     1       9.414  -2.694  -2.277  1.00  0.00     0.073 A 
HETATM   10  N   UNL     1       8.779  -1.549  -2.007  1.00  0.00    -0.228 NA
ENDROOT
BRANCH   1  11
HETATM   11  C   UNL     1       8.760   0.867  -2.000  1.00  0.00     0.014 A 
HETATM   12  C   UNL     1       9.132   2.009  -2.732  1.00  0.00     0.015 A 
HETATM   13  C   UNL     1       8.459   3.219  -2.575  1.00  0.00     0.003 A 
HETATM   14  C   UNL     1       7.405   3.320  -1.667  1.00  0.00     0.029 A 
HETATM   15  C   UNL     1       7.020   2.215  -0.908  1.00  0.00     0.035 A 
HETATM   16  C   UNL     1       7.695   0.997  -1.087  1.00  0.00     0.044 A 
BRANCH  15  17
HETATM   17  N   UNL     1       6.002   2.256   0.068  1.00  0.00    -0.327 N 
HETATM   18  C   UNL     1       5.158   3.316   0.354  1.00  0.00     0.222 C 
HETATM   19  O   UNL     1       5.075   4.376  -0.256  1.00  0.00    -0.273 OA
HETATM   20  H   UNL     1       5.872   1.410   0.608  1.00  0.00     0.169 HD
BRANCH  18  21
HETATM   21  C   UNL     1       4.314   3.075   1.591  1.00  0.00     0.103 C 
BRANCH  21  22
HETATM   22  C   UNL     1       5.118   3.390   2.848  1.00  0.00     0.005 C 
HETATM   23  C   UNL     1       4.264   3.290   4.100  1.00  0.00     0.005 C 
ENDBRANCH  21  22
ENDBRANCH  18  21
ENDBRANCH  15  17
ENDBRANCH   1  11
BRANCH   3  24
HETATM   24  N   UNL     1      12.738  -1.449  -3.259  1.00  0.00    -0.340 N 
HETATM   25  H   UNL     1      12.828  -1.915  -4.155  1.00  0.00     0.167 HD
BRANCH  24  26
HETATM   26  C   UNL     1      13.629  -0.356  -3.129  1.00  0.00     0.034 A 
HETATM   27  C   UNL     1      14.666  -0.200  -4.063  1.00  0.00     0.032 A 
HETATM   28  C   UNL     1      15.612   0.832  -3.965  1.00  0.00     0.034 A 
HETATM   29  C   UNL     1      15.498   1.693  -2.872  1.00  0.00     0.062 A 
HETATM   30  N   UNL     1      16.238   2.777  -2.478  1.00  0.00    -0.278 N 
HETATM   31  C   UNL     1      14.510   1.556  -1.907  1.00  0.00     0.013 A 
HETATM   32  H   UNL     1      17.044   3.176  -2.942  1.00  0.00     0.189 HD
HETATM   33  N   UNL     1      15.816   3.345  -1.333  1.00  0.00    -0.186 NA
HETATM   34  C   UNL     1      14.762   2.599  -0.989  1.00  0.00     0.152 A 
HETATM   35  C   UNL     1      13.571   0.516  -2.027  1.00  0.00     0.044 A 
ENDBRANCH  24  26
ENDBRANCH   3  24
BRANCH   6  36
HETATM   36  O   UNL     1      11.321  -6.319  -3.172  1.00  0.00    -0.351 OA
BRANCH  36  37
HETATM   37  C   UNL     1      10.589  -7.543  -3.223  1.00  0.00     0.180 C 
BRANCH  37  38
HETATM   38  C   UNL     1      11.507  -8.609  -3.740  1.00  0.00     0.010 A 
HETATM   39  C   UNL     1      10.954  -9.830  -4.430  1.00  0.00     0.007 A 
HETATM   40  C   UNL     1      11.706  -8.795  -5.222  1.00  0.00     0.007 A 
ENDBRANCH  37  38
ENDBRANCH  36  37
ENDBRANCH   6  36
TORSDOF 9
