REMARK  10 active torsions:
REMARK  status: ('A' for Active; 'I' for Inactive)
REMARK    1  A    between atoms: C_9  and  S_10 
REMARK    2  A    between atoms: S_10  and  C_11 
REMARK    3  A    between atoms: C_11  and  C_12 
REMARK       I    between atoms: C_12  and  N_13 
REMARK    4  A    between atoms: N_13  and  C_14 
REMARK    5  A    between atoms: C_14  and  C_15 
REMARK    6  A    between atoms: C_15  and  C_16 
REMARK    7  A    between atoms: C_19  and  S_20 
REMARK    8  A    between atoms: S_20  and  N_21 
REMARK    9  A    between atoms: N_27  and  C_28 
REMARK   10  A    between atoms: C_35  and  N_36 
ROOT
HETATM    1  C   UNL     1       2.590   0.113   2.580  1.00  0.00     0.073 C 
HETATM    2  C   UNL     1       3.675  -0.895   2.452  1.00  0.00     0.068 A 
HETATM    3  N   UNL     1       4.356  -1.260   3.545  1.00  0.00    -0.177 NA
HETATM    4  N   UNL     1       5.266  -2.134   3.092  1.00  0.00    -0.260 N 
HETATM    5  H   UNL     1       5.918  -2.550   3.749  1.00  0.00     0.191 HD
HETATM    6  C   UNL     1       5.193  -2.332   1.743  1.00  0.00     0.162 A 
HETATM    7  C   UNL     1       4.147  -1.561   1.280  1.00  0.00     0.081 A 
HETATM    8  N   UNL     1       5.996  -3.110   1.018  1.00  0.00    -0.204 NA
HETATM    9  C   UNL     1       5.683  -3.075  -0.297  1.00  0.00     0.177 A 
HETATM   10  N   UNL     1       4.661  -2.354  -0.840  1.00  0.00    -0.276 N 
HETATM   11  C   UNL     1       3.825  -1.585  -0.087  1.00  0.00     0.124 A 
ENDROOT
BRANCH   9  12
HETATM   12  S   UNL     1       6.879  -3.952  -1.321  1.00  0.00    -0.082 SA
BRANCH  12  13
HETATM   13  C   UNL     1       6.897  -5.555  -0.452  1.00  0.00     0.185 C 
BRANCH  13  14
HETATM   14  C   UNL     1       5.553  -6.257  -0.590  1.00  0.00     0.227 C 
HETATM   15  N   UNL     1       5.648  -7.610  -0.834  1.00  0.00    -0.360 N 
HETATM   16  H   UNL     1       6.540  -8.066  -0.674  1.00  0.00     0.162 HD
HETATM   17  O   UNL     1       4.483  -5.654  -0.500  1.00  0.00    -0.273 OA
BRANCH  15  18
HETATM   18  C   UNL     1       4.476  -8.472  -0.879  1.00  0.00     0.127 C 
BRANCH  18  19
HETATM   19  C   UNL     1       4.753  -9.754  -1.668  1.00  0.00     0.058 C 
BRANCH  19  20
HETATM   20  C   UNL     1       3.606 -10.730  -1.593  1.00  0.00    -0.057 A 
HETATM   21  C   UNL     1       2.561 -10.675  -2.527  1.00  0.00     0.009 A 
HETATM   22  C   UNL     1       1.490 -11.568  -2.443  1.00  0.00     0.025 A 
HETATM   23  C   UNL     1       1.467 -12.524  -1.425  1.00  0.00     0.074 A 
HETATM   24  C   UNL     1       2.494 -12.582  -0.480  1.00  0.00     0.025 A 
HETATM   25  C   UNL     1       3.562 -11.688  -0.569  1.00  0.00     0.009 A 
BRANCH  23  26
HETATM   26  S   UNL     1       0.085 -13.620  -1.281  1.00  0.00     0.239 S 
HETATM   27  O   UNL     1      -0.006 -14.085   0.083  1.00  0.00    -0.206 OA
HETATM   28  O   UNL     1      -1.041 -13.049  -1.983  1.00  0.00    -0.206 OA
BRANCH  26  29
HETATM   29  N   UNL     1       0.586 -14.936  -2.193  1.00  0.00    -0.225 NA
HETATM   30  H   UNL     1       0.661 -15.762  -1.598  1.00  0.00     0.136 HD
HETATM   31  H   UNL     1      -0.040 -15.066  -2.989  1.00  0.00     0.136 HD
ENDBRANCH  26  29
ENDBRANCH  23  26
ENDBRANCH  19  20
ENDBRANCH  18  19
ENDBRANCH  15  18
ENDBRANCH  13  14
ENDBRANCH  12  13
ENDBRANCH   9  12
BRANCH  10  32
HETATM   32  C   UNL     1       4.477  -2.361  -2.263  1.00  0.00     0.043 A 
HETATM   33  C   UNL     1       3.803  -3.429  -2.858  1.00  0.00     0.031 A 
HETATM   34  C   UNL     1       3.604  -3.409  -4.239  1.00  0.00     0.021 A 
HETATM   35  C   UNL     1       4.064  -2.326  -4.993  1.00  0.00     0.011 A 
HETATM   36 BR   UNL     1       3.788  -2.307  -6.862  1.00  0.00    -0.051 Br
HETATM   37  C   UNL     1       4.719  -1.253  -4.381  1.00  0.00     0.021 A 
HETATM   38  C   UNL     1       4.928  -1.263  -3.002  1.00  0.00     0.031 A 
ENDBRANCH  10  32
BRANCH  11  39
HETATM   39  N   UNL     1       2.768  -0.858  -0.628  1.00  0.00    -0.384 N 
HETATM   40  H   UNL     1       2.380  -1.110  -1.530  1.00  0.00     0.157 HD
HETATM   41  H   UNL     1       2.082  -0.476   0.016  1.00  0.00     0.157 HD
ENDBRANCH  11  39
TORSDOF 10
