REMARK  7 active torsions:
REMARK  status: ('A' for Active; 'I' for Inactive)
REMARK    1  A    between atoms: C_5  and  O_6 
REMARK    2  A    between atoms: O_6  and  C_7 
REMARK    3  A    between atoms: C_7  and  C_8 
REMARK       I    between atoms: C_8  and  N_9 
REMARK    4  A    between atoms: N_9  and  C_10 
REMARK    5  A    between atoms: C_13  and  N_14 
REMARK    6  A    between atoms: N_14  and  C_15 
REMARK    7  A    between atoms: C_15  and  C_16 
ROOT
HETATM    1  C   UNL     1       8.630   1.960  -1.157  1.00  0.00     0.034 A 
HETATM    2  C   UNL     1       7.688   2.032  -2.181  1.00  0.00     0.031 A 
HETATM    3  C   UNL     1       6.705   3.031  -2.172  1.00  0.00     0.026 A 
HETATM    4  C   UNL     1       6.650   3.982  -1.150  1.00  0.00     0.008 A 
HETATM    5  C   UNL     1       7.607   3.916  -0.135  1.00  0.00     0.026 A 
HETATM    6  C   UNL     1       8.570   2.901  -0.125  1.00  0.00     0.031 A 
ENDROOT
BRANCH   1   7
HETATM    7  N   UNL     1       9.598   0.951  -1.040  1.00  0.00    -0.325 N 
HETATM    8  C   UNL     1      10.186   0.125  -1.955  1.00  0.00     0.246 C 
HETATM    9  O   UNL     1      10.818  -0.849  -1.528  1.00  0.00    -0.271 OA
HETATM   10  H   UNL     1       9.957   0.779  -0.108  1.00  0.00     0.169 HD
BRANCH   8  11
HETATM   11  C   UNL     1      10.134   0.410  -3.453  1.00  0.00     0.278 C 
BRANCH  11  12
HETATM   12  O   UNL     1      10.435   1.778  -3.694  1.00  0.00    -0.342 OA
BRANCH  12  13
HETATM   13  C   UNL     1      10.858   2.110  -4.949  1.00  0.00     0.069 A 
HETATM   14  C   UNL     1      11.535   3.327  -5.036  1.00  0.00     0.037 A 
HETATM   15  C   UNL     1      12.033   3.779  -6.259  1.00  0.00     0.009 A 
HETATM   16  C   UNL     1      11.850   3.019  -7.418  1.00  0.00    -0.062 A 
HETATM   17  C   UNL     1      12.374   3.492  -8.741  1.00  0.00     0.048 C 
HETATM   18  C   UNL     1      11.146   1.811  -7.332  1.00  0.00     0.009 A 
HETATM   19  C   UNL     1      10.650   1.358  -6.104  1.00  0.00     0.037 A 
ENDBRANCH  12  13
ENDBRANCH  11  12
ENDBRANCH   8  11
ENDBRANCH   1   7
BRANCH   4  20
HETATM   20  N   UNL     1       5.662   4.980  -1.120  1.00  0.00    -0.289 NA
HETATM   21  H   UNL     1       5.824   5.639  -0.362  1.00  0.00     0.128 HD
BRANCH  20  22
HETATM   22  C   UNL     1       4.290   4.473  -1.089  1.00  0.00     0.132 C 
BRANCH  22  23
HETATM   23  C   UNL     1       3.342   5.617  -0.856  1.00  0.00    -0.027 A 
HETATM   24  C   UNL     1       2.686   5.774   0.361  1.00  0.00     0.124 A 
HETATM   25  N   UNL     1       1.830   6.784   0.638  1.00  0.00    -0.273 NA
HETATM   26  C   UNL     1       1.618   7.686  -0.344  1.00  0.00     0.116 A 
HETATM   27  C   UNL     1       2.224   7.626  -1.588  1.00  0.00     0.020 A 
HETATM   28  C   UNL     1       3.100   6.576  -1.844  1.00  0.00     0.011 A 
ENDBRANCH  22  23
ENDBRANCH  20  22
ENDBRANCH   4  20
TORSDOF 7
