REMARK  4 active torsions:
REMARK  status: ('A' for Active; 'I' for Inactive)
REMARK    1  A    between atoms: C_6  and  C_7 
REMARK       I    between atoms: C_7  and  N_8 
REMARK    2  A    between atoms: N_8  and  C_9 
REMARK    3  A    between atoms: C_9  and  C_10 
REMARK    4  A    between atoms: C_19  and  O_20 
ROOT
HETATM    1  C   UNL     1       1.121  -0.428   0.101  1.00  0.00     0.078 C 
HETATM    2  C   UNL     1       2.554  -0.060   0.052  1.00  0.00     0.066 A 
HETATM    3  O   UNL     1       3.430  -1.096  -0.034  1.00  0.00    -0.314 OA
HETATM    4  C   UNL     1       4.678  -0.565  -0.060  1.00  0.00     0.087 A 
HETATM    5  C   UNL     1       4.620   0.825   0.008  1.00  0.00     0.019 A 
HETATM    6  C   UNL     1       3.224   1.157   0.055  1.00  0.00     0.074 A 
HETATM    7  C   UNL     1       5.855  -1.308  -0.136  1.00  0.00     0.041 A 
HETATM    8  C   UNL     1       7.054  -0.591  -0.131  1.00  0.00     0.039 A 
HETATM    9  C   UNL     1       7.039   0.799  -0.044  1.00  0.00     0.066 A 
HETATM   10  C   UNL     1       5.844   1.525   0.031  1.00  0.00     0.052 A 
ENDROOT
BRANCH   6  11
HETATM   11  C   UNL     1       2.539   2.440   0.105  1.00  0.00     0.255 C 
HETATM   12  N   UNL     1       3.236   3.508  -0.415  1.00  0.00    -0.353 N 
HETATM   13  H   UNL     1       4.084   3.328  -0.932  1.00  0.00     0.163 HD
HETATM   14  O   UNL     1       1.390   2.554   0.524  1.00  0.00    -0.268 OA
BRANCH  12  15
HETATM   15  C   UNL     1       2.560   4.768  -0.615  1.00  0.00     0.161 C 
BRANCH  15  16
HETATM   16  C   UNL     1       3.469   5.845  -1.148  1.00  0.00    -0.041 A 
HETATM   17  C   UNL     1       4.178   5.668  -2.347  1.00  0.00     0.009 A 
HETATM   18  C   UNL     1       4.981   6.691  -2.855  1.00  0.00     0.001 A 
HETATM   19  C   UNL     1       5.074   7.906  -2.180  1.00  0.00     0.000 A 
HETATM   20  C   UNL     1       4.367   8.100  -0.996  1.00  0.00     0.001 A 
HETATM   21  C   UNL     1       3.570   7.075  -0.482  1.00  0.00     0.009 A 
ENDBRANCH  15  16
ENDBRANCH  12  15
ENDBRANCH   6  11
BRANCH   9  22
HETATM   22  O   UNL     1       8.203   1.513  -0.025  1.00  0.00    -0.361 OA
HETATM   23  H   UNL     1       8.951   0.895  -0.048  1.00  0.00     0.217 HD
ENDBRANCH   9  22
TORSDOF 4
