REMARK  5 active torsions:
REMARK  status: ('A' for Active; 'I' for Inactive)
REMARK    1  A    between atoms: C_8  and  N_9 
REMARK    2  A    between atoms: N_9  and  C_10 
REMARK    3  A    between atoms: C_10  and  C_11 
REMARK       I    between atoms: C_11  and  N_12 
REMARK    4  A    between atoms: N_12  and  N_13 
REMARK    5  A    between atoms: C_14  and  C_15 
ROOT
HETATM    1  C   UNL     1       0.527  -3.983  -0.871  1.00  0.00     0.250 C 
HETATM    2  N   UNL     1       1.497  -4.986  -0.902  1.00  0.00    -0.246 N 
HETATM    3  O   UNL     1       0.739  -2.801  -0.607  1.00  0.00    -0.270 OA
HETATM    4  H   UNL     1       1.287  -5.846  -1.400  1.00  0.00     0.192 HD
ENDROOT
BRANCH   2   5
HETATM    5  N   UNL     1       2.846  -4.801  -0.712  1.00  0.00    -0.184 NA
HETATM    6  C   UNL     1       3.240  -3.866   0.093  1.00  0.00     0.153 C 
BRANCH   6   7
HETATM    7  C   UNL     1       4.661  -3.628   0.291  1.00  0.00     0.018 A 
HETATM    8  C   UNL     1       5.788  -4.301  -0.293  1.00  0.00     0.004 A 
HETATM    9  C   UNL     1       6.941  -3.707   0.222  1.00  0.00     0.043 A 
HETATM   10  C   UNL     1       5.945  -5.362  -1.211  1.00  0.00     0.014 A 
HETATM   11  C   UNL     1       8.234  -4.117  -0.131  1.00  0.00     0.030 A 
HETATM   12  N   UNL     1       6.538  -2.711   1.077  1.00  0.00    -0.358 N 
HETATM   13  C   UNL     1       8.356  -5.170  -1.040  1.00  0.00     0.002 A 
HETATM   14  C   UNL     1       7.228  -5.786  -1.575  1.00  0.00     0.001 A 
HETATM   15  H   UNL     1       7.171  -2.112   1.588  1.00  0.00     0.166 HD
HETATM   16  C   UNL     1       5.169  -2.647   1.134  1.00  0.00     0.018 A 
HETATM   17  C   UNL     1       4.479  -1.645   1.989  1.00  0.00     0.069 C 
ENDBRANCH   6   7
ENDBRANCH   2   5
BRANCH   1  18
HETATM   18  C   UNL     1      -0.878  -4.508  -1.208  1.00  0.00     0.197 C 
BRANCH  18  19
HETATM   19  N   UNL     1      -1.459  -3.763  -2.340  1.00  0.00    -0.284 NA
HETATM   20  H   UNL     1      -0.823  -3.749  -3.136  1.00  0.00     0.128 HD
BRANCH  19  21
HETATM   21  C   UNL     1      -2.736  -4.241  -2.708  1.00  0.00     0.016 A 
HETATM   22  C   UNL     1      -3.891  -3.909  -1.966  1.00  0.00    -0.019 A 
HETATM   23  C   UNL     1      -3.828  -2.917  -0.832  1.00  0.00     0.052 C 
HETATM   24  C   UNL     1      -5.112  -4.521  -2.310  1.00  0.00     0.041 A 
HETATM   25 CL   UNL     1      -6.568  -4.209  -1.427  1.00  0.00    -0.084 Cl
HETATM   26  C   UNL     1      -5.194  -5.417  -3.379  1.00  0.00     0.024 A 
HETATM   27  C   UNL     1      -4.057  -5.726  -4.117  1.00  0.00     0.003 A 
HETATM   28  C   UNL     1      -2.835  -5.148  -3.777  1.00  0.00     0.024 A 
ENDBRANCH  19  21
ENDBRANCH  18  19
ENDBRANCH   1  18
TORSDOF 5
