REMARK  9 active torsions:
REMARK  status: ('A' for Active; 'I' for Inactive)
REMARK    1  A    between atoms: C_6  and  C_7 
REMARK    2  A    between atoms: C_7  and  C_8 
REMARK       I    between atoms: C_8  and  N_9 
REMARK    3  A    between atoms: N_9  and  C_10 
REMARK    4  A    between atoms: C_10  and  C_11 
REMARK    5  A    between atoms: C_11  and  N_12 
REMARK    6  A    between atoms: C_17  and  C_18 
REMARK    7  A    between atoms: C_21  and  C_22 
REMARK    8  A    between atoms: C_29  and  C_30 
REMARK       I    between atoms: C_30  and  N_31 
REMARK    9  A    between atoms: N_31  and  C_32 
ROOT
HETATM    1  C   UNL     1       1.265   0.513  -2.132  1.00  0.00     0.071 C 
HETATM    2  C   UNL     1       2.694   0.794  -1.727  1.00  0.00     0.047 C 
HETATM    3  N   UNL     1       3.603   0.513  -2.737  1.00  0.00    -0.229 NA
HETATM    4  C   UNL     1       4.810   0.934  -2.579  1.00  0.00     0.170 C 
HETATM    5  N   UNL     1       5.368   1.537  -1.262  1.00  0.00    -0.319 N 
HETATM    6  C   UNL     1       6.496   2.139  -1.448  1.00  0.00     0.011 C 
HETATM    7  C   UNL     1       4.544   1.147  -0.096  1.00  0.00     0.165 C 
HETATM    8  S   UNL     1       5.985   0.996  -3.848  1.00  0.00    -0.086 SA
HETATM    9  C   UNL     1       6.988   2.167  -2.879  1.00  0.00     0.135 C 
HETATM   10  C   UNL     1       3.088   1.274  -0.522  1.00  0.00     0.062 C 
ENDROOT
BRANCH   6  11
HETATM   11  C   UNL     1       7.296   2.725  -0.321  1.00  0.00     0.156 C 
BRANCH  11  12
HETATM   12  C   UNL     1       7.499   4.225  -0.390  1.00  0.00     0.223 C 
HETATM   13  N   UNL     1       8.721   4.650   0.064  1.00  0.00    -0.359 N 
HETATM   14  H   UNL     1       9.339   3.951   0.471  1.00  0.00     0.162 HD
HETATM   15  O   UNL     1       6.618   4.981  -0.788  1.00  0.00    -0.273 OA
BRANCH  13  16
HETATM   16  C   UNL     1       9.124   6.027   0.371  1.00  0.00     0.150 C 
BRANCH  16  17
HETATM   17  C   UNL     1       8.642   7.170  -0.547  1.00  0.00     0.253 C 
BRANCH  17  18
HETATM   18  N   UNL     1       7.181   7.523  -0.359  1.00  0.00    -0.077 N 
HETATM   19  H   UNL     1       6.654   6.638  -0.501  1.00  0.00     0.279 HD
HETATM   20  C   UNL     1       6.835   8.048   1.008  1.00  0.00     0.269 C 
HETATM   21  C   UNL     1       6.706   8.473  -1.429  1.00  0.00     0.269 C 
ENDBRANCH  17  18
ENDBRANCH  16  17
ENDBRANCH  13  16
ENDBRANCH  11  12
ENDBRANCH   6  11
BRANCH   7  22
HETATM   22  C   UNL     1       4.981  -0.269   0.342  1.00  0.00    -0.030 A 
HETATM   23  C   UNL     1       6.296  -0.500   0.793  1.00  0.00     0.010 A 
HETATM   24  C   UNL     1       6.790  -1.797   0.977  1.00  0.00     0.008 A 
HETATM   25  C   UNL     1       5.979  -2.911   0.749  1.00  0.00    -0.055 A 
HETATM   26  C   UNL     1       4.640  -2.692   0.413  1.00  0.00     0.008 A 
HETATM   27  C   UNL     1       4.148  -1.396   0.218  1.00  0.00     0.010 A 
BRANCH  25  28
HETATM   28  C   UNL     1       6.558  -4.313   0.857  1.00  0.00     0.010 C 
HETATM   29  C   UNL     1       5.944  -5.096   2.017  1.00  0.00     0.015 C 
HETATM   30  C   UNL     1       6.409  -5.081  -0.461  1.00  0.00     0.015 C 
ENDBRANCH  25  28
ENDBRANCH   7  22
BRANCH  10  31
HETATM   31  C   UNL     1       2.267   2.103   0.424  1.00  0.00     0.256 C 
HETATM   32  N   UNL     1       1.291   2.856  -0.190  1.00  0.00    -0.323 N 
HETATM   33  H   UNL     1       0.972   2.594  -1.110  1.00  0.00     0.169 HD
HETATM   34  O   UNL     1       2.664   2.219   1.576  1.00  0.00    -0.267 OA
BRANCH  32  35
HETATM   35  C   UNL     1       0.712   4.063   0.256  1.00  0.00     0.035 A 
HETATM   36  C   UNL     1       1.153   4.781   1.366  1.00  0.00     0.029 A 
HETATM   37  C   UNL     1       0.598   6.033   1.656  1.00  0.00     0.002 A 
HETATM   38  C   UNL     1      -0.409   6.564   0.850  1.00  0.00     0.000 A 
HETATM   39  C   UNL     1      -0.873   5.841  -0.243  1.00  0.00     0.002 A 
HETATM   40  C   UNL     1      -0.312   4.599  -0.541  1.00  0.00     0.029 A 
ENDBRANCH  32  35
ENDBRANCH  10  31
TORSDOF 9
