REMARK  3 active torsions:
REMARK  status: ('A' for Active; 'I' for Inactive)
REMARK    1  A    between atoms: C_3  and  C_4 
REMARK    2  A    between atoms: C_8  and  C_9 
REMARK       I    between atoms: C_9  and  N_10 
REMARK    3  A    between atoms: N_10  and  N_11 
ROOT
HETATM    1  C   UNL     1       4.152   4.803  -0.839  1.00  0.00     0.289 C 
HETATM    2  N   UNL     1       5.290   4.132  -1.255  1.00  0.00    -0.241 N 
HETATM    3  O   UNL     1       4.068   6.025  -0.741  1.00  0.00    -0.264 OA
HETATM    4  H   UNL     1       5.308   3.114  -1.292  1.00  0.00     0.192 HD
ENDROOT
BRANCH   1   5
HETATM    5  C   UNL     1       3.036   3.952  -0.508  1.00  0.00     0.121 A 
HETATM    6  N   UNL     1       1.870   4.475  -0.026  1.00  0.00    -0.272 N 
HETATM    7  N   UNL     1       0.920   3.563   0.229  1.00  0.00    -0.174 NA
HETATM    8  H   UNL     1       1.671   5.457   0.141  1.00  0.00     0.189 HD
HETATM    9  C   UNL     1       1.494   2.386  -0.070  1.00  0.00     0.091 A 
HETATM   10  C   UNL     1       2.814   2.591  -0.562  1.00  0.00     0.071 A 
BRANCH   9  11
HETATM   11  C   UNL     1       0.752   1.131   0.073  1.00  0.00     0.016 A 
HETATM   12  C   UNL     1      -0.594   1.109  -0.341  1.00  0.00     0.015 A 
HETATM   13  C   UNL     1      -1.363  -0.053  -0.245  1.00  0.00     0.001 A 
HETATM   14  C   UNL     1      -0.800  -1.216   0.270  1.00  0.00     0.002 A 
HETATM   15  C   UNL     1       0.529  -1.211   0.696  1.00  0.00     0.025 A 
HETATM   16  C   UNL     1       1.304  -0.046   0.604  1.00  0.00     0.046 A 
HETATM   17 CL   UNL     1       2.919  -0.145   1.220  1.00  0.00    -0.083 Cl
ENDBRANCH   9  11
ENDBRANCH   1   5
BRANCH   2  18
HETATM   18  N   UNL     1       6.426   4.825  -1.576  1.00  0.00    -0.165 NA
HETATM   19  C   UNL     1       7.456   4.121  -1.920  1.00  0.00     0.157 A 
HETATM   20  C   UNL     1       7.577   2.597  -2.021  1.00  0.00     0.277 A 
HETATM   21  C   UNL     1       8.762   4.650  -2.291  1.00  0.00     0.027 A 
HETATM   22  O   UNL     1       6.678   1.817  -1.789  1.00  0.00    -0.266 OA
HETATM   23  N   UNL     1       8.875   2.354  -2.415  1.00  0.00    -0.321 N 
HETATM   24  C   UNL     1       9.571   3.550  -2.574  1.00  0.00     0.048 A 
HETATM   25  H   UNL     1       9.248   1.427  -2.562  1.00  0.00     0.169 HD
HETATM   26  C   UNL     1      10.885   3.709  -2.957  1.00  0.00     0.030 A 
HETATM   27  C   UNL     1      11.373   5.020  -3.051  1.00  0.00     0.002 A 
HETATM   28  C   UNL     1      10.548   6.128  -2.763  1.00  0.00     0.001 A 
HETATM   29  C   UNL     1       9.218   5.949  -2.376  1.00  0.00     0.016 A 
ENDBRANCH   2  18
TORSDOF 3
