REMARK  7 active torsions:
REMARK  status: ('A' for Active; 'I' for Inactive)
REMARK    1  A    between atoms: N_2  and  C_4 
REMARK       I    between atoms: N_7  and  C_8 
REMARK    2  A    between atoms: C_8  and  C_9 
REMARK    3  A    between atoms: N_12  and  C_13 
REMARK    4  A    between atoms: C_20  and  C_21 
REMARK    5  A    between atoms: C_21  and  N_22 
REMARK    6  A    between atoms: N_22  and  C_25 
REMARK    7  A    between atoms: C_25  and  C_26 
ROOT
HETATM    1  C   UNL     1       6.508  -7.649   3.516  1.00  0.00     0.719 A 
HETATM    2  N   UNL     1       6.198  -8.981   3.264  1.00  0.00    -0.154 N 
HETATM    3  C   UNL     1       7.164  -9.726   3.949  1.00  0.00     0.083 A 
HETATM    4  C   UNL     1       7.061 -11.147   3.934  1.00  0.00     0.033 A 
HETATM    5  C   UNL     1       6.084 -11.731   3.216  1.00  0.00     0.004 A 
HETATM    6  C   UNL     1       5.146 -10.945   2.439  1.00  0.00     0.018 A 
HETATM    7  C   UNL     1       5.222  -9.604   2.479  1.00  0.00     0.115 A 
HETATM    8  C   UNL     1       8.060  -8.817   4.464  1.00  0.00     0.107 A 
HETATM    9  N   UNL     1       7.651  -7.529   4.184  1.00  0.00    -0.064 NA
ENDROOT
BRANCH   1  10
HETATM   10  N   UNL     1       5.757  -6.529   3.136  1.00  0.00    -0.147 N 
HETATM   11  C   UNL     1       6.208  -5.224   3.165  1.00  0.00     0.233 A 
HETATM   12  N   UNL     1       5.329  -4.365   2.698  1.00  0.00    -0.236 NA
HETATM   13  C   UNL     1       4.212  -5.108   2.388  1.00  0.00     0.142 A 
HETATM   14  C   UNL     1       4.458  -6.436   2.703  1.00  0.00     0.153 A 
BRANCH  13  15
HETATM   15  C   UNL     1       2.955  -4.637   1.777  1.00  0.00     0.273 C 
HETATM   16  N   UNL     1       2.727  -3.261   1.536  1.00  0.00    -0.347 N 
HETATM   17  C   UNL     1       3.284  -2.209   2.384  1.00  0.00     0.128 C 
HETATM   18  C   UNL     1       1.475  -2.958   0.846  1.00  0.00     0.128 C 
HETATM   19  C   UNL     1       3.280  -0.844   1.702  1.00  0.00     0.053 C 
HETATM   20  C   UNL     1       1.918  -0.475   1.102  1.00  0.00     0.190 C 
HETATM   21  C   UNL     1       1.498  -1.602   0.155  1.00  0.00     0.053 C 
HETATM   22  O   UNL     1       2.105  -5.467   1.447  1.00  0.00    -0.266 OA
BRANCH  20  23
HETATM   23  N   UNL     1       0.857  -0.206   2.185  1.00  0.00    -0.074 N 
HETATM   24  C   UNL     1      -0.506   0.133   1.610  1.00  0.00     0.269 C 
HETATM   25  H   UNL     1       0.726  -1.057   2.746  1.00  0.00     0.279 HD
HETATM   26  C   UNL     1       1.260   0.887   3.154  1.00  0.00     0.269 C 
ENDBRANCH  20  23
ENDBRANCH  13  15
ENDBRANCH   1  10
BRANCH   8  27
HETATM   27  C   UNL     1       9.315  -9.071   5.225  1.00  0.00     0.294 C 
BRANCH  27  28
HETATM   28  N   UNL     1       9.729  -7.862   5.991  1.00  0.00    -0.066 N 
HETATM   29  H   UNL     1       9.797  -7.084   5.320  1.00  0.00     0.277 HD
HETATM   30  H   UNL     1       8.949  -7.591   6.603  1.00  0.00     0.277 HD
BRANCH  28  31
HETATM   31  C   UNL     1      10.985  -8.018   6.765  1.00  0.00     0.272 C 
BRANCH  31  32
HETATM   32  C   UNL     1      11.285  -6.813   7.595  1.00  0.00    -0.015 A 
HETATM   33  C   UNL     1      10.767  -6.689   8.881  1.00  0.00     0.125 A 
HETATM   34  N   UNL     1      10.969  -5.619   9.673  1.00  0.00    -0.273 NA
HETATM   35  C   UNL     1      11.748  -4.629   9.189  1.00  0.00     0.116 A 
HETATM   36  C   UNL     1      12.315  -4.655   7.927  1.00  0.00     0.020 A 
HETATM   37  C   UNL     1      12.072  -5.761   7.115  1.00  0.00     0.012 A 
ENDBRANCH  31  32
ENDBRANCH  28  31
ENDBRANCH  27  28
ENDBRANCH   8  27
TORSDOF 7
