REMARK  6 active torsions:
REMARK  status: ('A' for Active; 'I' for Inactive)
REMARK    1  A    between atoms: C_2  and  C_3 
REMARK    2  A    between atoms: C_3  and  O_4 
REMARK    3  A    between atoms: C_3  and  C_12 
REMARK    4  A    between atoms: O_4  and  C_5 
REMARK    5  A    between atoms: C_12  and  N_13 
REMARK       I    between atoms: N_13  and  C_14 
REMARK       I    between atoms: C_14  and  N_15 
REMARK    6  A    between atoms: N_15  and  C_16 
ROOT
HETATM    1  N   UNL     1       4.968   2.223   2.222  1.00  0.00    -0.340 N 
HETATM    2  C   UNL     1       4.553   3.319   2.938  1.00  0.00     0.320 C 
HETATM    3  N   UNL     1       5.619   3.983   3.502  1.00  0.00    -0.307 N 
HETATM    4  O   UNL     1       3.383   3.657   3.052  1.00  0.00    -0.247 OA
HETATM    5  H   UNL     1       5.946   1.981   2.270  1.00  0.00     0.164 HD
HETATM    6  H   UNL     1       6.472   3.960   2.968  1.00  0.00     0.170 HD
ENDROOT
BRANCH   1   7
HETATM    7  C   UNL     1       4.148   1.455   1.292  1.00  0.00     0.156 C 
BRANCH   7   8
HETATM    8  C   UNL     1       2.625   1.365   1.529  1.00  0.00     0.146 C 
BRANCH   8   9
HETATM    9  C   UNL     1       2.236   0.691   2.856  1.00  0.00     0.029 C 
HETATM   10  C   UNL     1       2.637  -0.775   2.962  1.00  0.00     0.007 C 
ENDBRANCH   8   9
BRANCH   8  11
HETATM   11  O   UNL     1       2.090   0.600   0.434  1.00  0.00    -0.343 OA
BRANCH  11  12
HETATM   12  C   UNL     1       0.866   0.912  -0.094  1.00  0.00     0.091 A 
HETATM   13  C   UNL     1       0.459   0.164  -1.212  1.00  0.00     0.067 A 
HETATM   14 CL   UNL     1       1.454  -1.095  -1.863  1.00  0.00    -0.081 Cl
HETATM   15  C   UNL     1      -0.767   0.414  -1.836  1.00  0.00     0.026 A 
HETATM   16  C   UNL     1      -1.604   1.416  -1.353  1.00  0.00     0.002 A 
HETATM   17  C   UNL     1      -1.217   2.158  -0.239  1.00  0.00     0.003 A 
HETATM   18  C   UNL     1       0.006   1.903   0.391  1.00  0.00     0.038 A 
ENDBRANCH  11  12
ENDBRANCH   8  11
ENDBRANCH   7   8
ENDBRANCH   1   7
BRANCH   3  19
HETATM   19  C   UNL     1       5.509   4.968   4.511  1.00  0.00     0.059 A 
HETATM   20  C   UNL     1       6.524   5.924   4.683  1.00  0.00    -0.032 A 
HETATM   21  C   UNL     1       7.703   6.027   3.759  1.00  0.00     0.050 C 
HETATM   22  C   UNL     1       6.402   6.845   5.733  1.00  0.00     0.028 A 
HETATM   23  C   UNL     1       5.297   6.781   6.569  1.00  0.00     0.117 A 
HETATM   24  N   UNL     1       4.311   5.877   6.432  1.00  0.00    -0.271 NA
HETATM   25  C   UNL     1       4.435   4.998   5.406  1.00  0.00     0.146 A 
ENDBRANCH   3  19
TORSDOF 6
