REMARK  4 active torsions:
REMARK  status: ('A' for Active; 'I' for Inactive)
REMARK    1  A    between atoms: C_4  and  N_5 
REMARK       I    between atoms: N_5  and  C_6 
REMARK    2  A    between atoms: C_6  and  C_7 
REMARK    3  A    between atoms: C_7  and  C_8 
REMARK    4  A    between atoms: C_10  and  O_11 
ROOT
HETATM    1  N   UNL     1       4.609   2.441   0.182  1.00  0.00    -0.325 N 
HETATM    2  C   UNL     1       4.136   3.733   0.252  1.00  0.00     0.226 C 
HETATM    3  O   UNL     1       2.975   4.063   0.486  1.00  0.00    -0.273 OA
HETATM    4  H   UNL     1       5.614   2.277   0.178  1.00  0.00     0.169 HD
ENDROOT
BRANCH   1   5
HETATM    5  C   UNL     1       3.860   1.238   0.187  1.00  0.00     0.065 A 
HETATM    6  C   UNL     1       2.467   1.210   0.053  1.00  0.00     0.038 A 
HETATM    7  C   UNL     1       1.779  -0.006   0.015  1.00  0.00    -0.059 A 
HETATM    8  C   UNL     1       0.288  -0.040  -0.148  1.00  0.00     0.048 C 
HETATM    9  C   UNL     1       2.501  -1.196   0.135  1.00  0.00     0.020 A 
HETATM   10  C   UNL     1       3.899  -1.176   0.271  1.00  0.00    -0.005 A 
HETATM   11  C   UNL     1       4.599   0.049   0.290  1.00  0.00     0.093 A 
HETATM   12  C   UNL     1       4.636  -2.362   0.390  1.00  0.00     0.015 A 
HETATM   13  N   UNL     1       5.950   0.098   0.409  1.00  0.00    -0.258 NA
HETATM   14  C   UNL     1       6.622  -1.070   0.525  1.00  0.00     0.117 A 
HETATM   15  C   UNL     1       6.017  -2.311   0.521  1.00  0.00     0.020 A 
ENDBRANCH   1   5
BRANCH   2  16
HETATM   16  C   UNL     1       5.204   4.783  -0.026  1.00  0.00     0.141 C 
BRANCH  16  17
HETATM   17  C   UNL     1       5.096   5.337  -1.429  1.00  0.00    -0.047 A 
HETATM   18  C   UNL     1       3.942   6.032  -1.827  1.00  0.00     0.044 A 
HETATM   19  C   UNL     1       3.829   6.509  -3.129  1.00  0.00     0.066 A 
HETATM   20  C   UNL     1       4.855   6.324  -4.046  1.00  0.00     0.036 A 
HETATM   21  C   UNL     1       6.010   5.646  -3.658  1.00  0.00     0.003 A 
HETATM   22  C   UNL     1       6.130   5.152  -2.356  1.00  0.00     0.007 A 
BRANCH  19  23
HETATM   23  O   UNL     1       2.707   7.162  -3.548  1.00  0.00    -0.361 OA
HETATM   24  H   UNL     1       2.057   7.140  -2.826  1.00  0.00     0.217 HD
ENDBRANCH  19  23
ENDBRANCH  16  17
ENDBRANCH   2  16
TORSDOF 4
