REMARK  5 active torsions:
REMARK  status: ('A' for Active; 'I' for Inactive)
REMARK    1  A    between atoms: C_7  and  C_8 
REMARK    2  A    between atoms: N_9  and  N_10 
REMARK       I    between atoms: N_10  and  C_11 
REMARK    3  A    between atoms: C_11  and  C_12 
REMARK    4  A    between atoms: C_12  and  N_13 
REMARK       I    between atoms: N_13  and  C_14 
REMARK    5  A    between atoms: C_14  and  C_15 
ROOT
HETATM    1  N   UNL     1       3.029  -4.709   0.072  1.00  0.00    -0.246 N 
HETATM    2  C   UNL     1       3.837  -5.823  -0.102  1.00  0.00     0.255 C 
HETATM    3  O   UNL     1       5.055  -5.806  -0.272  1.00  0.00    -0.270 OA
HETATM    4  H   UNL     1       2.024  -4.842   0.220  1.00  0.00     0.192 HD
ENDROOT
BRANCH   1   5
HETATM    5  N   UNL     1       3.567  -3.457   0.035  1.00  0.00    -0.184 NA
HETATM    6  C   UNL     1       2.722  -2.482   0.130  1.00  0.00     0.153 C 
BRANCH   6   7
HETATM    7  C   UNL     1       3.188  -1.107   0.081  1.00  0.00     0.018 A 
HETATM    8  C   UNL     1       4.507  -0.674   0.012  1.00  0.00     0.018 A 
HETATM    9  C   UNL     1       5.787  -1.433  -0.027  1.00  0.00     0.069 C 
HETATM   10  N   UNL     1       4.497   0.698  -0.025  1.00  0.00    -0.358 N 
HETATM   11  H   UNL     1       5.319   1.281  -0.080  1.00  0.00     0.166 HD
HETATM   12  C   UNL     1       3.209   1.175   0.016  1.00  0.00     0.043 A 
HETATM   13  C   UNL     1       2.364   0.068   0.085  1.00  0.00     0.004 A 
HETATM   14  C   UNL     1       2.739   2.494  -0.007  1.00  0.00     0.030 A 
HETATM   15  C   UNL     1       0.971   0.297   0.133  1.00  0.00     0.014 A 
HETATM   16  C   UNL     1       0.483   1.609   0.110  1.00  0.00     0.001 A 
HETATM   17  C   UNL     1       1.357   2.690   0.040  1.00  0.00     0.002 A 
ENDBRANCH   6   7
ENDBRANCH   1   5
BRANCH   2  18
HETATM   18  C   UNL     1       3.041  -7.128  -0.169  1.00  0.00     0.227 C 
BRANCH  18  19
HETATM   19  N   UNL     1       2.345  -7.461   1.064  1.00  0.00    -0.348 N 
HETATM   20  C   UNL     1       1.148  -6.887   1.417  1.00  0.00     0.255 C 
HETATM   21  O   UNL     1       0.677  -5.943   0.786  1.00  0.00    -0.268 OA
HETATM   22  H   UNL     1       2.733  -8.208   1.631  1.00  0.00     0.163 HD
BRANCH  20  23
HETATM   23  C   UNL     1       0.445  -7.428   2.614  1.00  0.00     0.070 A 
HETATM   24  C   UNL     1       0.890  -8.553   3.312  1.00  0.00     0.132 A 
HETATM   25  F   UNL     1       2.001  -9.207   2.938  1.00  0.00    -0.205 F 
HETATM   26  C   UNL     1       0.192  -9.037   4.418  1.00  0.00     0.043 A 
HETATM   27  C   UNL     1      -0.970  -8.394   4.841  1.00  0.00     0.003 A 
HETATM   28  C   UNL     1      -1.429  -7.270   4.156  1.00  0.00     0.001 A 
HETATM   29  C   UNL     1      -0.727  -6.789   3.047  1.00  0.00     0.020 A 
ENDBRANCH  20  23
ENDBRANCH  18  19
ENDBRANCH   2  18
TORSDOF 5
