REMARK  4 active torsions:
REMARK  status: ('A' for Active; 'I' for Inactive)
REMARK    1  A    between atoms: C_2  and  C_3 
REMARK    2  A    between atoms: C_8  and  N_9 
REMARK       I    between atoms: N_9  and  C_10 
REMARK       I    between atoms: C_10  and  N_11 
REMARK    3  A    between atoms: N_11  and  C_12 
REMARK    4  A    between atoms: C_12  and  C_13 
ROOT
HETATM    1  N   UNL     1       3.332  -3.041   2.092  1.00  0.00    -0.305 N 
HETATM    2  C   UNL     1       3.771  -1.852   1.560  1.00  0.00     0.321 C 
HETATM    3  N   UNL     1       3.522  -1.797   0.207  1.00  0.00    -0.339 N 
HETATM    4  O   UNL     1       4.344  -0.958   2.165  1.00  0.00    -0.247 OA
HETATM    5  H   UNL     1       3.235  -3.804   1.439  1.00  0.00     0.171 HD
HETATM    6  H   UNL     1       2.754  -2.351  -0.139  1.00  0.00     0.164 HD
ENDROOT
BRANCH   3   7
HETATM    7  C   UNL     1       3.889  -0.642  -0.587  1.00  0.00     0.163 C 
BRANCH   7   8
HETATM    8  C   UNL     1       2.673  -0.027  -1.245  1.00  0.00    -0.029 A 
HETATM    9  C   UNL     1       1.863   0.951  -0.600  1.00  0.00    -0.018 A 
HETATM   10  C   UNL     1       0.737   1.466  -1.293  1.00  0.00    -0.025 A 
HETATM   11  C   UNL     1       2.110   1.451   0.700  1.00  0.00     0.013 A 
HETATM   12  C   UNL     1      -0.076   2.442  -0.692  1.00  0.00     0.012 A 
HETATM   13  C   UNL     1       0.433   1.002  -2.581  1.00  0.00     0.012 A 
HETATM   14  C   UNL     1       0.199   2.917   0.588  1.00  0.00     0.001 A 
HETATM   15  C   UNL     1       1.291   2.420   1.285  1.00  0.00     0.001 A 
HETATM   16  C   UNL     1       1.221   0.035  -3.198  1.00  0.00     0.002 A 
HETATM   17  C   UNL     1       2.330  -0.477  -2.535  1.00  0.00     0.010 A 
ENDBRANCH   7   8
ENDBRANCH   3   7
BRANCH   1  18
HETATM   18  C   UNL     1       3.299  -3.367   3.440  1.00  0.00     0.095 A 
HETATM   19  C   UNL     1       3.165  -4.661   3.901  1.00  0.00     0.107 A 
HETATM   20  O   UNL     1       3.147  -4.660   5.258  1.00  0.00    -0.215 OA
HETATM   21  N   UNL     1       3.257  -3.369   5.721  1.00  0.00    -0.131 NA
HETATM   22  C   UNL     1       3.342  -2.589   4.633  1.00  0.00     0.087 A 
HETATM   23  C   UNL     1       3.414  -1.121   4.828  1.00  0.00     0.075 C 
BRANCH  19  24
HETATM   24  C   UNL     1       3.065  -5.995   3.262  1.00  0.00     0.065 C 
HETATM   25  C   UNL     1       1.627  -6.353   2.931  1.00  0.00     0.012 C 
ENDBRANCH  19  24
ENDBRANCH   1  18
TORSDOF 4
