REMARK  6 active torsions:
REMARK  status: ('A' for Active; 'I' for Inactive)
REMARK    1  A    between atoms: C_2  and  O_3 
REMARK    2  A    between atoms: O_3  and  C_4 
REMARK    3  A    between atoms: C_7  and  C_8 
REMARK       I    between atoms: N_11  and  C_12 
REMARK       I    between atoms: C_12  and  N_13 
REMARK    4  A    between atoms: N_13  and  C_14 
REMARK    5  A    between atoms: C_14  and  C_15 
REMARK    6  A    between atoms: C_15  and  C_16 
ROOT
HETATM    1  C   UNL     1       8.594  -2.389   0.277  1.00  0.00    -0.049 C 
HETATM    2  C   UNL     1       9.556  -1.260  -0.005  1.00  0.00     0.059 C 
HETATM    3  C   UNL     1      10.986  -1.618   0.408  1.00  0.00     0.132 C 
HETATM    4  N   UNL     1      11.357  -2.949  -0.058  1.00  0.00    -0.331 N 
HETATM    5  C   UNL     1      12.575  -3.111  -0.696  1.00  0.00     0.318 C 
HETATM    6  N   UNL     1      12.909  -4.407  -0.998  1.00  0.00    -0.338 N 
HETATM    7  O   UNL     1      13.298  -2.166  -1.005  1.00  0.00    -0.247 OA
HETATM    8  C   UNL     1      10.502  -4.047   0.382  1.00  0.00     0.155 C 
HETATM    9  C   UNL     1       9.061  -3.636   0.485  1.00  0.00     0.001 C 
HETATM   10  H   UNL     1      12.654  -5.080  -0.283  1.00  0.00     0.164 HD
ENDROOT
BRANCH   6  11
HETATM   11  C   UNL     1      14.204  -4.728  -1.596  1.00  0.00     0.087 C 
HETATM   12  C   UNL     1      14.062  -5.926  -2.533  1.00  0.00     0.032 C 
BRANCH  11  13
HETATM   13  C   UNL     1      15.279  -4.943  -0.510  1.00  0.00     0.085 C 
BRANCH  13  14
HETATM   14  C   UNL     1      15.052  -6.145   0.360  1.00  0.00     0.058 A 
HETATM   15  N   UNL     1      13.873  -6.355   0.966  1.00  0.00    -0.179 NA
HETATM   16  N   UNL     1      14.056  -7.502   1.643  1.00  0.00    -0.282 N 
HETATM   17  H   UNL     1      13.285  -7.864   2.194  1.00  0.00     0.189 HD
HETATM   18  C   UNL     1      15.302  -8.040   1.485  1.00  0.00     0.026 A 
HETATM   19  C   UNL     1      15.719  -9.301   2.137  1.00  0.00     0.070 C 
HETATM   20  C   UNL     1      15.977  -7.173   0.658  1.00  0.00     0.055 A 
ENDBRANCH  13  14
ENDBRANCH  11  13
ENDBRANCH   6  11
BRANCH   1  21
HETATM   21  C   UNL     1       7.144  -2.102   0.317  1.00  0.00    -0.030 A 
HETATM   22  C   UNL     1       6.634  -0.982   0.985  1.00  0.00     0.014 A 
HETATM   23  C   UNL     1       5.259  -0.702   0.987  1.00  0.00     0.037 A 
HETATM   24  C   UNL     1       4.371  -1.542   0.319  1.00  0.00     0.068 A 
HETATM   25  C   UNL     1       4.867  -2.665  -0.342  1.00  0.00     0.037 A 
HETATM   26  C   UNL     1       6.238  -2.939  -0.350  1.00  0.00     0.014 A 
BRANCH  24  27
HETATM   27  O   UNL     1       3.015  -1.386   0.241  1.00  0.00    -0.352 OA
BRANCH  27  28
HETATM   28  C   UNL     1       2.471  -0.173   0.757  1.00  0.00     0.171 C 
HETATM   29  C   UNL     1       0.979  -0.175   0.476  1.00  0.00     0.034 C 
ENDBRANCH  27  28
ENDBRANCH  24  27
ENDBRANCH   1  21
TORSDOF 6
