REMARK  3 active torsions:
REMARK  status: ('A' for Active; 'I' for Inactive)
REMARK    1  A    between atoms: C_9  and  C_10 
REMARK    2  A    between atoms: C_16  and  C_17 
REMARK       I    between atoms: C_17  and  N_18 
REMARK    3  A    between atoms: N_18  and  C_19 
ROOT
HETATM    1  C   UNL     1       0.819   0.106  -1.057  1.00  0.00     0.070 C 
HETATM    2  C   UNL     1       2.216   0.056  -0.489  1.00  0.00     0.037 C 
HETATM    3  N   UNL     1       2.805   1.291  -0.237  1.00  0.00    -0.192 N 
HETATM    4  C   UNL     1       4.120   1.434   0.017  1.00  0.00     0.725 A 
HETATM    5  N   UNL     1       4.891   0.321   0.215  1.00  0.00    -0.082 N 
HETATM    6  N   UNL     1       6.203   0.642   0.299  1.00  0.00    -0.149 NA
HETATM    7  C   UNL     1       6.132   1.977   0.227  1.00  0.00     0.275 A 
HETATM    8  N   UNL     1       4.877   2.501   0.052  1.00  0.00    -0.054 NA
HETATM    9  C   UNL     1       4.374  -1.048   0.201  1.00  0.00     0.221 C 
HETATM   10  C   UNL     1       2.929  -1.080  -0.285  1.00  0.00     0.064 C 
HETATM   11  H   UNL     1       2.273   2.124  -0.475  1.00  0.00     0.184 HD
ENDROOT
BRANCH  10  12
HETATM   12  C   UNL     1       2.446  -2.447  -0.608  1.00  0.00     0.256 C 
HETATM   13  N   UNL     1       1.233  -2.765  -0.044  1.00  0.00    -0.322 N 
HETATM   14  H   UNL     1       0.844  -2.099   0.613  1.00  0.00     0.169 HD
HETATM   15  O   UNL     1       3.148  -3.170  -1.305  1.00  0.00    -0.267 OA
BRANCH  13  16
HETATM   16  C   UNL     1       0.457  -3.910  -0.324  1.00  0.00     0.052 A 
HETATM   17  C   UNL     1       0.833  -4.945  -1.177  1.00  0.00     0.145 A 
HETATM   18  N   UNL     1       0.050  -6.016  -1.469  1.00  0.00    -0.271 NA
HETATM   19  C   UNL     1      -1.166  -6.060  -0.889  1.00  0.00     0.116 A 
HETATM   20  C   UNL     1      -1.634  -5.086  -0.024  1.00  0.00     0.021 A 
HETATM   21  C   UNL     1      -0.807  -4.000   0.264  1.00  0.00     0.032 A 
ENDBRANCH  13  16
ENDBRANCH  10  12
BRANCH   9  22
HETATM   22  C   UNL     1       4.543  -1.643   1.596  1.00  0.00     0.064 A 
HETATM   23  N   UNL     1       3.518  -1.516   2.486  1.00  0.00    -0.263 NA
HETATM   24  C   UNL     1       3.719  -1.983   3.739  1.00  0.00     0.117 A 
HETATM   25  C   UNL     1       4.890  -2.587   4.160  1.00  0.00     0.019 A 
HETATM   26  C   UNL     1       5.923  -2.725   3.243  1.00  0.00     0.003 A 
HETATM   27  C   UNL     1       5.753  -2.248   1.947  1.00  0.00     0.030 A 
ENDBRANCH   9  22
TORSDOF 3
