REMARK  1 active torsions:
REMARK  status: ('A' for Active; 'I' for Inactive)
REMARK    1  A    between atoms: C_8  and  C_9 
ROOT
HETATM    1  C   UNL     1       1.387  -0.807  -0.557  1.00  0.00     0.073 C 
HETATM    2  C   UNL     1       2.788  -0.445  -0.206  1.00  0.00     0.062 A 
HETATM    3  N   UNL     1       3.652  -1.413   0.103  1.00  0.00    -0.178 NA
HETATM    4  N   UNL     1       4.797  -0.763   0.316  1.00  0.00    -0.262 N 
HETATM    5  H   UNL     1       5.615  -1.312   0.551  1.00  0.00     0.191 HD
HETATM    6  C   UNL     1       4.702   0.602   0.219  1.00  0.00     0.134 A 
HETATM    7  C   UNL     1       3.390   0.862  -0.151  1.00  0.00     0.032 A 
HETATM    8  C   UNL     1       2.698   2.132  -0.544  1.00  0.00     0.119 C 
HETATM    9  S   UNL     1       3.725   3.598  -0.775  1.00  0.00    -0.141 SA
HETATM   10  C   UNL     1       4.683   3.570   0.768  1.00  0.00     0.136 C 
HETATM   11  C   UNL     1       5.054   5.012   1.116  1.00  0.00     0.031 C 
HETATM   12  C   UNL     1       5.931   2.712   0.606  1.00  0.00     0.236 C 
HETATM   13  O   UNL     1       7.070   3.175   0.719  1.00  0.00    -0.272 OA
HETATM   14  N   UNL     1       5.828   1.359   0.441  1.00  0.00    -0.311 N 
HETATM   15  H   UNL     1       6.732   0.901   0.495  1.00  0.00     0.170 HD
ENDROOT
BRANCH   8  16
HETATM   16  C   UNL     1       1.505   2.361   0.376  1.00  0.00    -0.039 A 
HETATM   17  C   UNL     1       0.290   2.789  -0.200  1.00  0.00     0.021 A 
HETATM   18  C   UNL     1      -0.873   2.976   0.568  1.00  0.00    -0.025 A 
HETATM   19  C   UNL     1      -0.821   2.757   1.960  1.00  0.00    -0.026 A 
HETATM   20  C   UNL     1      -2.087   3.363  -0.023  1.00  0.00     0.012 A 
HETATM   21  C   UNL     1       0.390   2.361   2.544  1.00  0.00     0.013 A 
HETATM   22  C   UNL     1      -1.985   2.933   2.727  1.00  0.00     0.012 A 
HETATM   23  C   UNL     1       1.534   2.163   1.765  1.00  0.00     0.009 A 
HETATM   24  C   UNL     1      -3.185   3.314   2.125  1.00  0.00     0.001 A 
HETATM   25  C   UNL     1      -3.237   3.527   0.751  1.00  0.00     0.001 A 
ENDBRANCH   8  16
TORSDOF 1
