REMARK  10 active torsions:
REMARK  status: ('A' for Active; 'I' for Inactive)
REMARK    1  A    between atoms: C_2  and  C_3 
REMARK    2  A    between atoms: C_3  and  N_4 
REMARK    3  A    between atoms: C_7  and  C_8 
REMARK       I    between atoms: C_8  and  N_9 
REMARK    4  A    between atoms: N_9  and  C_10 
REMARK    5  A    between atoms: C_10  and  C_11 
REMARK    6  A    between atoms: C_11  and  O_12 
REMARK    7  A    between atoms: C_11  and  C_13 
REMARK    8  A    between atoms: C_13  and  O_14 
REMARK    9  A    between atoms: O_14  and  C_15 
REMARK   10  A    between atoms: C_23  and  C_24 
ROOT
HETATM    1  C   UNL     1       2.042   4.303  -7.505  1.00  0.00     0.255 C 
HETATM    2  N   UNL     1       1.845   3.018  -7.069  1.00  0.00    -0.354 N 
HETATM    3  O   UNL     1       1.132   5.016  -7.913  1.00  0.00    -0.268 OA
HETATM    4  H   UNL     1       2.627   2.511  -6.674  1.00  0.00     0.162 HD
ENDROOT
BRANCH   2   5
HETATM    5  C   UNL     1       0.513   2.497  -6.822  1.00  0.00     0.156 C 
BRANCH   5   6
HETATM    6  C   UNL     1       0.459   0.972  -6.921  1.00  0.00     0.160 C 
BRANCH   6   7
HETATM    7  O   UNL     1       1.344   0.408  -5.938  1.00  0.00    -0.392 OA
HETATM    8  H   UNL     1       1.332  -0.556  -6.097  1.00  0.00     0.210 HD
ENDBRANCH   6   7
BRANCH   6   9
HETATM    9  C   UNL     1       0.861   0.472  -8.312  1.00  0.00     0.209 C 
BRANCH   9  10
HETATM   10  O   UNL     1       0.619  -0.940  -8.345  1.00  0.00    -0.349 OA
BRANCH  10  11
HETATM   11  C   UNL     1       0.949  -1.592  -9.501  1.00  0.00     0.069 A 
HETATM   12  C   UNL     1       0.561  -2.935  -9.544  1.00  0.00     0.043 A 
HETATM   13  C   UNL     1       0.836  -3.730 -10.664  1.00  0.00    -0.059 A 
HETATM   14  C   UNL     1       0.426  -5.172 -10.705  1.00  0.00     0.048 C 
HETATM   15  C   UNL     1       1.531  -3.168 -11.740  1.00  0.00     0.007 A 
HETATM   16  C   UNL     1       1.923  -1.831 -11.702  1.00  0.00     0.003 A 
HETATM   17  C   UNL     1       1.630  -1.042 -10.587  1.00  0.00     0.037 A 
ENDBRANCH  10  11
ENDBRANCH   9  10
ENDBRANCH   6   9
ENDBRANCH   5   6
ENDBRANCH   2   5
BRANCH   1  18
HETATM   18  C   UNL     1       3.422   4.734  -7.537  1.00  0.00     0.075 A 
HETATM   19  C   UNL     1       4.117   5.031  -8.730  1.00  0.00     0.158 A 
HETATM   20  N   UNL     1       5.342   5.497  -8.516  1.00  0.00    -0.183 NA
HETATM   21  N   UNL     1       5.421   5.591  -7.173  1.00  0.00    -0.268 N 
HETATM   22  C   UNL     1       4.310   5.078  -6.523  1.00  0.00     0.052 A 
BRANCH  21  23
HETATM   23  C   UNL     1       6.593   6.249  -6.590  1.00  0.00     0.106 C 
HETATM   24  C   UNL     1       6.857   7.619  -7.223  1.00  0.00     0.034 C 
BRANCH  23  25
HETATM   25  C   UNL     1       7.832   5.335  -6.556  1.00  0.00     0.022 C 
HETATM   26  C   UNL     1       8.534   5.116  -7.890  1.00  0.00     0.007 C 
ENDBRANCH  23  25
ENDBRANCH  21  23
BRANCH  22  27
HETATM   27  C   UNL     1       4.142   5.039  -5.000  1.00  0.00     0.038 A 
HETATM   28  C   UNL     1       2.774   4.985  -4.362  1.00  0.00     0.011 A 
HETATM   29  C   UNL     1       3.661   3.787  -4.307  1.00  0.00     0.011 A 
ENDBRANCH  22  27
ENDBRANCH   1  18
TORSDOF 10
