REMARK  5 active torsions:
REMARK  status: ('A' for Active; 'I' for Inactive)
REMARK    1  A    between atoms: C_8  and  C_9 
REMARK    2  A    between atoms: C_11  and  O_12 
REMARK    3  A    between atoms: C_14  and  O_15 
REMARK    4  A    between atoms: C_18  and  C_19 
REMARK    5  A    between atoms: C_22  and  O_23 
ROOT
HETATM    1  C   UNL     1       0.857  -0.128  -1.021  1.00  0.00     0.070 C 
HETATM    2  C   UNL     1       2.291   0.018  -0.680  1.00  0.00     0.033 A 
HETATM    3  N   UNL     1       3.157  -1.041  -0.766  1.00  0.00    -0.282 N 
HETATM    4  H   UNL     1       2.950  -1.998  -1.030  1.00  0.00     0.189 HD
HETATM    5  N   UNL     1       4.435  -0.719  -0.512  1.00  0.00    -0.179 NA
HETATM    6  C   UNL     1       4.373   0.573  -0.188  1.00  0.00     0.066 A 
HETATM    7  C   UNL     1       3.050   1.089  -0.243  1.00  0.00     0.001 A 
HETATM    8  C   UNL     1       2.744   2.542  -0.009  1.00  0.00     0.070 C 
HETATM    9  C   UNL     1       3.953   3.324   0.574  1.00  0.00     0.102 C 
HETATM   10  C   UNL     1       5.311   2.895  -0.055  1.00  0.00     0.071 C 
HETATM   11  C   UNL     1       5.364   3.272  -1.548  1.00  0.00     0.047 C 
HETATM   12  C   UNL     1       5.585   1.377   0.130  1.00  0.00     0.100 C 
ENDROOT
BRANCH   8  13
HETATM   13  C   UNL     1       1.455   2.717   0.782  1.00  0.00    -0.046 A 
HETATM   14  C   UNL     1       1.053   1.855   1.822  1.00  0.00     0.047 A 
HETATM   15  C   UNL     1      -0.132   2.088   2.524  1.00  0.00     0.101 A 
HETATM   16  C   UNL     1      -0.880   3.232   2.243  1.00  0.00     0.099 A 
HETATM   17  C   UNL     1      -0.499   4.110   1.241  1.00  0.00     0.040 A 
HETATM   18  C   UNL     1       0.659   3.848   0.508  1.00  0.00     0.011 A 
BRANCH  15  19
HETATM   19  O   UNL     1      -0.620   1.286   3.524  1.00  0.00    -0.353 OA
HETATM   20  C   UNL     1      -0.409  -0.108   3.304  1.00  0.00     0.210 C 
ENDBRANCH  15  19
BRANCH  16  21
HETATM   21  O   UNL     1      -2.015   3.505   2.954  1.00  0.00    -0.358 OA
HETATM   22  H   UNL     1      -2.063   2.799   3.628  1.00  0.00     0.218 HD
ENDBRANCH  16  21
ENDBRANCH   8  13
BRANCH   9  23
HETATM   23  C   UNL     1       4.043   3.220   2.100  1.00  0.00     0.131 C 
HETATM   24  C   UNL     1       4.061   4.520   2.866  1.00  0.00     0.091 C 
HETATM   25  O   UNL     1       4.109   2.142   2.693  1.00  0.00    -0.298 OA
ENDBRANCH   9  23
BRANCH  10  26
HETATM   26  O   UNL     1       6.353   3.665   0.571  1.00  0.00    -0.389 OA
HETATM   27  H   UNL     1       7.211   3.309   0.274  1.00  0.00     0.210 HD
ENDBRANCH  10  26
TORSDOF 5
