REMARK  4 active torsions:
REMARK  status: ('A' for Active; 'I' for Inactive)
REMARK    1  A    between atoms: C_2  and  N_3 
REMARK    2  A    between atoms: C_11  and  N_12 
REMARK    3  A    between atoms: N_12  and  C_15 
REMARK    4  A    between atoms: C_15  and  C_16 
ROOT
HETATM    1  N   UNL     1       2.964  -0.748  -1.089  1.00  0.00    -0.067 N 
HETATM    2  H   UNL     1       2.600  -0.468  -2.013  1.00  0.00     0.280 HD
HETATM    3  C   UNL     1       4.468  -0.842  -1.272  1.00  0.00     0.238 C 
HETATM    4  C   UNL     1       5.120  -1.442  -0.029  1.00  0.00     0.066 C 
HETATM    5  C   UNL     1       4.561  -2.844   0.306  1.00  0.00     0.073 C 
HETATM    6  O   UNL     1       4.934  -3.680  -0.800  1.00  0.00    -0.339 OA
HETATM    7  C   UNL     1       4.839  -5.031  -0.615  1.00  0.00     0.078 A 
HETATM    8  C   UNL     1       4.774  -5.643   0.642  1.00  0.00     0.006 A 
HETATM    9  C   UNL     1       4.872  -4.821   1.900  1.00  0.00     0.224 C 
HETATM   10  C   UNL     1       5.241  -3.363   1.587  1.00  0.00     0.076 C 
HETATM   11  C   UNL     1       4.807  -5.791  -1.784  1.00  0.00     0.037 A 
HETATM   12  C   UNL     1       4.652  -7.173  -1.715  1.00  0.00     0.003 A 
HETATM   13  C   UNL     1       4.523  -7.793  -0.477  1.00  0.00     0.001 A 
HETATM   14  C   UNL     1       4.577  -7.036   0.695  1.00  0.00     0.012 A 
HETATM   15  C   UNL     1       3.022  -2.757   0.405  1.00  0.00     0.066 C 
HETATM   16  C   UNL     1       2.407  -2.138  -0.851  1.00  0.00     0.238 C 
ENDROOT
BRANCH   9  17
HETATM   17  N   UNL     1       5.886  -5.388   2.856  1.00  0.00    -0.063 N 
HETATM   18  H   UNL     1       5.691  -6.386   3.010  1.00  0.00     0.278 HD
HETATM   19  H   UNL     1       6.820  -5.386   2.423  1.00  0.00     0.278 HD
BRANCH  17  20
HETATM   20  C   UNL     1       5.979  -4.771   4.211  1.00  0.00     0.274 C 
BRANCH  20  21
HETATM   21  C   UNL     1       6.876  -5.562   5.077  1.00  0.00     0.004 A 
HETATM   22  C   UNL     1       8.232  -5.800   4.939  1.00  0.00     0.122 A 
HETATM   23  N   UNL     1       8.596  -6.581   6.004  1.00  0.00    -0.285 N 
HETATM   24  C   UNL     1       9.916  -7.074   6.328  1.00  0.00     0.179 C 
HETATM   25  N   UNL     1       7.560  -6.889   6.798  1.00  0.00    -0.185 NA
HETATM   26  C   UNL     1       6.525  -6.252   6.260  1.00  0.00     0.149 A 
ENDBRANCH  20  21
ENDBRANCH  17  20
ENDBRANCH   9  17
BRANCH   1  27
HETATM   27  C   UNL     1       2.472   0.355  -0.133  1.00  0.00     0.180 C 
HETATM   28  C   UNL     1       0.943   0.394  -0.112  1.00  0.00     0.039 C 
HETATM   29  C   UNL     1       3.002   1.718  -0.584  1.00  0.00     0.039 C 
ENDBRANCH   1  27
TORSDOF 4
