REMARK  6 active torsions:
REMARK  status: ('A' for Active; 'I' for Inactive)
REMARK    1  A    between atoms: C_2  and  C_3 
REMARK    2  A    between atoms: C_3  and  C_4 
REMARK    3  A    between atoms: C_4  and  N_5 
REMARK       I    between atoms: N_5  and  C_6 
REMARK       I    between atoms: C_6  and  N_7 
REMARK    4  A    between atoms: N_7  and  C_8 
REMARK    5  A    between atoms: N_11  and  C_12 
REMARK    6  A    between atoms: C_15  and  O_16 
ROOT
HETATM    1  C   UNL     1       6.399   0.543   0.171  1.00  0.00     0.123 C 
HETATM    2  C   UNL     1       6.634  -0.330  -1.011  1.00  0.00     0.009 A 
HETATM    3  C   UNL     1       7.067  -1.643  -0.937  1.00  0.00     0.047 A 
HETATM    4  N   UNL     1       7.038  -2.153  -2.232  1.00  0.00    -0.238 N 
HETATM    5  N   UNL     1       6.631  -1.186  -3.108  1.00  0.00    -0.179 NA
HETATM    6  C   UNL     1       6.378  -0.112  -2.367  1.00  0.00     0.150 A 
HETATM    7  C   UNL     1       7.417  -2.344   0.337  1.00  0.00     0.069 C 
HETATM    8  C   UNL     1       6.960  -1.543   1.599  1.00  0.00    -0.040 C 
HETATM    9  C   UNL     1       7.811  -1.993   2.803  1.00  0.00     0.015 C 
HETATM   10  C   UNL     1       5.484  -1.859   1.916  1.00  0.00     0.015 C 
HETATM   11  C   UNL     1       7.153  -0.011   1.400  1.00  0.00     0.039 C 
ENDROOT
BRANCH   1  12
HETATM   12  N   UNL     1       6.823   1.894  -0.129  1.00  0.00    -0.334 N 
HETATM   13  C   UNL     1       6.180   2.951   0.462  1.00  0.00     0.316 C 
HETATM   14  N   UNL     1       6.797   4.142   0.174  1.00  0.00    -0.343 N 
HETATM   15  O   UNL     1       5.176   2.839   1.152  1.00  0.00    -0.247 OA
HETATM   16  H   UNL     1       7.291   4.143  -0.706  1.00  0.00     0.164 HD
HETATM   17  H   UNL     1       7.792   2.031  -0.369  1.00  0.00     0.165 HD
BRANCH  14  18
HETATM   18  C   UNL     1       6.188   5.403   0.557  1.00  0.00     0.124 C 
BRANCH  18  19
HETATM   19  C   UNL     1       6.100   5.645   2.065  1.00  0.00     0.019 C 
BRANCH  19  20
HETATM   20  C   UNL     1       7.468   5.683   2.747  1.00  0.00    -0.003 C 
HETATM   21  C   UNL     1       7.330   5.946   4.239  1.00  0.00     0.005 C 
ENDBRANCH  19  20
ENDBRANCH  18  19
ENDBRANCH  14  18
ENDBRANCH   1  12
BRANCH   4  22
HETATM   22  C   UNL     1       7.305  -3.466  -2.737  1.00  0.00     0.058 A 
HETATM   23  C   UNL     1       6.922  -3.769  -4.055  1.00  0.00     0.034 A 
HETATM   24  C   UNL     1       7.092  -5.057  -4.573  1.00  0.00     0.039 A 
HETATM   25  C   UNL     1       7.648  -6.068  -3.792  1.00  0.00     0.068 A 
HETATM   26  C   UNL     1       8.076  -5.765  -2.501  1.00  0.00     0.039 A 
HETATM   27  C   UNL     1       7.912  -4.471  -1.978  1.00  0.00     0.034 A 
BRANCH  25  28
HETATM   28  O   UNL     1       7.734  -7.288  -4.401  1.00  0.00    -0.356 OA
HETATM   29  C   UNL     1       8.031  -8.399  -3.563  1.00  0.00     0.210 C 
ENDBRANCH  25  28
ENDBRANCH   4  22
TORSDOF 6
