REMARK  6 active torsions:
REMARK  status: ('A' for Active; 'I' for Inactive)
REMARK    1  A    between atoms: C_2  and  N_3 
REMARK    2  A    between atoms: C_5  and  C_6 
REMARK    3  A    between atoms: C_6  and  N_7 
REMARK       I    between atoms: N_7  and  C_8 
REMARK    4  A    between atoms: C_8  and  C_9 
REMARK    5  A    between atoms: C_9  and  C_10 
REMARK    6  A    between atoms: C_11  and  C_12 
ROOT
HETATM    1  C   UNL     1       7.772  -2.212   2.940  1.00  0.00     0.006 C 
HETATM    2  C   UNL     1       8.958  -2.231   2.116  1.00  0.00     0.096 C 
HETATM    3  N   UNL     1       9.220  -0.984   1.686  1.00  0.00    -0.173 NA
HETATM    4  N   UNL     1       8.374  -0.188   2.334  1.00  0.00    -0.282 N 
HETATM    5  H   UNL     1       8.475   0.816   2.214  1.00  0.00     0.189 HD
HETATM    6  C   UNL     1       7.457  -0.865   3.078  1.00  0.00     0.033 C 
HETATM    7  C   UNL     1       6.424  -0.146   3.863  1.00  0.00     0.070 C 
ENDROOT
BRANCH   1   8
HETATM    8  C   UNL     1       7.013  -3.335   3.570  1.00  0.00     0.146 C 
BRANCH   8   9
HETATM    9  C   UNL     1       6.060  -3.967   2.562  1.00  0.00     0.222 C 
HETATM   10  N   UNL     1       4.885  -3.289   2.328  1.00  0.00    -0.359 N 
HETATM   11  H   UNL     1       4.659  -2.506   2.933  1.00  0.00     0.162 HD
HETATM   12  O   UNL     1       6.325  -4.976   1.907  1.00  0.00    -0.273 OA
BRANCH  10  13
HETATM   13  C   UNL     1       3.845  -3.797   1.440  1.00  0.00     0.155 C 
BRANCH  13  14
HETATM   14  C   UNL     1       4.130  -3.690  -0.083  1.00  0.00     0.206 C 
HETATM   15  N   UNL     1       5.369  -4.485  -0.490  1.00  0.00    -0.066 N 
HETATM   16  H   UNL     1       5.846  -4.769   0.392  1.00  0.00     0.280 HD
HETATM   17  C   UNL     1       6.317  -3.540  -1.191  1.00  0.00     0.235 C 
HETATM   18  C   UNL     1       5.918  -2.175  -0.677  1.00  0.00     0.030 C 
HETATM   19  C   UNL     1       4.410  -2.267  -0.568  1.00  0.00     0.036 C 
BRANCH  15  20
HETATM   20  C   UNL     1       5.078  -5.764  -1.217  1.00  0.00     0.231 C 
HETATM   21  C   UNL     1       6.334  -6.605  -1.348  1.00  0.00     0.034 C 
ENDBRANCH  15  20
ENDBRANCH  13  14
ENDBRANCH  10  13
ENDBRANCH   8   9
ENDBRANCH   1   8
BRANCH   2  22
HETATM   22  C   UNL     1       9.868  -3.319   1.688  1.00  0.00    -0.005 A 
HETATM   23  C   UNL     1       9.578  -4.681   1.834  1.00  0.00     0.017 A 
HETATM   24  C   UNL     1      10.483  -5.665   1.411  1.00  0.00     0.043 A 
HETATM   25  C   UNL     1      11.695  -5.296   0.847  1.00  0.00     0.116 A 
HETATM   26  F   UNL     1      12.554  -6.241   0.447  1.00  0.00    -0.206 F 
HETATM   27  C   UNL     1      12.021  -3.959   0.695  1.00  0.00     0.043 A 
HETATM   28  C   UNL     1      11.113  -2.981   1.112  1.00  0.00     0.017 A 
ENDBRANCH   2  22
TORSDOF 6
