REMARK  4 active torsions:
REMARK  status: ('A' for Active; 'I' for Inactive)
REMARK    1  A    between atoms: C_5  and  C_6 
REMARK    2  A    between atoms: C_6  and  N_7 
REMARK    3  A    between atoms: C_6  and  C_18 
REMARK    4  A    between atoms: N_7  and  C_8 
ROOT
HETATM    1  C   UNL     1       2.358  -4.134   2.861  1.00  0.00     0.288 C 
ENDROOT
BRANCH   1   2
HETATM    2  C   UNL     1       2.788  -3.623   4.225  1.00  0.00    -0.003 A 
HETATM    3  C   UNL     1       4.069  -3.108   4.413  1.00  0.00     0.126 A 
HETATM    4  N   UNL     1       4.525  -2.603   5.580  1.00  0.00    -0.272 NA
HETATM    5  C   UNL     1       3.681  -2.640   6.632  1.00  0.00     0.116 A 
HETATM    6  C   UNL     1       2.394  -3.142   6.564  1.00  0.00     0.020 A 
HETATM    7  C   UNL     1       1.942  -3.634   5.342  1.00  0.00     0.012 A 
ENDBRANCH   1   2
BRANCH   1   8
HETATM    8  N   UNL     1       1.131  -3.424   2.426  1.00  0.00     0.101 N 
HETATM    9  H   UNL     1       1.252  -2.439   2.649  1.00  0.00     0.317 HD
BRANCH   8  10
HETATM   10  C   UNL     1       0.707  -3.664   1.041  1.00  0.00     0.225 C 
HETATM   11  C   UNL     1       1.632  -3.062  -0.039  1.00  0.00     0.069 C 
HETATM   12  C   UNL     1       1.543  -1.548  -0.059  1.00  0.00     0.190 C 
HETATM   13  N   UNL     1       0.112  -1.152  -0.306  1.00  0.00    -0.067 N 
HETATM   14  C   UNL     1       2.245  -0.830  -1.194  1.00  0.00     0.035 C 
HETATM   15  H   UNL     1      -0.204  -1.613  -1.172  1.00  0.00     0.280 HD
HETATM   16  C   UNL     1      -0.807  -1.596   0.789  1.00  0.00     0.237 C 
HETATM   17  C   UNL     1       0.160   0.322  -0.616  1.00  0.00     0.235 C 
HETATM   18  C   UNL     1      -0.731  -3.118   0.878  1.00  0.00     0.063 C 
HETATM   19  C   UNL     1       1.552   0.533  -1.215  1.00  0.00     0.030 C 
ENDBRANCH   8  10
ENDBRANCH   1   8
BRANCH   1  20
HETATM   20  C   UNL     1       2.252  -5.654   2.828  1.00  0.00    -0.021 A 
HETATM   21  C   UNL     1       3.363  -6.416   2.417  1.00  0.00     0.012 A 
HETATM   22  C   UNL     1       3.299  -7.810   2.389  1.00  0.00     0.043 A 
HETATM   23  C   UNL     1       2.132  -8.452   2.779  1.00  0.00     0.116 A 
HETATM   24  F   UNL     1       2.071  -9.789   2.749  1.00  0.00    -0.206 F 
HETATM   25  C   UNL     1       1.026  -7.726   3.202  1.00  0.00     0.043 A 
HETATM   26  C   UNL     1       1.086  -6.331   3.231  1.00  0.00     0.012 A 
ENDBRANCH   1  20
TORSDOF 4
