REMARK  6 active torsions:
REMARK  status: ('A' for Active; 'I' for Inactive)
REMARK    1  A    between atoms: C_5  and  C_6 
REMARK    2  A    between atoms: C_6  and  O_7 
REMARK    3  A    between atoms: C_6  and  C_8 
REMARK    4  A    between atoms: C_8  and  N_9 
REMARK       I    between atoms: N_9  and  C_10 
REMARK    5  A    between atoms: C_10  and  C_11 
REMARK    6  A    between atoms: C_11  and  C_12 
ROOT
HETATM    1  N   UNL     1       8.948  -1.538  -0.958  1.00  0.00    -0.358 N 
HETATM    2  C   UNL     1       9.338  -2.838  -0.714  1.00  0.00     0.222 C 
HETATM    3  O   UNL     1       8.610  -3.655  -0.158  1.00  0.00    -0.273 OA
HETATM    4  H   UNL     1       9.482  -1.001  -1.632  1.00  0.00     0.162 HD
ENDROOT
BRANCH   1   5
HETATM    5  C   UNL     1       7.565  -1.121  -0.729  1.00  0.00     0.159 C 
BRANCH   5   6
HETATM    6  C   UNL     1       7.171  -1.072   0.763  1.00  0.00     0.169 C 
BRANCH   6   7
HETATM    7  C   UNL     1       5.711  -0.700   0.925  1.00  0.00    -0.028 A 
HETATM    8  C   UNL     1       5.303   0.604   1.233  1.00  0.00     0.010 A 
HETATM    9  C   UNL     1       3.946   0.920   1.351  1.00  0.00     0.007 A 
HETATM   10  C   UNL     1       2.969  -0.064   1.168  1.00  0.00    -0.062 A 
HETATM   11  C   UNL     1       1.512   0.276   1.261  1.00  0.00     0.048 C 
HETATM   12  C   UNL     1       3.370  -1.365   0.846  1.00  0.00     0.007 A 
HETATM   13  C   UNL     1       4.726  -1.681   0.731  1.00  0.00     0.010 A 
ENDBRANCH   6   7
BRANCH   6  14
HETATM   14  O   UNL     1       8.016  -0.127   1.432  1.00  0.00    -0.389 OA
HETATM   15  H   UNL     1       8.918  -0.475   1.324  1.00  0.00     0.210 HD
ENDBRANCH   6  14
ENDBRANCH   5   6
ENDBRANCH   1   5
BRANCH   2  16
HETATM   16  C   UNL     1      10.732  -3.191  -1.201  1.00  0.00     0.142 C 
BRANCH  16  17
HETATM   17  C   UNL     1      10.771  -3.892  -2.534  1.00  0.00    -0.031 A 
HETATM   18  C   UNL     1       9.735  -4.689  -3.004  1.00  0.00     0.125 A 
HETATM   19  N   UNL     1       9.758  -5.360  -4.179  1.00  0.00    -0.260 NA
HETATM   20  C   UNL     1      10.867  -5.284  -4.933  1.00  0.00     0.066 A 
HETATM   21  C   UNL     1      11.989  -4.527  -4.543  1.00  0.00    -0.007 A 
HETATM   22  C   UNL     1      10.925  -5.976  -6.135  1.00  0.00     0.032 A 
HETATM   23  C   UNL     1      11.922  -3.830  -3.326  1.00  0.00     0.022 A 
HETATM   24  C   UNL     1      13.135  -4.491  -5.358  1.00  0.00     0.014 A 
HETATM   25  C   UNL     1      13.169  -5.200  -6.558  1.00  0.00     0.001 A 
HETATM   26  C   UNL     1      12.061  -5.943  -6.948  1.00  0.00     0.002 A 
ENDBRANCH  16  17
ENDBRANCH   2  16
TORSDOF 6
