REMARK  7 active torsions:
REMARK  status: ('A' for Active; 'I' for Inactive)
REMARK    1  A    between atoms: O_2  and  C_3 
REMARK    2  A    between atoms: C_6  and  C_7 
REMARK    3  A    between atoms: C_7  and  C_8 
REMARK    4  A    between atoms: C_7  and  C_14 
REMARK    5  A    between atoms: C_14  and  C_15 
REMARK       I    between atoms: C_15  and  N_16 
REMARK    6  A    between atoms: N_16  and  C_17 
REMARK    7  A    between atoms: C_17  and  C_18 
ROOT
HETATM    1  C   UNL     1       5.285  -4.668   0.400  1.00  0.00     0.060 C 
ENDROOT
BRANCH   1   2
HETATM    2  C   UNL     1       4.435  -3.413   0.175  1.00  0.00    -0.049 A 
HETATM    3  C   UNL     1       5.064  -2.153   0.222  1.00  0.00     0.010 A 
HETATM    4  C   UNL     1       4.344  -0.971   0.025  1.00  0.00     0.037 A 
HETATM    5  C   UNL     1       2.978  -1.010  -0.239  1.00  0.00     0.068 A 
HETATM    6  C   UNL     1       2.344  -2.247  -0.321  1.00  0.00     0.037 A 
HETATM    7  C   UNL     1       3.067  -3.434  -0.124  1.00  0.00     0.010 A 
BRANCH   5   8
HETATM    8  O   UNL     1       2.388   0.212  -0.405  1.00  0.00    -0.356 OA
HETATM    9  C   UNL     1       0.985   0.219  -0.636  1.00  0.00     0.210 C 
ENDBRANCH   5   8
ENDBRANCH   1   2
BRANCH   1  10
HETATM   10  C   UNL     1       6.140  -4.662   1.673  1.00  0.00    -0.049 A 
HETATM   11  C   UNL     1       5.729  -4.038   2.860  1.00  0.00     0.008 A 
HETATM   12  C   UNL     1       6.540  -4.061   3.998  1.00  0.00     0.001 A 
HETATM   13  C   UNL     1       7.774  -4.705   3.967  1.00  0.00     0.000 A 
HETATM   14  C   UNL     1       8.200  -5.329   2.799  1.00  0.00     0.001 A 
HETATM   15  C   UNL     1       7.390  -5.308   1.662  1.00  0.00     0.008 A 
ENDBRANCH   1  10
BRANCH   1  16
HETATM   16  C   UNL     1       4.653  -6.054   0.144  1.00  0.00     0.116 C 
BRANCH  16  17
HETATM   17  C   UNL     1       3.380  -6.453   0.866  1.00  0.00     0.218 C 
HETATM   18  N   UNL     1       3.349  -6.341   2.223  1.00  0.00    -0.355 N 
HETATM   19  H   UNL     1       4.079  -5.873   2.746  1.00  0.00     0.162 HD
HETATM   20  O   UNL     1       2.430  -6.922   0.235  1.00  0.00    -0.274 OA
BRANCH  18  21
HETATM   21  C   UNL     1       2.135  -6.628   2.955  1.00  0.00     0.184 C 
BRANCH  21  22
HETATM   22  C   UNL     1       2.260  -6.185   4.377  1.00  0.00     0.080 A 
HETATM   23  N   UNL     1       3.073  -5.163   4.738  1.00  0.00    -0.177 NA
HETATM   24  N   UNL     1       2.886  -5.025   6.074  1.00  0.00    -0.281 N 
HETATM   25  H   UNL     1       3.393  -4.296   6.565  1.00  0.00     0.189 HD
HETATM   26  C   UNL     1       2.002  -5.926   6.543  1.00  0.00     0.036 A 
HETATM   27  C   UNL     1       1.585  -6.686   5.495  1.00  0.00    -0.006 A 
HETATM   28  C   UNL     1       1.401  -6.253   7.840  1.00  0.00     0.059 C 
HETATM   29  C   UNL     1       0.598  -7.694   5.913  1.00  0.00     0.043 C 
HETATM   30  C   UNL     1       0.705  -7.614   7.481  1.00  0.00     0.011 C 
ENDBRANCH  21  22
ENDBRANCH  18  21
ENDBRANCH  16  17
ENDBRANCH   1  16
TORSDOF 7
