REMARK  7 active torsions:
REMARK  status: ('A' for Active; 'I' for Inactive)
REMARK    1  A    between atoms: C_2  and  O_3 
REMARK    2  A    between atoms: O_3  and  C_4 
REMARK       I    between atoms: C_4  and  N_5 
REMARK       I    between atoms: N_8  and  C_9 
REMARK    3  A    between atoms: C_9  and  C_10 
REMARK    4  A    between atoms: C_11  and  N_12 
REMARK       I    between atoms: N_12  and  C_13 
REMARK    5  A    between atoms: C_13  and  C_14 
REMARK    6  A    between atoms: N_16  and  C_17 
REMARK    7  A    between atoms: C_18  and  O_19 
ROOT
HETATM    1  C   UNL     1      12.913  -8.570   2.359  1.00  0.00     0.059 A 
HETATM    2  C   UNL     1      12.184  -8.447   1.165  1.00  0.00     0.050 A 
HETATM    3  C   UNL     1      12.785  -8.866  -0.036  1.00  0.00     0.030 A 
HETATM    4  C   UNL     1      14.068  -9.419  -0.051  1.00  0.00     0.002 A 
HETATM    5  C   UNL     1      14.789  -9.529   1.131  1.00  0.00     0.001 A 
HETATM    6  C   UNL     1      14.224  -9.087   2.326  1.00  0.00     0.019 A 
ENDROOT
BRANCH   2   7
HETATM    7  N   UNL     1      10.914  -7.851   1.022  1.00  0.00    -0.326 N 
HETATM    8  C   UNL     1       9.912  -7.755   1.965  1.00  0.00     0.228 C 
HETATM    9  O   UNL     1       9.802  -8.490   2.943  1.00  0.00    -0.273 OA
HETATM   10  H   UNL     1      10.681  -7.552   0.082  1.00  0.00     0.169 HD
BRANCH   8  11
HETATM   11  C   UNL     1       8.890  -6.641   1.701  1.00  0.00     0.105 C 
HETATM   12  C   UNL     1       8.346  -6.640   0.283  1.00  0.00     0.147 C 
HETATM   13  N   UNL     1       9.310  -5.838  -0.443  1.00  0.00    -0.315 N 
HETATM   14  C   UNL     1       9.998  -4.972   0.420  1.00  0.00     0.225 C 
HETATM   15  O   UNL     1      10.808  -4.107   0.128  1.00  0.00    -0.273 OA
HETATM   16  C   UNL     1       9.538  -5.266   1.829  1.00  0.00     0.119 C 
BRANCH  13  17
HETATM   17  C   UNL     1       9.614  -6.056  -1.813  1.00  0.00     0.071 A 
HETATM   18  C   UNL     1       8.662  -6.535  -2.729  1.00  0.00     0.095 A 
HETATM   19  C   UNL     1       9.034  -6.891  -4.030  1.00  0.00     0.039 A 
HETATM   20  C   UNL     1      10.356  -6.746  -4.445  1.00  0.00     0.009 A 
HETATM   21  C   UNL     1      11.312  -6.223  -3.572  1.00  0.00    -0.060 A 
HETATM   22  C   UNL     1      12.752  -6.125  -3.985  1.00  0.00     0.048 C 
HETATM   23  C   UNL     1      10.931  -5.876  -2.266  1.00  0.00     0.039 A 
BRANCH  18  24
HETATM   24  O   UNL     1       7.346  -6.664  -2.354  1.00  0.00    -0.354 OA
HETATM   25  C   UNL     1       6.530  -5.716  -3.048  1.00  0.00     0.210 C 
ENDBRANCH  18  24
ENDBRANCH  13  17
ENDBRANCH   8  11
ENDBRANCH   2   7
BRANCH   1  26
HETATM   26  C   UNL     1      12.487  -7.959   3.641  1.00  0.00     0.256 C 
HETATM   27  N   UNL     1      12.429  -8.756   4.777  1.00  0.00    -0.345 N 
HETATM   28  C   UNL     1      12.511 -10.219   4.821  1.00  0.00     0.146 C 
HETATM   29  C   UNL     1      12.128  -8.152   6.072  1.00  0.00     0.146 C 
HETATM   30  C   UNL     1      13.593 -10.655   5.816  1.00  0.00     0.148 C 
HETATM   31  N   UNL     1      13.455 -10.007   7.124  1.00  0.00    -0.325 N 
HETATM   32  C   UNL     1      14.096 -10.605   8.199  1.00  0.00     0.362 C 
HETATM   33  C   UNL     1      13.171  -8.562   7.120  1.00  0.00     0.148 C 
HETATM   34  O   UNL     1      14.629 -11.707   8.144  1.00  0.00    -0.238 OA
HETATM   35  O   UNL     1      12.291  -6.744   3.654  1.00  0.00    -0.267 OA
BRANCH  32  36
HETATM   36  O   UNL     1      14.065  -9.833   9.319  1.00  0.00    -0.304 OA
BRANCH  36  37
HETATM   37  C   UNL     1      14.718 -10.375  10.475  1.00  0.00     0.176 C 
HETATM   38  C   UNL     1      13.813 -11.361  11.192  1.00  0.00     0.034 C 
ENDBRANCH  36  37
ENDBRANCH  32  36
ENDBRANCH   1  26
TORSDOF 7
