REMARK  8 active torsions:
REMARK  status: ('A' for Active; 'I' for Inactive)
REMARK    1  A    between atoms: C_2  and  O_3 
REMARK    2  A    between atoms: C_2  and  C_4 
REMARK    3  A    between atoms: C_4  and  N_5 
REMARK       I    between atoms: N_5  and  C_6 
REMARK    4  A    between atoms: C_6  and  C_7 
REMARK    5  A    between atoms: C_10  and  O_11 
REMARK    6  A    between atoms: O_11  and  C_12 
REMARK    7  A    between atoms: C_15  and  O_16 
REMARK    8  A    between atoms: O_16  and  C_17 
ROOT
HETATM    1  C   UNL     1       4.613  -4.002   0.885  1.00  0.00     0.049 A 
HETATM    2  C   UNL     1       5.195  -5.139   0.336  1.00  0.00     0.136 A 
HETATM    3  N   UNL     1       4.594  -6.353   0.295  1.00  0.00    -0.236 NA
HETATM    4  C   UNL     1       3.360  -6.440   0.838  1.00  0.00     0.169 A 
HETATM    5  C   UNL     1       2.718  -5.377   1.457  1.00  0.00     0.059 A 
HETATM    6  C   UNL     1       3.353  -4.134   1.475  1.00  0.00     0.023 A 
ENDROOT
BRANCH   4   7
HETATM    7  O   UNL     1       2.692  -7.657   0.837  1.00  0.00    -0.292 OA
BRANCH   7   8
HETATM    8  C   UNL     1       2.884  -8.478  -0.251  1.00  0.00     0.078 A 
HETATM    9  C   UNL     1       3.077  -9.837   0.004  1.00  0.00     0.040 A 
HETATM   10  C   UNL     1       3.236 -10.733  -1.058  1.00  0.00     0.040 A 
HETATM   11  C   UNL     1       3.165 -10.267  -2.373  1.00  0.00     0.076 A 
HETATM   12  C   UNL     1       2.966  -8.910  -2.629  1.00  0.00     0.040 A 
HETATM   13  C   UNL     1       2.808  -8.016  -1.569  1.00  0.00     0.040 A 
BRANCH  11  14
HETATM   14  O   UNL     1       3.372 -11.076  -3.466  1.00  0.00    -0.311 OA
BRANCH  14  15
HETATM   15  C   UNL     1       2.695 -12.272  -3.535  1.00  0.00     0.076 A 
HETATM   16  C   UNL     1       1.363 -12.433  -3.143  1.00  0.00     0.037 A 
HETATM   17  C   UNL     1       0.739 -13.673  -3.298  1.00  0.00     0.003 A 
HETATM   18  C   UNL     1       1.436 -14.742  -3.861  1.00  0.00     0.000 A 
HETATM   19  C   UNL     1       2.758 -14.574  -4.273  1.00  0.00     0.003 A 
HETATM   20  C   UNL     1       3.384 -13.338  -4.115  1.00  0.00     0.037 A 
ENDBRANCH  14  15
ENDBRANCH  11  14
ENDBRANCH   7   8
ENDBRANCH   4   7
BRANCH   1  21
HETATM   21  C   UNL     1       5.360  -2.725   0.820  1.00  0.00     0.253 C 
HETATM   22  N   UNL     1       4.619  -1.565   0.880  1.00  0.00    -0.354 N 
HETATM   23  H   UNL     1       3.609  -1.592   0.845  1.00  0.00     0.162 HD
HETATM   24  O   UNL     1       6.577  -2.732   0.673  1.00  0.00    -0.268 OA
BRANCH  22  25
HETATM   25  C   UNL     1       5.250  -0.257   0.756  1.00  0.00     0.154 C 
BRANCH  25  26
HETATM   26  C   UNL     1       5.613   0.077  -0.699  1.00  0.00     0.132 C 
HETATM   27  C   UNL     1       6.211   1.470  -0.813  1.00  0.00     0.041 C 
BRANCH  26  28
HETATM   28  O   UNL     1       4.431   0.034  -1.505  1.00  0.00    -0.394 OA
HETATM   29  H   UNL     1       4.190  -0.906  -1.572  1.00  0.00     0.210 HD
ENDBRANCH  26  28
ENDBRANCH  25  26
ENDBRANCH  22  25
ENDBRANCH   1  21
TORSDOF 8
