REMARK  9 active torsions:
REMARK  status: ('A' for Active; 'I' for Inactive)
REMARK    1  A    between atoms: C_4  and  C_5 
REMARK    2  A    between atoms: C_5  and  N_6 
REMARK    3  A    between atoms: C_11  and  C_12 
REMARK       I    between atoms: C_12  and  N_13 
REMARK    4  A    between atoms: C_15  and  N_16 
REMARK       I    between atoms: N_16  and  C_17 
REMARK    5  A    between atoms: C_17  and  C_18 
REMARK    6  A    between atoms: C_18  and  C_19 
REMARK    7  A    between atoms: C_19  and  C_20 
REMARK    8  A    between atoms: C_20  and  S_21 
REMARK    9  A    between atoms: S_21  and  C_22 
ROOT
HETATM    1  N   UNL     1       3.336  -0.763  -0.362  1.00  0.00    -0.063 N 
HETATM    2  H   UNL     1       3.493  -1.475   0.357  1.00  0.00     0.280 HD
HETATM    3  C   UNL     1       3.212  -1.528  -1.678  1.00  0.00     0.282 C 
HETATM    4  C   UNL     1       3.420  -0.625  -2.843  1.00  0.00     0.018 C 
HETATM    5  C   UNL     1       3.960   0.644  -2.788  1.00  0.00    -0.023 C 
HETATM    6  C   UNL     1       3.889   1.305  -4.071  1.00  0.00     0.073 C 
HETATM    7  C   UNL     1       3.583   0.386  -5.066  1.00  0.00     0.093 C 
HETATM    8  S   UNL     1       3.057  -1.102  -4.426  1.00  0.00    -0.074 SA
HETATM    9  C   UNL     1       4.466   1.220  -1.493  1.00  0.00     0.068 C 
HETATM   10  C   UNL     1       4.565   0.144  -0.388  1.00  0.00     0.240 C 
ENDROOT
BRANCH   7  11
HETATM   11  N   UNL     1       3.614   0.596  -6.437  1.00  0.00    -0.320 N 
HETATM   12  C   UNL     1       3.746  -0.396  -7.402  1.00  0.00     0.222 C 
HETATM   13  O   UNL     1       3.874  -1.597  -7.200  1.00  0.00    -0.273 OA
HETATM   14  H   UNL     1       3.853   1.537  -6.731  1.00  0.00     0.169 HD
BRANCH  12  15
HETATM   15  C   UNL     1       3.716   0.184  -8.809  1.00  0.00     0.104 C 
BRANCH  15  16
HETATM   16  C   UNL     1       4.732  -0.457  -9.754  1.00  0.00     0.020 C 
BRANCH  16  17
HETATM   17  C   UNL     1       4.464  -1.891 -10.225  1.00  0.00     0.080 C 
BRANCH  17  18
HETATM   18  S   UNL     1       2.769  -2.281 -10.791  1.00  0.00    -0.130 SA
BRANCH  18  19
HETATM   19  C   UNL     1       2.446  -1.041 -12.030  1.00  0.00     0.000 A 
HETATM   20  C   UNL     1       3.405  -0.580 -12.937  1.00  0.00     0.020 A 
HETATM   21  C   UNL     1       3.079   0.410 -13.871  1.00  0.00     0.025 A 
HETATM   22  C   UNL     1       1.785   0.925 -13.914  1.00  0.00     0.034 A 
HETATM   23 CL   UNL     1       1.387   2.148 -15.056  1.00  0.00    -0.084 Cl
HETATM   24  C   UNL     1       0.812   0.453 -13.039  1.00  0.00     0.025 A 
HETATM   25  C   UNL     1       1.143  -0.530 -12.103  1.00  0.00     0.020 A 
ENDBRANCH  18  19
ENDBRANCH  17  18
ENDBRANCH  16  17
ENDBRANCH  15  16
ENDBRANCH  12  15
ENDBRANCH   7  11
BRANCH   6  26
HETATM   26  C   UNL     1       4.200   2.714  -4.295  1.00  0.00     0.252 C 
HETATM   27  N   UNL     1       3.535   3.313  -5.332  1.00  0.00    -0.366 N 
HETATM   28  H   UNL     1       2.642   2.941  -5.633  1.00  0.00     0.159 HD
HETATM   29  H   UNL     1       3.621   4.324  -5.360  1.00  0.00     0.159 HD
HETATM   30  O   UNL     1       4.934   3.360  -3.559  1.00  0.00    -0.268 OA
ENDBRANCH   6  26
BRANCH   1  31
HETATM   31  C   UNL     1       2.093  -0.009   0.057  1.00  0.00     0.273 C 
BRANCH  31  32
HETATM   32  C   UNL     1       0.830  -0.819   0.148  1.00  0.00    -0.033 A 
HETATM   33  C   UNL     1       0.744  -1.971   0.942  1.00  0.00     0.009 A 
HETATM   34  C   UNL     1      -0.455  -2.683   1.021  1.00  0.00     0.001 A 
HETATM   35  C   UNL     1      -1.580  -2.243   0.326  1.00  0.00     0.000 A 
HETATM   36  C   UNL     1      -1.512  -1.092  -0.452  1.00  0.00     0.001 A 
HETATM   37  C   UNL     1      -0.314  -0.384  -0.543  1.00  0.00     0.009 A 
ENDBRANCH  31  32
ENDBRANCH   1  31
TORSDOF 9
