REMARK  8 active torsions:
REMARK  status: ('A' for Active; 'I' for Inactive)
REMARK    1  A    between atoms: C_2  and  N_3 
REMARK    2  A    between atoms: C_2  and  C_23 
REMARK       I    between atoms: N_3  and  C_4 
REMARK    3  A    between atoms: N_3  and  C_16 
REMARK    4  A    between atoms: C_4  and  C_5 
REMARK    5  A    between atoms: C_5  and  N_6 
REMARK    6  A    between atoms: C_16  and  C_17 
REMARK       I    between atoms: C_23  and  N_24 
REMARK    7  A    between atoms: N_24  and  C_25 
REMARK    8  A    between atoms: C_28  and  O_29 
ROOT
HETATM    1  N   UNL     1       3.121  -1.153  -0.961  1.00  0.00    -0.333 N 
HETATM    2  C   UNL     1       4.508  -1.156  -1.119  1.00  0.00     0.240 C 
HETATM    3  O   UNL     1       5.221  -0.370  -0.487  1.00  0.00    -0.271 OA
ENDROOT
BRANCH   1   4
HETATM    4  C   UNL     1       2.535   0.043  -0.291  1.00  0.00     0.176 C 
HETATM    5  C   UNL     1       2.741   1.320  -1.110  1.00  0.00     0.042 C 
BRANCH   4   6
HETATM    6  C   UNL     1       2.958   0.225   1.191  1.00  0.00     0.244 C 
HETATM    7  N   UNL     1       3.025  -0.977   1.880  1.00  0.00    -0.325 N 
HETATM    8  H   UNL     1       2.735  -1.797   1.363  1.00  0.00     0.169 HD
HETATM    9  O   UNL     1       3.040   1.342   1.699  1.00  0.00    -0.271 OA
BRANCH   7  10
HETATM   10  C   UNL     1       3.427  -1.173   3.215  1.00  0.00     0.035 A 
HETATM   11  C   UNL     1       3.275  -2.453   3.755  1.00  0.00     0.032 A 
HETATM   12  C   UNL     1       3.687  -2.724   5.064  1.00  0.00     0.039 A 
HETATM   13  C   UNL     1       4.273  -1.728   5.846  1.00  0.00     0.068 A 
HETATM   14  C   UNL     1       4.417  -0.448   5.315  1.00  0.00     0.039 A 
HETATM   15  C   UNL     1       3.995  -0.174   4.006  1.00  0.00     0.032 A 
BRANCH  13  16
HETATM   16  O   UNL     1       4.653  -2.123   7.099  1.00  0.00    -0.356 OA
HETATM   17  C   UNL     1       5.483  -1.222   7.823  1.00  0.00     0.210 C 
ENDBRANCH  13  16
ENDBRANCH   7  10
ENDBRANCH   4   6
ENDBRANCH   1   4
BRANCH   1  18
HETATM   18  C   UNL     1       2.206  -1.983  -1.760  1.00  0.00     0.165 C 
BRANCH  18  19
HETATM   19  C   UNL     1       1.109  -2.611  -0.933  1.00  0.00    -0.040 A 
HETATM   20  C   UNL     1      -0.205  -2.124  -1.005  1.00  0.00     0.009 A 
HETATM   21  C   UNL     1      -1.211  -2.674  -0.211  1.00  0.00     0.001 A 
HETATM   22  C   UNL     1      -0.919  -3.724   0.656  1.00  0.00     0.000 A 
HETATM   23  C   UNL     1       0.378  -4.230   0.725  1.00  0.00     0.001 A 
HETATM   24  C   UNL     1       1.387  -3.679  -0.067  1.00  0.00     0.009 A 
ENDBRANCH  18  19
ENDBRANCH   1  18
BRANCH   2  25
HETATM   25  C   UNL     1       5.171  -2.093  -2.099  1.00  0.00     0.250 C 
BRANCH  25  26
HETATM   26  N   UNL     1       5.180  -3.479  -1.693  1.00  0.00    -0.263 N 
HETATM   27  N   UNL     1       4.963  -4.418  -2.638  1.00  0.00     0.006 NA
HETATM   28  N   UNL     1       5.031  -5.604  -2.051  1.00  0.00    -0.158 NA
HETATM   29  C   UNL     1       5.299  -5.405  -0.726  1.00  0.00     0.102 A 
HETATM   30  C   UNL     1       5.404  -4.041  -0.464  1.00  0.00     0.079 A 
HETATM   31  C   UNL     1       5.460  -6.330   0.315  1.00  0.00     0.035 A 
HETATM   32  C   UNL     1       5.676  -3.539   0.813  1.00  0.00     0.033 A 
HETATM   33  C   UNL     1       5.822  -4.476   1.844  1.00  0.00     0.002 A 
HETATM   34  C   UNL     1       5.716  -5.848   1.603  1.00  0.00     0.002 A 
ENDBRANCH  25  26
ENDBRANCH   2  25
TORSDOF 8
