REMARK  9 active torsions:
REMARK  status: ('A' for Active; 'I' for Inactive)
REMARK    1  A    between atoms: C_2  and  N_3 
REMARK    2  A    between atoms: C_4  and  S_5 
REMARK    3  A    between atoms: S_5  and  C_6 
REMARK    4  A    between atoms: C_6  and  C_7 
REMARK       I    between atoms: C_7  and  N_8 
REMARK    5  A    between atoms: N_8  and  C_9 
REMARK    6  A    between atoms: C_9  and  C_10 
REMARK    7  A    between atoms: C_10  and  O_11 
REMARK    8  A    between atoms: O_11  and  C_12 
REMARK    9  A    between atoms: C_22  and  C_23 
ROOT
HETATM    1  C   UNL     1       1.197   2.140   1.893  1.00  0.00     0.185 C 
ENDROOT
BRANCH   1   2
HETATM    2  S   UNL     1       1.832   3.493   0.862  1.00  0.00    -0.081 SA
BRANCH   2   3
HETATM    3  C   UNL     1       2.939   2.599  -0.122  1.00  0.00     0.192 A 
HETATM    4  N   UNL     1       3.437   3.029  -1.324  1.00  0.00    -0.308 N 
HETATM    5  C   UNL     1       4.220   1.988  -1.791  1.00  0.00     0.164 A 
HETATM    6  N   UNL     1       4.191   1.015  -0.896  1.00  0.00    -0.128 NA
HETATM    7  N   UNL     1       3.403   1.405   0.154  1.00  0.00    -0.122 NA
BRANCH   4   8
HETATM    8  C   UNL     1       3.100   4.253  -2.021  1.00  0.00     0.128 C 
HETATM    9  C   UNL     1       3.880   5.457  -1.517  1.00  0.00     0.027 C 
ENDBRANCH   4   8
BRANCH   5  10
HETATM   10  C   UNL     1       4.900   1.906  -3.082  1.00  0.00     0.012 A 
HETATM   11  C   UNL     1       4.662   0.798  -3.908  1.00  0.00     0.015 A 
HETATM   12  C   UNL     1       5.299   0.680  -5.145  1.00  0.00     0.001 A 
HETATM   13  C   UNL     1       6.190   1.665  -5.565  1.00  0.00     0.000 A 
HETATM   14  C   UNL     1       6.452   2.760  -4.744  1.00  0.00     0.001 A 
HETATM   15  C   UNL     1       5.815   2.877  -3.505  1.00  0.00     0.015 A 
ENDBRANCH   5  10
ENDBRANCH   2   3
ENDBRANCH   1   2
BRANCH   1  16
HETATM   16  C   UNL     1       0.094   2.651   2.801  1.00  0.00     0.227 C 
HETATM   17  N   UNL     1       0.444   2.750   4.133  1.00  0.00    -0.358 N 
HETATM   18  H   UNL     1       1.362   2.442   4.428  1.00  0.00     0.162 HD
HETATM   19  O   UNL     1      -1.024   2.946   2.385  1.00  0.00    -0.273 OA
BRANCH  17  20
HETATM   20  C   UNL     1      -0.539   3.039   5.161  1.00  0.00     0.149 C 
BRANCH  20  21
HETATM   21  C   UNL     1      -1.084   4.468   5.140  1.00  0.00     0.195 C 
BRANCH  21  22
HETATM   22  O   UNL     1      -1.875   4.643   6.319  1.00  0.00    -0.350 OA
BRANCH  22  23
HETATM   23  C   UNL     1      -2.563   5.818   6.445  1.00  0.00     0.069 A 
HETATM   24  C   UNL     1      -2.477   6.917   5.587  1.00  0.00     0.043 A 
HETATM   25  C   UNL     1      -3.246   8.068   5.826  1.00  0.00    -0.059 A 
HETATM   26  C   UNL     1      -3.155   9.257   4.915  1.00  0.00     0.048 C 
HETATM   27  C   UNL     1      -4.091   8.111   6.941  1.00  0.00     0.007 A 
HETATM   28  C   UNL     1      -4.174   7.019   7.802  1.00  0.00     0.003 A 
HETATM   29  C   UNL     1      -3.411   5.879   7.553  1.00  0.00     0.037 A 
ENDBRANCH  22  23
ENDBRANCH  21  22
ENDBRANCH  20  21
ENDBRANCH  17  20
ENDBRANCH   1  16
TORSDOF 9
