REMARK  6 active torsions:
REMARK  status: ('A' for Active; 'I' for Inactive)
REMARK    1  A    between atoms: O_2  and  C_3 
REMARK    2  A    between atoms: C_6  and  C_7 
REMARK       I    between atoms: C_7  and  N_8 
REMARK    3  A    between atoms: N_8  and  C_9 
REMARK    4  A    between atoms: C_11  and  C_12 
REMARK    5  A    between atoms: C_12  and  C_13 
REMARK    6  A    between atoms: C_13  and  C_14 
ROOT
HETATM    1  C   UNL     1       3.688   5.750   1.484  1.00  0.00     0.725 A 
HETATM    2  N   UNL     1       2.839   4.924   0.929  1.00  0.00    -0.046 NA
HETATM    3  C   UNL     1       1.944   5.737   0.289  1.00  0.00     0.166 A 
HETATM    4  N   UNL     1       2.200   7.047   0.408  1.00  0.00    -0.144 NA
HETATM    5  N   UNL     1       3.311   7.027   1.166  1.00  0.00    -0.106 N 
HETATM    6  H   UNL     1       3.745   7.903   1.425  1.00  0.00     0.208 HD
ENDROOT
BRANCH   1   7
HETATM    7  N   UNL     1       4.802   5.471   2.240  1.00  0.00    -0.152 N 
HETATM    8  C   UNL     1       5.084   4.179   2.644  1.00  0.00     0.270 C 
HETATM    9  O   UNL     1       4.379   3.186   2.518  1.00  0.00    -0.267 OA
HETATM   10  H   UNL     1       5.389   6.228   2.554  1.00  0.00     0.187 HD
BRANCH   8  11
HETATM   11  C   UNL     1       6.378   4.023   3.361  1.00  0.00     0.033 A 
HETATM   12  C   UNL     1       6.442   3.132   4.439  1.00  0.00     0.020 A 
HETATM   13  C   UNL     1       7.645   2.937   5.124  1.00  0.00     0.038 A 
HETATM   14  C   UNL     1       8.794   3.621   4.726  1.00  0.00     0.068 A 
HETATM   15  C   UNL     1       8.728   4.504   3.644  1.00  0.00     0.038 A 
HETATM   16  C   UNL     1       7.529   4.705   2.956  1.00  0.00     0.020 A 
BRANCH  14  17
HETATM   17  O   UNL     1      10.031   3.514   5.300  1.00  0.00    -0.356 OA
HETATM   18  C   UNL     1      10.181   2.536   6.322  1.00  0.00     0.210 C 
ENDBRANCH  14  17
ENDBRANCH   8  11
ENDBRANCH   1   7
BRANCH   3  19
HETATM   19  C   UNL     1       0.829   5.186  -0.519  1.00  0.00     0.087 C 
BRANCH  19  20
HETATM   20  C   UNL     1      -0.021   4.190   0.274  1.00  0.00     0.048 C 
BRANCH  20  21
HETATM   21  C   UNL     1      -0.935   3.399  -0.610  1.00  0.00    -0.030 A 
HETATM   22  C   UNL     1      -0.578   2.234  -1.363  1.00  0.00    -0.002 A 
HETATM   23  C   UNL     1      -1.717   1.813  -2.049  1.00  0.00     0.042 A 
HETATM   24  C   UNL     1       0.616   1.501  -1.524  1.00  0.00     0.014 A 
HETATM   25  C   UNL     1      -1.722   0.695  -2.892  1.00  0.00     0.030 A 
HETATM   26  N   UNL     1      -2.730   2.683  -1.719  1.00  0.00    -0.365 N 
HETATM   27  C   UNL     1      -0.525  -0.013  -3.037  1.00  0.00     0.002 A 
HETATM   28  C   UNL     1       0.629   0.381  -2.364  1.00  0.00     0.001 A 
HETATM   29  H   UNL     1      -3.675   2.617  -2.068  1.00  0.00     0.165 HD
HETATM   30  C   UNL     1      -2.271   3.643  -0.856  1.00  0.00     0.096 A 
ENDBRANCH  20  21
ENDBRANCH  19  20
ENDBRANCH   3  19
TORSDOF 6
