REMARK  3 active torsions:
REMARK  status: ('A' for Active; 'I' for Inactive)
REMARK    1  A    between atoms: C_2  and  N_3 
REMARK    2  A    between atoms: C_2  and  C_10 
REMARK    3  A    between atoms: C_13  and  C_14 
ROOT
HETATM    1  C   UNL     1       3.302  -0.936   1.064  1.00  0.00    -0.028 A 
HETATM    2  C   UNL     1       2.507  -1.158   2.200  1.00  0.00     0.010 A 
HETATM    3  C   UNL     1       2.915  -2.049   3.203  1.00  0.00     0.013 A 
HETATM    4  C   UNL     1       4.133  -2.739   3.114  1.00  0.00    -0.024 A 
HETATM    5  C   UNL     1       4.937  -2.488   1.992  1.00  0.00     0.013 A 
HETATM    6  C   UNL     1       4.530  -1.607   0.982  1.00  0.00     0.010 A 
ENDROOT
BRANCH   4   7
HETATM    7  C   UNL     1       4.542  -3.715   4.142  1.00  0.00    -0.006 A 
HETATM    8  C   UNL     1       5.050  -4.975   3.784  1.00  0.00     0.131 A 
HETATM    9  N   UNL     1       5.462  -5.957   4.619  1.00  0.00    -0.239 NA
HETATM   10  C   UNL     1       5.346  -5.655   5.928  1.00  0.00     0.177 A 
HETATM   11  C   UNL     1       4.850  -4.441   6.386  1.00  0.00     0.082 A 
HETATM   12  N   UNL     1       5.688  -6.476   6.964  1.00  0.00    -0.222 NA
HETATM   13  N   UNL     1       4.901  -4.555   7.751  1.00  0.00    -0.348 N 
HETATM   14  C   UNL     1       4.435  -3.433   5.514  1.00  0.00     0.047 A 
HETATM   15  H   UNL     1       4.614  -3.860   8.425  1.00  0.00     0.167 HD
HETATM   16  C   UNL     1       5.408  -5.791   8.048  1.00  0.00     0.210 A 
ENDBRANCH   4   7
BRANCH   1  17
HETATM   17  C   UNL     1       2.813   0.017  -0.016  1.00  0.00     0.217 C 
HETATM   18  C   UNL     1       3.208  -0.375  -1.443  1.00  0.00     0.045 C 
BRANCH  17  19
HETATM   19  N   UNL     1       3.183   1.469   0.296  1.00  0.00    -0.063 N 
HETATM   20  H   UNL     1       2.963   1.569   1.296  1.00  0.00     0.280 HD
HETATM   21  C   UNL     1       4.653   1.803   0.166  1.00  0.00     0.235 C 
HETATM   22  C   UNL     1       4.907   3.199   0.723  1.00  0.00     0.028 C 
HETATM   23  C   UNL     1       4.033   4.245   0.042  1.00  0.00     0.003 C 
HETATM   24  C   UNL     1       2.559   3.863   0.120  1.00  0.00     0.028 C 
HETATM   25  C   UNL     1       2.311   2.467  -0.434  1.00  0.00     0.235 C 
ENDBRANCH  17  19
ENDBRANCH   1  17
TORSDOF 3
