REMARK  5 active torsions:
REMARK  status: ('A' for Active; 'I' for Inactive)
REMARK    1  A    between atoms: O_2  and  C_3 
REMARK    2  A    between atoms: C_5  and  C_6 
REMARK    3  A    between atoms: C_6  and  N_7 
REMARK       I    between atoms: N_7  and  C_8 
REMARK    4  A    between atoms: C_8  and  C_9 
REMARK    5  A    between atoms: C_19  and  C_20 
ROOT
HETATM    1  C   UNL     1       8.381  -1.759  -3.930  1.00  0.00     0.159 A 
HETATM    2  O   UNL     1       8.005  -3.084  -3.571  1.00  0.00    -0.268 OA
HETATM    3  C   UNL     1       8.654  -4.199  -3.989  1.00  0.00     0.299 A 
HETATM    4  O   UNL     1       8.306  -5.320  -3.644  1.00  0.00    -0.259 OA
HETATM    5  C   UNL     1       9.809  -3.981  -4.878  1.00  0.00     0.051 A 
HETATM    6  C   UNL     1      10.203  -2.685  -5.219  1.00  0.00    -0.006 A 
HETATM    7  C   UNL     1      10.501  -5.101  -5.367  1.00  0.00     0.018 A 
HETATM    8  C   UNL     1      11.599  -4.935  -6.205  1.00  0.00     0.001 A 
HETATM    9  C   UNL     1      12.008  -3.652  -6.553  1.00  0.00     0.001 A 
HETATM   10  C   UNL     1      11.318  -2.538  -6.064  1.00  0.00     0.013 A 
HETATM   11  C   UNL     1       9.457  -1.505  -4.709  1.00  0.00     0.025 A 
ENDROOT
BRANCH   1  12
HETATM   12  C   UNL     1       7.464  -0.699  -3.359  1.00  0.00     0.276 C 
HETATM   13  N   UNL     1       6.630  -1.196  -2.380  1.00  0.00    -0.351 N 
HETATM   14  H   UNL     1       6.822  -2.124  -2.028  1.00  0.00     0.163 HD
HETATM   15  O   UNL     1       7.434   0.468  -3.722  1.00  0.00    -0.265 OA
BRANCH  13  16
HETATM   16  C   UNL     1       5.721  -0.332  -1.668  1.00  0.00     0.161 C 
BRANCH  16  17
HETATM   17  C   UNL     1       4.614  -1.028  -0.909  1.00  0.00    -0.038 A 
HETATM   18  C   UNL     1       4.450  -2.420  -0.850  1.00  0.00     0.045 A 
HETATM   19  C   UNL     1       3.416  -3.002  -0.105  1.00  0.00     0.068 A 
HETATM   20  C   UNL     1       2.511  -2.186   0.570  1.00  0.00     0.037 A 
HETATM   21  C   UNL     1       2.648  -0.799   0.512  1.00  0.00     0.003 A 
HETATM   22  C   UNL     1       3.692  -0.227  -0.216  1.00  0.00     0.009 A 
BRANCH  19  23
HETATM   23  O   UNL     1       3.401  -4.371  -0.126  1.00  0.00    -0.356 OA
HETATM   24  C   UNL     1       2.482  -5.016   0.746  1.00  0.00     0.210 C 
ENDBRANCH  19  23
ENDBRANCH  16  17
ENDBRANCH  13  16
ENDBRANCH   1  12
BRANCH  11  25
HETATM   25  C   UNL     1       9.872  -0.115  -5.010  1.00  0.00    -0.022 A 
HETATM   26  C   UNL     1      10.751   0.555  -4.147  1.00  0.00     0.012 A 
HETATM   27  C   UNL     1      11.181   1.849  -4.449  1.00  0.00     0.001 A 
HETATM   28  C   UNL     1      10.739   2.477  -5.613  1.00  0.00     0.000 A 
HETATM   29  C   UNL     1       9.867   1.816  -6.476  1.00  0.00     0.001 A 
HETATM   30  C   UNL     1       9.435   0.522  -6.179  1.00  0.00     0.012 A 
ENDBRANCH  11  25
TORSDOF 5
