REMARK  4 active torsions:
REMARK  status: ('A' for Active; 'I' for Inactive)
REMARK    1  A    between atoms: C_6  and  C_7 
REMARK       I    between atoms: C_7  and  N_8 
REMARK    2  A    between atoms: N_8  and  N_9 
REMARK    3  A    between atoms: N_9  and  C_10 
REMARK    4  A    between atoms: C_21  and  C_22 
ROOT
HETATM    1  C   UNL     1       9.378   2.209  -1.785  1.00  0.00     0.124 A 
HETATM    2  N   UNL     1      10.396   1.637  -2.453  1.00  0.00    -0.223 NA
HETATM    3  C   UNL     1      10.961   2.338  -3.455  1.00  0.00     0.129 A 
HETATM    4 CL   UNL     1      12.245   1.531  -4.255  1.00  0.00    -0.062 Cl
HETATM    5  C   UNL     1      10.578   3.605  -3.839  1.00  0.00     0.067 A 
HETATM    6  C   UNL     1       9.537   4.192  -3.131  1.00  0.00     0.051 A 
HETATM    7  C   UNL     1       9.092   5.510  -3.466  1.00  0.00     0.099 C 
HETATM    8  N   UNL     1       8.735   6.579  -3.742  1.00  0.00    -0.191 NA
HETATM    9  C   UNL     1       8.931   3.492  -2.087  1.00  0.00     0.068 A 
ENDROOT
BRANCH   1  10
HETATM   10  N   UNL     1       8.828   1.476  -0.714  1.00  0.00    -0.186 NA
HETATM   11  H   UNL     1       9.254   0.539  -0.771  1.00  0.00     0.154 HD
BRANCH  10  12
HETATM   12  N   UNL     1       7.421   1.398  -0.758  1.00  0.00    -0.281 N 
HETATM   13  C   UNL     1       6.844   0.144  -0.737  1.00  0.00     0.271 C 
HETATM   14  O   UNL     1       7.497  -0.890  -0.872  1.00  0.00    -0.266 OA
HETATM   15  H   UNL     1       6.893   2.222  -0.459  1.00  0.00     0.184 HD
BRANCH  13  16
HETATM   16  C   UNL     1       5.369   0.133  -0.520  1.00  0.00     0.102 A 
HETATM   17  C   UNL     1       4.565   1.367  -0.311  1.00  0.00     0.261 A 
HETATM   18  N   UNL     1       3.216   1.196  -0.130  1.00  0.00    -0.326 N 
HETATM   19  O   UNL     1       5.078   2.484  -0.296  1.00  0.00    -0.267 OA
HETATM   20  C   UNL     1       2.565  -0.023  -0.115  1.00  0.00     0.019 A 
HETATM   21  H   UNL     1       2.684   2.048   0.009  1.00  0.00     0.169 HD
HETATM   22  C   UNL     1       1.079   0.061   0.111  1.00  0.00     0.069 C 
HETATM   23  C   UNL     1       3.284  -1.156  -0.294  1.00  0.00    -0.003 A 
HETATM   24  C   UNL     1       4.725  -1.048  -0.503  1.00  0.00     0.037 A 
BRANCH  23  25
HETATM   25  C   UNL     1       2.629  -2.478  -0.285  1.00  0.00    -0.024 A 
HETATM   26  C   UNL     1       2.166  -3.043  -1.480  1.00  0.00     0.012 A 
HETATM   27  C   UNL     1       1.549  -4.295  -1.472  1.00  0.00     0.001 A 
HETATM   28  C   UNL     1       1.397  -4.990  -0.272  1.00  0.00     0.000 A 
HETATM   29  C   UNL     1       1.863  -4.437   0.920  1.00  0.00     0.001 A 
HETATM   30  C   UNL     1       2.481  -3.185   0.915  1.00  0.00     0.012 A 
ENDBRANCH  23  25
ENDBRANCH  13  16
ENDBRANCH  10  12
ENDBRANCH   1  10
TORSDOF 4
