REMARK  6 active torsions:
REMARK  status: ('A' for Active; 'I' for Inactive)
REMARK    1  A    between atoms: C_3  and  N_4 
REMARK    2  A    between atoms: N_4  and  C_5 
REMARK    3  A    between atoms: C_5  and  C_6 
REMARK    4  A    between atoms: N_8  and  C_10 
REMARK    5  A    between atoms: C_10  and  C_11 
REMARK    6  A    between atoms: C_12  and  O_13 
ROOT
HETATM    1  C   UNL     1       5.135  -0.737  -0.227  1.00  0.00     0.031 C 
HETATM    2  C   UNL     1       6.334  -1.529   0.293  1.00  0.00     0.241 C 
HETATM    3  N   UNL     1       7.499  -0.577   0.242  1.00  0.00    -0.067 N 
HETATM    4  H   UNL     1       7.922  -0.554   1.191  1.00  0.00     0.280 HD
HETATM    5  C   UNL     1       6.982   0.808  -0.046  1.00  0.00     0.235 C 
HETATM    6  C   UNL     1       5.485   0.693   0.187  1.00  0.00     0.035 C 
ENDROOT
BRANCH   3   7
HETATM    7  C   UNL     1       8.656  -1.019  -0.617  1.00  0.00     0.276 C 
BRANCH   7   8
HETATM    8  C   UNL     1       9.899  -0.200  -0.413  1.00  0.00     0.002 A 
HETATM    9  C   UNL     1      10.446  -0.038   0.868  1.00  0.00     0.091 A 
HETATM   10  C   UNL     1      11.632   0.676   1.059  1.00  0.00     0.044 A 
HETATM   11 BR   UNL     1      12.366   0.882   2.790  1.00  0.00    -0.048 Br
HETATM   12  C   UNL     1      12.283   1.245  -0.032  1.00  0.00     0.022 A 
HETATM   13  C   UNL     1      11.748   1.096  -1.313  1.00  0.00     0.002 A 
HETATM   14  C   UNL     1      10.566   0.374  -1.505  1.00  0.00     0.012 A 
BRANCH   9  15
HETATM   15  O   UNL     1       9.762  -0.591   1.924  1.00  0.00    -0.359 OA
HETATM   16  H   UNL     1      10.348  -0.497   2.709  1.00  0.00     0.218 HD
ENDBRANCH   9  15
ENDBRANCH   7   8
ENDBRANCH   3   7
BRANCH   1  17
HETATM   17  C   UNL     1       4.897  -0.876  -1.744  1.00  0.00     0.127 C 
BRANCH  17  18
HETATM   18  N   UNL     1       4.562  -2.259  -2.068  1.00  0.00    -0.376 N 
HETATM   19  H   UNL     1       5.379  -2.807  -2.354  1.00  0.00     0.161 HD
BRANCH  18  20
HETATM   20  C   UNL     1       3.456  -2.686  -2.800  1.00  0.00     0.100 A 
HETATM   21  C   UNL     1       3.302  -4.062  -3.042  1.00  0.00     0.048 A 
HETATM   22  C   UNL     1       2.191  -4.541  -3.733  1.00  0.00     0.005 A 
HETATM   23  C   UNL     1       1.226  -3.648  -4.169  1.00  0.00     0.017 A 
HETATM   24  C   UNL     1       1.391  -2.300  -3.892  1.00  0.00     0.089 A 
HETATM   25  N   UNL     1       2.474  -1.871  -3.220  1.00  0.00    -0.353 N 
HETATM   26  H   UNL     1       2.535  -0.878  -3.029  1.00  0.00     0.166 HD
ENDBRANCH  18  20
ENDBRANCH  17  18
ENDBRANCH   1  17
TORSDOF 6
