REMARK  7 active torsions:
REMARK  status: ('A' for Active; 'I' for Inactive)
REMARK    1  A    between atoms: C_3  and  N_4 
REMARK       I    between atoms: N_4  and  C_5 
REMARK    2  A    between atoms: C_5  and  C_6 
REMARK    3  A    between atoms: C_7  and  C_8 
REMARK    4  A    between atoms: C_19  and  C_20 
REMARK    5  A    between atoms: C_20  and  C_21 
REMARK    6  A    between atoms: C_21  and  C_22 
REMARK    7  A    between atoms: C_22  and  O_23 
ROOT
HETATM    1  C   UNL     1       4.660   3.500   0.193  1.00  0.00     0.062 C 
HETATM    2  C   UNL     1       5.275   4.866  -0.136  1.00  0.00     0.202 C 
HETATM    3  N   UNL     1       6.739   4.820  -0.027  1.00  0.00    -0.083 N 
HETATM    4  C   UNL     1       7.423   3.812   0.596  1.00  0.00     0.726 A 
HETATM    5  N   UNL     1       6.752   2.729   1.026  1.00  0.00    -0.192 N 
HETATM    6  N   UNL     1       7.568   5.811  -0.418  1.00  0.00    -0.140 NA
HETATM    7  C   UNL     1       8.736   5.363   0.064  1.00  0.00     0.166 A 
HETATM    8  N   UNL     1       8.688   4.133   0.687  1.00  0.00    -0.046 NA
HETATM    9  C   UNL     1       5.393   2.532   0.804  1.00  0.00     0.037 C 
HETATM   10  C   UNL     1       4.841   1.230   1.332  1.00  0.00     0.070 C 
HETATM   11  H   UNL     1       7.271   1.986   1.486  1.00  0.00     0.184 HD
ENDROOT
BRANCH   1  12
HETATM   12  C   UNL     1       3.220   3.363  -0.188  1.00  0.00     0.256 C 
HETATM   13  N   UNL     1       2.891   2.135  -0.713  1.00  0.00    -0.323 N 
HETATM   14  H   UNL     1       3.662   1.585  -1.071  1.00  0.00     0.169 HD
HETATM   15  O   UNL     1       2.487   4.342  -0.154  1.00  0.00    -0.267 OA
BRANCH  13  16
HETATM   16  C   UNL     1       1.602   1.609  -0.968  1.00  0.00     0.041 A 
HETATM   17  C   UNL     1       0.411   1.969  -0.310  1.00  0.00    -0.035 A 
HETATM   18  C   UNL     1       0.311   2.945   0.830  1.00  0.00     0.050 C 
HETATM   19  C   UNL     1      -0.795   1.348  -0.702  1.00  0.00     0.009 A 
HETATM   20  C   UNL     1      -0.820   0.353  -1.676  1.00  0.00     0.001 A 
HETATM   21  C   UNL     1       0.364  -0.042  -2.281  1.00  0.00     0.002 A 
HETATM   22  C   UNL     1       1.563   0.578  -1.926  1.00  0.00     0.030 A 
ENDBRANCH  13  16
ENDBRANCH   1  12
BRANCH   2  23
HETATM   23  C   UNL     1       4.760   5.999   0.756  1.00  0.00    -0.027 A 
HETATM   24  C   UNL     1       4.852   5.932   2.159  1.00  0.00     0.028 A 
HETATM   25  C   UNL     1       4.384   6.985   2.946  1.00  0.00     0.011 A 
HETATM   26 BR   UNL     1       4.516   6.874   4.828  1.00  0.00    -0.051 Br
HETATM   27  C   UNL     1       3.822   8.115   2.358  1.00  0.00     0.019 A 
HETATM   28  C   UNL     1       3.729   8.195   0.970  1.00  0.00     0.002 A 
HETATM   29  C   UNL     1       4.195   7.147   0.174  1.00  0.00     0.010 A 
ENDBRANCH   2  23
BRANCH   7  30
HETATM   30  C   UNL     1       9.977   6.176   0.063  1.00  0.00     0.085 C 
BRANCH  30  31
HETATM   31  C   UNL     1      10.077   7.105   1.277  1.00  0.00     0.034 C 
BRANCH  31  32
HETATM   32  C   UNL     1       9.857   6.422   2.626  1.00  0.00     0.164 C 
BRANCH  32  33
HETATM   33  O   UNL     1      10.625   5.233   2.737  1.00  0.00    -0.401 OA
HETATM   34  H   UNL     1      10.147   4.547   2.226  1.00  0.00     0.209 HD
ENDBRANCH  32  33
ENDBRANCH  31  32
ENDBRANCH  30  31
ENDBRANCH   7  30
TORSDOF 7
