REMARK  8 active torsions:
REMARK  status: ('A' for Active; 'I' for Inactive)
REMARK    1  A    between atoms: C_2  and  N_3 
REMARK    2  A    between atoms: C_2  and  C_17 
REMARK    3  A    between atoms: N_3  and  C_6 
REMARK    4  A    between atoms: C_6  and  C_7 
REMARK    5  A    between atoms: C_7  and  O_8 
REMARK    6  A    between atoms: C_7  and  C_9 
REMARK    7  A    between atoms: C_11  and  O_12 
REMARK    8  A    between atoms: C_17  and  C_18 
ROOT
HETATM    1  N   UNL     1       2.787   4.478   2.908  1.00  0.00    -0.068 N 
HETATM    2  H   UNL     1       3.717   4.917   2.849  1.00  0.00     0.277 HD
HETATM    3  H   UNL     1       2.821   3.907   3.772  1.00  0.00     0.277 HD
ENDROOT
BRANCH   1   4
HETATM    4  C   UNL     1       1.728   5.551   2.971  1.00  0.00     0.188 C 
HETATM    5  C   UNL     1       2.274   6.654   3.882  1.00  0.00     0.040 C 
BRANCH   4   6
HETATM    6  C   UNL     1       0.401   4.976   3.501  1.00  0.00     0.099 C 
BRANCH   6   7
HETATM    7  C   UNL     1      -0.733   5.932   3.289  1.00  0.00     0.078 A 
HETATM    8  S   UNL     1      -2.191   5.751   4.169  1.00  0.00    -0.073 SA
HETATM    9  C   UNL     1      -2.853   7.116   3.353  1.00  0.00     0.035 A 
HETATM   10  C   UNL     1      -1.903   7.614   2.458  1.00  0.00     0.074 A 
HETATM   11  C   UNL     1      -4.120   7.705   3.494  1.00  0.00     0.021 A 
HETATM   12  N   UNL     1      -0.699   6.921   2.427  1.00  0.00    -0.245 NA
HETATM   13  C   UNL     1      -2.228   8.743   1.680  1.00  0.00     0.033 A 
HETATM   14  C   UNL     1      -3.487   9.339   1.815  1.00  0.00     0.002 A 
HETATM   15  C   UNL     1      -4.419   8.824   2.710  1.00  0.00     0.002 A 
ENDBRANCH   6   7
ENDBRANCH   4   6
ENDBRANCH   1   4
BRANCH   1  16
HETATM   16  C   UNL     1       2.696   3.493   1.763  1.00  0.00     0.269 C 
BRANCH  16  17
HETATM   17  C   UNL     1       3.709   2.354   2.021  1.00  0.00     0.177 C 
BRANCH  17  18
HETATM   18  O   UNL     1       3.595   2.003   3.409  1.00  0.00    -0.389 OA
HETATM   19  H   UNL     1       4.183   1.231   3.545  1.00  0.00     0.210 HD
ENDBRANCH  17  18
BRANCH  17  20
HETATM   20  C   UNL     1       5.124   2.773   1.688  1.00  0.00    -0.025 A 
HETATM   21  C   UNL     1       5.570   2.683   0.355  1.00  0.00     0.046 A 
HETATM   22  C   UNL     1       6.855   3.100   0.001  1.00  0.00     0.068 A 
HETATM   23  C   UNL     1       7.696   3.628   0.980  1.00  0.00     0.037 A 
HETATM   24  C   UNL     1       7.276   3.714   2.305  1.00  0.00     0.003 A 
HETATM   25  C   UNL     1       5.999   3.285   2.661  1.00  0.00     0.010 A 
BRANCH  22  26
HETATM   26  O   UNL     1       7.390   3.066  -1.255  1.00  0.00    -0.356 OA
HETATM   27  C   UNL     1       6.725   2.265  -2.225  1.00  0.00     0.210 C 
ENDBRANCH  22  26
ENDBRANCH  17  20
ENDBRANCH  16  17
ENDBRANCH   1  16
TORSDOF 8
