REMARK  9 active torsions:
REMARK  status: ('A' for Active; 'I' for Inactive)
REMARK    1  A    between atoms: C_2  and  C_3 
REMARK    2  A    between atoms: C_3  and  O_4 
REMARK    3  A    between atoms: O_4  and  C_5 
REMARK    4  A    between atoms: C_6  and  C_7 
REMARK    5  A    between atoms: C_7  and  N_8 
REMARK    6  A    between atoms: C_17  and  C_18 
REMARK    7  A    between atoms: C_18  and  N_19 
REMARK    8  A    between atoms: C_23  and  O_24 
REMARK    9  A    between atoms: C_23  and  C_25 
ROOT
HETATM    1  N   UNL     1       4.936   4.561   2.223  1.00  0.00    -0.061 N 
HETATM    2  H   UNL     1       4.558   5.514   2.185  1.00  0.00     0.280 HD
HETATM    3  C   UNL     1       5.020   4.241   3.698  1.00  0.00     0.276 C 
HETATM    4  C   UNL     1       5.419   2.833   4.042  1.00  0.00     0.002 A 
HETATM    5  C   UNL     1       6.684   2.361   3.691  1.00  0.00     0.076 A 
HETATM    6  O   UNL     1       7.567   3.155   3.014  1.00  0.00    -0.349 OA
HETATM    7  C   UNL     1       7.136   3.384   1.664  1.00  0.00     0.203 C 
HETATM    8  C   UNL     1       6.301   4.665   1.558  1.00  0.00     0.262 C 
HETATM    9  C   UNL     1       4.555   1.974   4.747  1.00  0.00     0.020 A 
HETATM   10  C   UNL     1       4.947   0.665   5.088  1.00  0.00    -0.032 A 
HETATM   11  C   UNL     1       6.242   0.241   4.753  1.00  0.00     0.011 A 
HETATM   12  C   UNL     1       7.109   1.091   4.067  1.00  0.00     0.038 A 
ENDROOT
BRANCH  10  13
HETATM   13  C   UNL     1       3.990  -0.290   5.758  1.00  0.00     0.273 C 
BRANCH  13  14
HETATM   14  N   UNL     1       4.263  -0.539   7.227  1.00  0.00    -0.067 N 
HETATM   15  H   UNL     1       5.279  -0.684   7.320  1.00  0.00     0.280 HD
HETATM   16  C   UNL     1       3.896   0.646   8.087  1.00  0.00     0.238 C 
HETATM   17  C   UNL     1       4.125   0.336   9.559  1.00  0.00     0.071 C 
HETATM   18  C   UNL     1       3.368  -0.922  10.031  1.00  0.00     0.089 C 
HETATM   19  C   UNL     1       3.870  -2.077   9.142  1.00  0.00     0.071 C 
HETATM   20  C   UNL     1       3.588  -1.819   7.674  1.00  0.00     0.238 C 
BRANCH  18  21
HETATM   21  O   UNL     1       3.834  -1.197  11.352  1.00  0.00    -0.385 OA
HETATM   22  H   UNL     1       3.085  -1.239  11.976  1.00  0.00     0.211 HD
ENDBRANCH  18  21
BRANCH  18  23
HETATM   23  C   UNL     1       1.848  -0.804  10.071  1.00  0.00    -0.006 A 
HETATM   24  C   UNL     1       1.187   0.424  10.098  1.00  0.00     0.126 A 
HETATM   25  N   UNL     1      -0.154   0.581  10.061  1.00  0.00    -0.272 NA
HETATM   26  C   UNL     1      -0.908  -0.535  10.091  1.00  0.00     0.116 A 
HETATM   27  C   UNL     1      -0.370  -1.805  10.135  1.00  0.00     0.020 A 
HETATM   28  C   UNL     1       1.019  -1.937  10.129  1.00  0.00     0.013 A 
ENDBRANCH  18  23
ENDBRANCH  13  14
ENDBRANCH  10  13
BRANCH   1  29
HETATM   29  C   UNL     1       3.946   3.719   1.432  1.00  0.00     0.276 C 
BRANCH  29  30
HETATM   30  C   UNL     1       2.553   3.675   2.013  1.00  0.00     0.001 A 
HETATM   31  C   UNL     1       1.936   2.446   2.329  1.00  0.00     0.077 A 
HETATM   32  C   UNL     1       0.650   2.439   2.875  1.00  0.00     0.037 A 
HETATM   33  C   UNL     1      -0.027   3.638   3.106  1.00  0.00     0.003 A 
HETATM   34  C   UNL     1       0.565   4.852   2.776  1.00  0.00     0.001 A 
HETATM   35  C   UNL     1       1.843   4.873   2.222  1.00  0.00     0.012 A 
BRANCH  31  36
HETATM   36  O   UNL     1       2.676   1.326   2.061  1.00  0.00    -0.347 OA
BRANCH  36  37
HETATM   37  C   UNL     1       2.153   0.031   2.369  1.00  0.00     0.202 C 
BRANCH  37  38
HETATM   38  C   UNL     1       1.242  -0.464   1.292  1.00  0.00    -0.011 C 
HETATM   39  C   UNL     1       0.049  -1.033   1.512  1.00  0.00     0.009 C 
ENDBRANCH  37  38
ENDBRANCH  36  37
ENDBRANCH  31  36
ENDBRANCH  29  30
ENDBRANCH   1  29
TORSDOF 9
