REMARK  7 active torsions:
REMARK  status: ('A' for Active; 'I' for Inactive)
REMARK    1  A    between atoms: C_2  and  N_3 
REMARK    2  A    between atoms: N_3  and  C_4 
REMARK    3  A    between atoms: C_4  and  N_5 
REMARK    4  A    between atoms: N_5  and  N_6 
REMARK    5  A    between atoms: N_6  and  C_7 
REMARK    6  A    between atoms: N_8  and  C_9 
REMARK    7  A    between atoms: C_9  and  C_10 
ROOT
HETATM    1  C   UNL     1       5.625  -1.698   1.245  1.00  0.00     0.204 C 
HETATM    2  N   UNL     1       5.393  -2.977   0.786  1.00  0.00    -0.283 N 
HETATM    3  C   UNL     1       6.174  -4.025   1.231  1.00  0.00     0.259 C 
HETATM    4  O   UNL     1       5.791  -5.191   1.188  1.00  0.00    -0.267 OA
HETATM    5  C   UNL     1       7.504  -3.673   1.795  1.00  0.00     0.049 C 
HETATM    6  C   UNL     1       7.667  -2.368   2.090  1.00  0.00     0.083 C 
HETATM    7  C   UNL     1       8.954  -1.915   2.684  1.00  0.00    -0.000 A 
HETATM    8  C   UNL     1      10.078  -2.753   2.648  1.00  0.00    -0.044 A 
HETATM    9  C   UNL     1      11.309  -2.315   3.161  1.00  0.00     0.008 A 
HETATM   10  C   UNL     1      11.424  -1.049   3.730  1.00  0.00     0.001 A 
HETATM   11  C   UNL     1      10.314  -0.211   3.779  1.00  0.00     0.001 A 
HETATM   12  C   UNL     1       9.091  -0.641   3.257  1.00  0.00     0.014 A 
HETATM   13  C   UNL     1       9.980  -4.090   1.968  1.00  0.00     0.054 C 
HETATM   14  C   UNL     1       8.570  -4.753   2.066  1.00  0.00    -0.002 C 
HETATM   15  C   UNL     1       8.311  -5.317   3.493  1.00  0.00     0.015 C 
HETATM   16  C   UNL     1       9.233  -6.472   3.889  1.00  0.00     0.001 C 
HETATM   17  C   UNL     1       9.231  -7.589   2.853  1.00  0.00     0.000 C 
HETATM   18  C   UNL     1       9.533  -7.074   1.450  1.00  0.00     0.001 C 
HETATM   19  C   UNL     1       8.579  -5.942   1.055  1.00  0.00     0.015 C 
HETATM   20  N   UNL     1       6.707  -1.406   1.908  1.00  0.00    -0.217 NA
ENDROOT
BRANCH   1  21
HETATM   21  N   UNL     1       4.683  -0.707   1.027  1.00  0.00    -0.171 NA
HETATM   22  H   UNL     1       3.731  -0.991   0.807  1.00  0.00     0.156 HD
BRANCH  21  23
HETATM   23  N   UNL     1       4.712   0.346   1.969  1.00  0.00    -0.291 N 
HETATM   24  H   UNL     1       5.573   0.341   2.516  1.00  0.00     0.183 HD
BRANCH  23  25
HETATM   25  C   UNL     1       4.165   1.562   1.643  1.00  0.00     0.182 C 
HETATM   26  S   UNL     1       3.303   1.912   0.254  1.00  0.00    -0.040 SA
BRANCH  25  27
HETATM   27  N   UNL     1       4.287   2.545   2.587  1.00  0.00    -0.367 N 
HETATM   28  H   UNL     1       3.822   3.408   2.327  1.00  0.00     0.161 HD
BRANCH  27  29
HETATM   29  C   UNL     1       4.590   2.374   4.000  1.00  0.00     0.117 C 
HETATM   30  C   UNL     1       3.367   1.910   4.772  1.00  0.00     0.026 C 
ENDBRANCH  27  29
ENDBRANCH  25  27
ENDBRANCH  23  25
ENDBRANCH  21  23
ENDBRANCH   1  21
BRANCH   2  31
HETATM   31  C   UNL     1       4.249  -3.315  -0.055  1.00  0.00     0.173 C 
BRANCH  31  32
HETATM   32  C   UNL     1       2.931  -3.542   0.660  1.00  0.00    -0.040 A 
HETATM   33  C   UNL     1       2.810  -3.628   2.054  1.00  0.00     0.009 A 
HETATM   34  C   UNL     1       1.569  -3.872   2.647  1.00  0.00     0.001 A 
HETATM   35  C   UNL     1       0.434  -4.042   1.857  1.00  0.00     0.000 A 
HETATM   36  C   UNL     1       0.538  -3.966   0.471  1.00  0.00     0.001 A 
HETATM   37  C   UNL     1       1.776  -3.717  -0.123  1.00  0.00     0.009 A 
ENDBRANCH  31  32
ENDBRANCH   2  31
TORSDOF 7
