REMARK  6 active torsions:
REMARK  status: ('A' for Active; 'I' for Inactive)
REMARK    1  A    between atoms: O_2  and  C_3 
REMARK    2  A    between atoms: C_6  and  C_7 
REMARK    3  A    between atoms: C_7  and  N_8 
REMARK    4  A    between atoms: N_8  and  C_9 
REMARK    5  A    between atoms: C_15  and  C_16 
REMARK       I    between atoms: C_16  and  N_17 
REMARK    6  A    between atoms: N_17  and  C_18 
ROOT
HETATM    1  C   UNL     1       6.797   3.467   5.078  1.00  0.00     0.096 A 
HETATM    2  N   UNL     1       6.743   4.807   4.966  1.00  0.00    -0.356 N 
HETATM    3  H   UNL     1       6.184   5.180   4.200  1.00  0.00     0.166 HD
HETATM    4  C   UNL     1       7.423   5.652   5.754  1.00  0.00     0.089 A 
HETATM    5  C   UNL     1       8.263   5.155   6.739  1.00  0.00     0.018 A 
HETATM    6  C   UNL     1       8.419   3.777   6.865  1.00  0.00     0.022 A 
HETATM    7  C   UNL     1       7.715   2.920   6.011  1.00  0.00     0.070 A 
ENDROOT
BRANCH   1   8
HETATM    8  N   UNL     1       6.056   2.703   4.174  1.00  0.00    -0.274 NA
HETATM    9  H   UNL     1       6.112   1.710   4.463  1.00  0.00     0.129 HD
BRANCH   8  10
HETATM   10  C   UNL     1       4.638   3.031   3.996  1.00  0.00     0.132 C 
BRANCH  10  11
HETATM   11  C   UNL     1       4.457   3.968   2.830  1.00  0.00    -0.045 A 
HETATM   12  C   UNL     1       4.968   3.630   1.567  1.00  0.00     0.011 A 
HETATM   13  C   UNL     1       4.761   4.460   0.462  1.00  0.00     0.037 A 
HETATM   14  C   UNL     1       4.035   5.640   0.603  1.00  0.00     0.068 A 
HETATM   15  C   UNL     1       3.538   5.992   1.861  1.00  0.00     0.037 A 
HETATM   16  C   UNL     1       3.733   5.159   2.966  1.00  0.00     0.011 A 
BRANCH  14  17
HETATM   17  O   UNL     1       3.755   6.527  -0.398  1.00  0.00    -0.356 OA
HETATM   18  C   UNL     1       3.882   6.038  -1.730  1.00  0.00     0.210 C 
ENDBRANCH  14  17
ENDBRANCH  10  11
ENDBRANCH   8  10
ENDBRANCH   1   8
BRANCH   7  19
HETATM   19  C   UNL     1       7.869   1.439   6.080  1.00  0.00     0.259 C 
HETATM   20  N   UNL     1       9.090   0.957   6.499  1.00  0.00    -0.320 N 
HETATM   21  H   UNL     1       9.814   1.603   6.796  1.00  0.00     0.169 HD
HETATM   22  O   UNL     1       6.905   0.768   5.724  1.00  0.00    -0.267 OA
BRANCH  20  23
HETATM   23  C   UNL     1       9.513  -0.401   6.520  1.00  0.00     0.075 A 
HETATM   24  C   UNL     1      10.779  -0.722   7.029  1.00  0.00     0.152 A 
HETATM   25 CL   UNL     1      11.819   0.499   7.669  1.00  0.00    -0.060 Cl
HETATM   26  N   UNL     1      11.315  -1.960   7.077  1.00  0.00    -0.247 NA
HETATM   27  C   UNL     1      10.551  -2.957   6.587  1.00  0.00     0.118 A 
HETATM   28  C   UNL     1       9.284  -2.760   6.060  1.00  0.00     0.022 A 
HETATM   29  C   UNL     1       8.759  -1.466   6.030  1.00  0.00     0.034 A 
ENDBRANCH  20  23
ENDBRANCH   7  19
TORSDOF 6
