REMARK  7 active torsions:
REMARK  status: ('A' for Active; 'I' for Inactive)
REMARK    1  A    between atoms: N_2  and  C_4 
REMARK    2  A    between atoms: N_2  and  C_10 
REMARK    3  A    between atoms: C_10  and  C_11 
REMARK    4  A    between atoms: C_12  and  N_13 
REMARK       I    between atoms: N_13  and  C_14 
REMARK       I    between atoms: C_14  and  N_15 
REMARK    5  A    between atoms: N_15  and  C_16 
REMARK    6  A    between atoms: C_16  and  C_17 
REMARK    7  A    between atoms: C_17  and  C_18 
ROOT
HETATM    1  C   UNL     1       4.305  -2.084  -0.258  1.00  0.00    -0.006 A 
HETATM    2  C   UNL     1       5.371  -2.611   0.502  1.00  0.00     0.044 A 
HETATM    3  C   UNL     1       6.692  -2.371   0.056  1.00  0.00     0.030 A 
HETATM    4  C   UNL     1       6.972  -1.605  -1.074  1.00  0.00     0.002 A 
HETATM    5  C   UNL     1       5.933  -1.056  -1.800  1.00  0.00     0.001 A 
HETATM    6  C   UNL     1       4.621  -1.295  -1.399  1.00  0.00     0.011 A 
ENDROOT
BRANCH   2   7
HETATM    7  N   UNL     1       5.334  -3.371   1.698  1.00  0.00    -0.308 N 
HETATM    8  C   UNL     1       4.334  -3.593   2.601  1.00  0.00     0.320 C 
HETATM    9  N   UNL     1       4.780  -4.265   3.712  1.00  0.00    -0.343 N 
HETATM   10  O   UNL     1       3.182  -3.190   2.511  1.00  0.00    -0.247 OA
HETATM   11  H   UNL     1       5.646  -4.784   3.675  1.00  0.00     0.164 HD
HETATM   12  H   UNL     1       6.239  -3.662   2.043  1.00  0.00     0.170 HD
BRANCH   9  13
HETATM   13  C   UNL     1       3.905  -4.521   4.848  1.00  0.00     0.130 C 
BRANCH  13  14
HETATM   14  C   UNL     1       3.163  -5.854   4.716  1.00  0.00     0.079 C 
BRANCH  14  15
HETATM   15  C   UNL     1       1.991  -5.956   5.665  1.00  0.00     0.042 A 
HETATM   16  N   UNL     1       2.257  -5.663   6.984  1.00  0.00    -0.248 NA
HETATM   17  C   UNL     1       1.269  -5.740   7.813  1.00  0.00     0.210 A 
HETATM   18  N   UNL     1      -0.002  -6.081   7.461  1.00  0.00    -0.318 N 
HETATM   19  C   UNL     1      -0.336  -6.358   6.171  1.00  0.00     0.248 A 
HETATM   20  H   UNL     1      -0.745  -6.117   8.144  1.00  0.00     0.169 HD
HETATM   21  O   UNL     1      -1.476  -6.616   5.808  1.00  0.00    -0.268 OA
HETATM   22  C   UNL     1       0.776  -6.303   5.215  1.00  0.00     0.101 A 
ENDBRANCH  14  15
ENDBRANCH  13  14
ENDBRANCH   9  13
ENDBRANCH   2   7
BRANCH   1  23
HETATM   23  C   UNL     1       2.823  -2.316  -0.050  1.00  0.00     0.275 C 
BRANCH  23  24
HETATM   24  N   UNL     1       2.104  -1.527   1.036  1.00  0.00    -0.067 N 
HETATM   25  C   UNL     1       2.731  -0.181   1.283  1.00  0.00     0.270 C 
HETATM   26  H   UNL     1       2.324  -2.098   1.878  1.00  0.00     0.280 HD
BRANCH  24  27
HETATM   27  C   UNL     1       0.582  -1.457   0.908  1.00  0.00     0.188 C 
HETATM   28  C   UNL     1      -0.053  -2.728   0.314  1.00  0.00     0.033 C 
HETATM   29  C   UNL     1      -0.048  -3.926   1.261  1.00  0.00     0.002 C 
HETATM   30  C   UNL     1      -0.709  -3.584   2.589  1.00  0.00     0.000 C 
HETATM   31  C   UNL     1      -0.083  -2.352   3.231  1.00  0.00     0.002 C 
HETATM   32  C   UNL     1      -0.074  -1.159   2.273  1.00  0.00     0.033 C 
ENDBRANCH  24  27
ENDBRANCH  23  24
ENDBRANCH   1  23
TORSDOF 7
