REMARK  4 active torsions:
REMARK  status: ('A' for Active; 'I' for Inactive)
REMARK    1  A    between atoms: O_2  and  C_3 
REMARK    2  A    between atoms: C_8  and  C_9 
REMARK    3  A    between atoms: N_11  and  C_12 
REMARK    4  A    between atoms: C_12  and  C_13 
ROOT
HETATM    1  C   UNL     1       2.925   1.252   0.230  1.00  0.00     0.069 A 
HETATM    2  C   UNL     1       3.979   1.153   1.139  1.00  0.00     0.056 A 
HETATM    3  C   UNL     1       4.694   2.297   1.501  1.00  0.00     0.063 A 
HETATM    4  C   UNL     1       4.385   3.550   0.967  1.00  0.00     0.074 A 
HETATM    5  N   UNL     1       5.078   4.719   1.324  1.00  0.00    -0.234 NA
HETATM    6  C   UNL     1       6.035   4.620   2.188  1.00  0.00     0.113 A 
HETATM    7  N   UNL     1       6.399   3.428   2.764  1.00  0.00    -0.310 N 
HETATM    8  C   UNL     1       5.797   2.230   2.470  1.00  0.00     0.259 A 
HETATM    9  O   UNL     1       6.160   1.180   2.985  1.00  0.00    -0.267 OA
HETATM   10  C   UNL     1       3.337   3.637   0.050  1.00  0.00     0.035 A 
HETATM   11  C   UNL     1       2.609   2.497  -0.318  1.00  0.00     0.039 A 
HETATM   12  H   UNL     1       7.158   3.374   3.429  1.00  0.00     0.170 HD
ENDROOT
BRANCH   6  13
HETATM   13  C   UNL     1       6.815   5.821   2.668  1.00  0.00     0.082 C 
HETATM   14  C   UNL     1       6.547   7.103   1.892  1.00  0.00     0.139 C 
HETATM   15  N   UNL     1       6.740   8.138   2.876  1.00  0.00    -0.347 N 
HETATM   16  C   UNL     1       6.654   7.668   4.170  1.00  0.00     0.220 C 
HETATM   17  O   UNL     1       6.721   8.323   5.197  1.00  0.00    -0.273 OA
HETATM   18  C   UNL     1       6.439   6.179   4.109  1.00  0.00     0.117 C 
BRANCH  15  19
HETATM   19  C   UNL     1       6.930   9.532   2.524  1.00  0.00     0.164 C 
BRANCH  19  20
HETATM   20  C   UNL     1       8.348   9.804   2.084  1.00  0.00    -0.040 A 
HETATM   21  C   UNL     1       8.640  10.120   0.750  1.00  0.00     0.009 A 
HETATM   22  C   UNL     1       9.957  10.363   0.354  1.00  0.00     0.001 A 
HETATM   23  C   UNL     1      10.993  10.291   1.284  1.00  0.00     0.000 A 
HETATM   24  C   UNL     1      10.714   9.977   2.613  1.00  0.00     0.001 A 
HETATM   25  C   UNL     1       9.399   9.736   3.012  1.00  0.00     0.009 A 
ENDBRANCH  19  20
ENDBRANCH  15  19
ENDBRANCH   6  13
BRANCH   1  26
HETATM   26  O   UNL     1       2.292   0.071  -0.041  1.00  0.00    -0.356 OA
HETATM   27  C   UNL     1       1.128   0.135  -0.856  1.00  0.00     0.210 C 
ENDBRANCH   1  26
TORSDOF 4
