REMARK  3 active torsions:
REMARK  status: ('A' for Active; 'I' for Inactive)
REMARK    1  A    between atoms: C_2  and  O_3 
REMARK    2  A    between atoms: O_3  and  C_4 
REMARK    3  A    between atoms: C_8  and  N_9 
REMARK       I    between atoms: N_9  and  C_10 
REMARK       I    between atoms: C_10  and  N_11 
ROOT
HETATM    1  N   UNL     1       1.550  -6.166  -1.653  1.00  0.00    -0.306 N 
HETATM    2  C   UNL     1       0.803  -6.563  -2.739  1.00  0.00     0.323 C 
HETATM    3  N   UNL     1       0.004  -5.571  -3.298  1.00  0.00    -0.328 N 
HETATM    4  C   UNL     1      -0.808  -5.957  -4.463  1.00  0.00     0.185 C 
HETATM    5  C   UNL     1      -0.863  -4.810  -5.412  1.00  0.00     0.035 A 
HETATM    6  C   UNL     1      -0.455  -3.513  -5.175  1.00  0.00    -0.020 A 
HETATM    7  C   UNL     1       0.149  -3.123  -3.875  1.00  0.00     0.061 C 
HETATM    8  C   UNL     1      -0.174  -4.185  -2.804  1.00  0.00     0.132 C 
HETATM    9  N   UNL     1      -1.322  -4.881  -6.698  1.00  0.00    -0.357 N 
HETATM   10  H   UNL     1      -1.664  -5.714  -7.156  1.00  0.00     0.166 HD
HETATM   11  C   UNL     1      -1.228  -3.642  -7.297  1.00  0.00     0.043 A 
HETATM   12  C   UNL     1      -0.689  -2.760  -6.356  1.00  0.00    -0.001 A 
HETATM   13  C   UNL     1      -1.566  -3.241  -8.595  1.00  0.00     0.030 A 
HETATM   14  C   UNL     1      -1.351  -1.903  -8.938  1.00  0.00     0.002 A 
HETATM   15  C   UNL     1      -0.819  -1.002  -8.018  1.00  0.00     0.001 A 
HETATM   16  C   UNL     1      -0.482  -1.417  -6.725  1.00  0.00     0.014 A 
HETATM   17  O   UNL     1       0.802  -7.711  -3.178  1.00  0.00    -0.247 OA
HETATM   18  H   UNL     1       1.090  -5.522  -1.033  1.00  0.00     0.171 HD
ENDROOT
BRANCH   1  19
HETATM   19  C   UNL     1       2.632  -6.886  -1.094  1.00  0.00     0.075 A 
HETATM   20  C   UNL     1       3.436  -7.788  -1.802  1.00  0.00     0.145 A 
HETATM   21  C   UNL     1       4.471  -8.487  -1.176  1.00  0.00     0.081 A 
HETATM   22  F   UNL     1       3.300  -7.958  -3.125  1.00  0.00    -0.204 F 
HETATM   23  C   UNL     1       4.732  -8.278   0.174  1.00  0.00     0.072 A 
HETATM   24  C   UNL     1       3.985  -7.327   0.872  1.00  0.00     0.039 A 
HETATM   25  C   UNL     1       2.942  -6.636   0.247  1.00  0.00     0.035 A 
BRANCH  23  26
HETATM   26  O   UNL     1       5.705  -8.896   0.907  1.00  0.00    -0.347 OA
BRANCH  26  27
HETATM   27  C   UNL     1       6.140 -10.199   0.496  1.00  0.00     0.120 C 
HETATM   28  C   UNL     1       5.078 -11.248   0.824  1.00  0.00     0.040 C 
HETATM   29  C   UNL     1       7.419 -10.496   1.278  1.00  0.00     0.040 C 
ENDBRANCH  26  27
ENDBRANCH  23  26
ENDBRANCH   1  19
TORSDOF 3
