REMARK  3 active torsions:
REMARK  status: ('A' for Active; 'I' for Inactive)
REMARK    1  A    between atoms: C_4  and  N_5 
REMARK       I    between atoms: N_5  and  C_6 
REMARK    2  A    between atoms: C_6  and  C_7 
REMARK    3  A    between atoms: C_7  and  C_8 
ROOT
HETATM    1  C   UNL     1       6.023   0.452   0.995  1.00  0.00     0.286 C 
HETATM    2  N   UNL     1       4.911   0.761  -0.034  1.00  0.00    -0.056 N 
HETATM    3  H   UNL     1       4.317   1.529   0.305  1.00  0.00     0.278 HD
HETATM    4  H   UNL     1       5.371   1.104  -0.889  1.00  0.00     0.278 HD
HETATM    5  C   UNL     1       4.090  -0.462  -0.365  1.00  0.00     0.209 C 
HETATM    6  C   UNL     1       5.030  -1.559  -0.910  1.00  0.00     0.115 C 
HETATM    7  N   UNL     1       6.138  -1.831  -0.006  1.00  0.00    -0.353 N 
HETATM    8  C   UNL     1       6.833  -0.804   0.595  1.00  0.00     0.249 C 
HETATM    9  O   UNL     1       8.040  -0.891   0.793  1.00  0.00    -0.271 OA
HETATM   10  C   UNL     1       3.013  -0.106  -1.383  1.00  0.00     0.035 C 
HETATM   11  C   UNL     1       2.206  -1.352  -1.751  1.00  0.00     0.002 C 
HETATM   12  C   UNL     1       3.097  -2.503  -2.223  1.00  0.00     0.002 C 
HETATM   13  C   UNL     1       4.224  -2.817  -1.235  1.00  0.00     0.027 C 
HETATM   14  H   UNL     1       6.756  -2.608  -0.239  1.00  0.00     0.163 HD
ENDROOT
BRANCH   1  15
HETATM   15  C   UNL     1       5.409   0.473   2.398  1.00  0.00     0.146 C 
BRANCH  15  16
HETATM   16  C   UNL     1       6.264  -0.240   3.419  1.00  0.00     0.224 C 
HETATM   17  N   UNL     1       6.819   0.433   4.463  1.00  0.00    -0.327 N 
HETATM   18  H   UNL     1       7.573  -0.087   4.905  1.00  0.00     0.169 HD
HETATM   19  O   UNL     1       6.508  -1.437   3.269  1.00  0.00    -0.273 OA
BRANCH  17  20
HETATM   20  C   UNL     1       6.426   1.606   5.134  1.00  0.00     0.035 A 
HETATM   21  C   UNL     1       5.126   2.119   5.102  1.00  0.00     0.036 A 
HETATM   22  C   UNL     1       4.796   3.281   5.814  1.00  0.00    -0.059 A 
HETATM   23  C   UNL     1       3.395   3.822   5.805  1.00  0.00     0.048 C 
HETATM   24  C   UNL     1       5.773   3.904   6.597  1.00  0.00     0.013 A 
HETATM   25  C   UNL     1       7.066   3.378   6.679  1.00  0.00    -0.059 A 
HETATM   26  C   UNL     1       7.381   2.223   5.950  1.00  0.00     0.036 A 
HETATM   27  C   UNL     1       8.086   4.039   7.561  1.00  0.00     0.048 C 
ENDBRANCH  17  20
ENDBRANCH  15  16
ENDBRANCH   1  15
TORSDOF 3
