REMARK  8 active torsions:
REMARK  status: ('A' for Active; 'I' for Inactive)
REMARK    1  A    between atoms: C_2  and  C_3 
REMARK    2  A    between atoms: C_7  and  C_8 
REMARK       I    between atoms: C_8  and  N_9 
REMARK    3  A    between atoms: N_9  and  C_10 
REMARK    4  A    between atoms: C_10  and  C_11 
REMARK    5  A    between atoms: C_11  and  O_12 
REMARK    6  A    between atoms: C_11  and  C_13 
REMARK    7  A    between atoms: C_13  and  O_14 
REMARK    8  A    between atoms: O_14  and  C_15 
ROOT
HETATM    1  C   UNL     1       8.036   1.082  -4.026  1.00  0.00     0.269 C 
HETATM    2  N   UNL     1       7.651   2.007  -3.092  1.00  0.00    -0.353 N 
HETATM    3  O   UNL     1       7.365   0.088  -4.286  1.00  0.00    -0.266 OA
HETATM    4  H   UNL     1       8.304   2.711  -2.778  1.00  0.00     0.162 HD
ENDROOT
BRANCH   1   5
HETATM    5  C   UNL     1       9.264   1.387  -4.712  1.00  0.00     0.120 A 
HETATM    6  N   UNL     1       9.776   0.567  -5.678  1.00  0.00    -0.272 N 
HETATM    7  N   UNL     1      10.861   1.056  -6.299  1.00  0.00    -0.174 NA
HETATM    8  H   UNL     1       9.397  -0.324  -5.982  1.00  0.00     0.189 HD
HETATM    9  C   UNL     1      11.087   2.238  -5.705  1.00  0.00     0.089 A 
HETATM   10  C   UNL     1      10.126   2.467  -4.681  1.00  0.00     0.071 A 
BRANCH   9  11
HETATM   11  C   UNL     1      12.160   3.134  -6.147  1.00  0.00    -0.005 A 
HETATM   12  C   UNL     1      12.634   3.072  -7.469  1.00  0.00     0.017 A 
HETATM   13  C   UNL     1      13.623   3.953  -7.915  1.00  0.00     0.043 A 
HETATM   14  C   UNL     1      14.147   4.893  -7.037  1.00  0.00     0.116 A 
HETATM   15  C   UNL     1      13.704   4.967  -5.722  1.00  0.00     0.043 A 
HETATM   16  F   UNL     1      15.090   5.743  -7.463  1.00  0.00    -0.206 F 
HETATM   17  C   UNL     1      12.711   4.089  -5.276  1.00  0.00     0.017 A 
ENDBRANCH   9  11
ENDBRANCH   1   5
BRANCH   2  18
HETATM   18  C   UNL     1       6.333   2.034  -2.489  1.00  0.00     0.156 C 
BRANCH  18  19
HETATM   19  C   UNL     1       6.302   1.556  -1.037  1.00  0.00     0.159 C 
BRANCH  19  20
HETATM   20  O   UNL     1       7.357   2.180  -0.288  1.00  0.00    -0.392 OA
HETATM   21  H   UNL     1       7.368   1.702   0.566  1.00  0.00     0.210 HD
ENDBRANCH  19  20
BRANCH  19  22
HETATM   22  C   UNL     1       6.378   0.033  -0.887  1.00  0.00     0.201 C 
BRANCH  22  23
HETATM   23  O   UNL     1       6.165  -0.241   0.509  1.00  0.00    -0.383 OA
BRANCH  23  24
HETATM   24  C   UNL     1       5.536  -1.500   0.765  1.00  0.00     0.121 C 
HETATM   25  C   UNL     1       5.047  -1.469   2.217  1.00  0.00     0.032 C 
HETATM   26  C   UNL     1       4.421  -2.795   2.634  1.00  0.00     0.002 C 
HETATM   27  C   UNL     1       5.379  -3.959   2.404  1.00  0.00     0.000 C 
HETATM   28  C   UNL     1       5.886  -3.997   0.965  1.00  0.00     0.002 C 
HETATM   29  C   UNL     1       6.504  -2.665   0.544  1.00  0.00     0.032 C 
ENDBRANCH  23  24
ENDBRANCH  22  23
ENDBRANCH  19  22
ENDBRANCH  18  19
ENDBRANCH   2  18
TORSDOF 8
