REMARK  5 active torsions:
REMARK  status: ('A' for Active; 'I' for Inactive)
REMARK    1  A    between atoms: C_5  and  C_6 
REMARK       I    between atoms: C_6  and  N_7 
REMARK    2  A    between atoms: N_7  and  C_8 
REMARK    3  A    between atoms: C_13  and  O_14 
REMARK    4  A    between atoms: O_14  and  C_15 
REMARK    5  A    between atoms: C_15  and  C_16 
ROOT
HETATM    1  C   UNL     1      -1.890   3.179  -0.049  1.00  0.00     0.163 A 
HETATM    2  N   UNL     1      -2.310   2.159  -0.836  1.00  0.00    -0.241 NA
HETATM    3  C   UNL     1      -3.615   1.827  -0.766  1.00  0.00     0.119 A 
HETATM    4  C   UNL     1      -4.534   2.488   0.029  1.00  0.00     0.022 A 
HETATM    5  C   UNL     1      -4.101   3.585   0.771  1.00  0.00     0.042 A 
HETATM    6  C   UNL     1      -2.760   3.969   0.721  1.00  0.00     0.115 A 
ENDROOT
BRANCH   1   7
HETATM    7  N   UNL     1      -0.507   3.388  -0.115  1.00  0.00    -0.305 N 
HETATM    8  C   UNL     1       0.294   3.715   0.958  1.00  0.00     0.258 C 
HETATM    9  O   UNL     1      -0.073   3.858   2.120  1.00  0.00    -0.267 OA
HETATM   10  H   UNL     1      -0.087   2.979  -0.933  1.00  0.00     0.170 HD
BRANCH   8  11
HETATM   11  C   UNL     1       1.736   3.889   0.658  1.00  0.00     0.044 A 
HETATM   12  C   UNL     1       2.459   3.050  -0.226  1.00  0.00     0.008 A 
HETATM   13  C   UNL     1       3.809   3.347  -0.455  1.00  0.00     0.043 A 
HETATM   14  C   UNL     1       2.180   1.868  -0.982  1.00  0.00     0.032 A 
HETATM   15  C   UNL     1       4.475   4.408   0.172  1.00  0.00     0.030 A 
HETATM   16  N   UNL     1       4.290   2.426  -1.359  1.00  0.00    -0.365 N 
HETATM   17  C   UNL     1       3.753   5.193   1.071  1.00  0.00     0.003 A 
HETATM   18  C   UNL     1       2.405   4.942   1.312  1.00  0.00     0.018 A 
HETATM   19  H   UNL     1       5.238   2.411  -1.711  1.00  0.00     0.165 HD
HETATM   20  C   UNL     1       3.314   1.525  -1.682  1.00  0.00     0.089 A 
ENDBRANCH   8  11
ENDBRANCH   1   7
BRANCH   6  21
HETATM   21  O   UNL     1      -2.271   5.131   1.250  1.00  0.00    -0.343 OA
BRANCH  21  22
HETATM   22  C   UNL     1      -3.073   5.843   2.184  1.00  0.00     0.216 C 
BRANCH  22  23
HETATM   23  C   UNL     1      -2.323   7.073   2.616  1.00  0.00    -0.017 A 
HETATM   24  C   UNL     1      -1.073   6.972   3.221  1.00  0.00     0.125 A 
HETATM   25  N   UNL     1      -0.343   8.033   3.641  1.00  0.00    -0.272 NA
HETATM   26  C   UNL     1      -0.882   9.255   3.447  1.00  0.00     0.116 A 
HETATM   27  C   UNL     1      -2.117   9.466   2.857  1.00  0.00     0.020 A 
HETATM   28  C   UNL     1      -2.847   8.357   2.438  1.00  0.00     0.012 A 
ENDBRANCH  22  23
ENDBRANCH  21  22
ENDBRANCH   6  21
TORSDOF 5
