REMARK  4 active torsions:
REMARK  status: ('A' for Active; 'I' for Inactive)
REMARK    1  A    between atoms: C_2  and  C_3 
REMARK    2  A    between atoms: C_3  and  C_4 
REMARK    3  A    between atoms: C_4  and  C_5 
REMARK    4  A    between atoms: C_25  and  N_26 
ROOT
HETATM    1  C   UNL     1       5.029  -2.370   1.640  1.00  0.00     0.067 A 
HETATM    2  N   UNL     1       5.444  -2.378   2.919  1.00  0.00    -0.177 NA
HETATM    3  N   UNL     1       5.659  -3.678   3.195  1.00  0.00    -0.256 N 
HETATM    4  H   UNL     1       5.960  -3.938   4.128  1.00  0.00     0.191 HD
HETATM    5  C   UNL     1       5.401  -4.486   2.137  1.00  0.00     0.176 A 
HETATM    6  C   UNL     1       5.029  -3.678   1.091  1.00  0.00     0.049 A 
HETATM    7  C   UNL     1       4.680  -4.301  -0.218  1.00  0.00     0.144 A 
HETATM    8  C   UNL     1       3.303  -3.806  -0.737  1.00  0.00     0.246 A 
HETATM    9  O   UNL     1       2.203  -4.004  -0.246  1.00  0.00    -0.271 OA
HETATM   10  N   UNL     1       3.537  -3.097  -1.910  1.00  0.00    -0.325 N 
HETATM   11  C   UNL     1       4.888  -3.064  -2.225  1.00  0.00     0.043 A 
HETATM   12  C   UNL     1       5.640  -3.751  -1.260  1.00  0.00     0.003 A 
HETATM   13  C   UNL     1       5.450  -2.449  -3.324  1.00  0.00     0.030 A 
HETATM   14  C   UNL     1       6.833  -2.529  -3.462  1.00  0.00     0.003 A 
HETATM   15  C   UNL     1       7.610  -3.217  -2.514  1.00  0.00     0.007 A 
HETATM   16  C   UNL     1       7.026  -3.849  -1.399  1.00  0.00    -0.051 A 
HETATM   17  C   UNL     1       7.902  -4.568  -0.418  1.00  0.00     0.049 C 
HETATM   18  C   UNL     1       4.662  -5.820  -0.110  1.00  0.00     0.081 A 
HETATM   19  C   UNL     1       4.090  -6.592  -1.287  1.00  0.00     0.021 C 
HETATM   20  N   UNL     1       3.614  -7.232  -2.264  1.00  0.00    -0.096 N 
HETATM   21  C   UNL     1       5.037  -6.489   1.014  1.00  0.00     0.140 A 
HETATM   22  O   UNL     1       5.481  -5.812   2.164  1.00  0.00    -0.279 OA
HETATM   23  H   UNL     1       2.794  -2.686  -2.458  1.00  0.00     0.169 HD
ENDROOT
BRANCH  21  24
HETATM   24  N   UNL     1       5.019  -7.856   1.176  1.00  0.00    -0.282 NA
HETATM   25  H   UNL     1       4.358  -8.359   0.588  1.00  0.00     0.126 HD
HETATM   26  H   UNL     1       4.946  -8.119   2.156  1.00  0.00     0.126 HD
ENDBRANCH  21  24
BRANCH   1  27
HETATM   27  C   UNL     1       4.618  -1.076   1.014  1.00  0.00     0.062 C 
BRANCH  27  28
HETATM   28  C   UNL     1       3.142  -0.760   1.277  1.00  0.00     0.006 C 
BRANCH  28  29
HETATM   29  C   UNL     1       2.688   0.488   0.522  1.00  0.00    -0.004 C 
HETATM   30  C   UNL     1       1.210   0.764   0.749  1.00  0.00     0.005 C 
ENDBRANCH  28  29
ENDBRANCH  27  28
ENDBRANCH   1  27
TORSDOF 4
