REMARK  7 active torsions:
REMARK  status: ('A' for Active; 'I' for Inactive)
REMARK    1  A    between atoms: C_2  and  N_3 
REMARK    2  A    between atoms: C_2  and  C_19 
REMARK       I    between atoms: N_3  and  C_4 
REMARK       I    between atoms: C_4  and  N_5 
REMARK    3  A    between atoms: N_5  and  C_6 
REMARK    4  A    between atoms: N_8  and  C_9 
REMARK    5  A    between atoms: C_9  and  C_10 
REMARK    6  A    between atoms: C_19  and  C_20 
REMARK    7  A    between atoms: C_23  and  O_24 
ROOT
HETATM    1  N   UNL     1       2.786  -0.115  -1.289  1.00  0.00    -0.338 N 
HETATM    2  C   UNL     1       2.783  -1.206  -2.098  1.00  0.00     0.322 C 
HETATM    3  N   UNL     1       2.317  -2.370  -1.564  1.00  0.00    -0.292 N 
HETATM    4  O   UNL     1       3.192  -1.199  -3.258  1.00  0.00    -0.247 OA
HETATM    5  H   UNL     1       2.351  -0.264  -0.379  1.00  0.00     0.164 HD
HETATM    6  H   UNL     1       2.389  -3.161  -2.185  1.00  0.00     0.172 HD
ENDROOT
BRANCH   1   7
HETATM    7  C   UNL     1       3.173   1.237  -1.668  1.00  0.00     0.086 C 
HETATM    8  C   UNL     1       2.157   1.836  -2.642  1.00  0.00     0.032 C 
BRANCH   7   9
HETATM    9  C   UNL     1       4.604   1.357  -2.233  1.00  0.00     0.063 C 
BRANCH   9  10
HETATM   10  C   UNL     1       5.682   0.943  -1.257  1.00  0.00    -0.056 A 
HETATM   11  C   UNL     1       6.245  -0.340  -1.329  1.00  0.00     0.010 A 
HETATM   12  C   UNL     1       7.242  -0.731  -0.433  1.00  0.00     0.037 A 
HETATM   13  C   UNL     1       7.677   0.166   0.537  1.00  0.00     0.065 A 
HETATM   14  C   UNL     1       7.130   1.440   0.627  1.00  0.00     0.037 A 
HETATM   15  C   UNL     1       6.132   1.829  -0.268  1.00  0.00     0.010 A 
BRANCH  13  16
HETATM   16  O   UNL     1       8.652  -0.173   1.429  1.00  0.00    -0.361 OA
HETATM   17  H   UNL     1       8.946  -1.076   1.229  1.00  0.00     0.217 HD
ENDBRANCH  13  16
ENDBRANCH   9  10
ENDBRANCH   7   9
ENDBRANCH   1   7
BRANCH   3  18
HETATM   18  C   UNL     1       1.741  -2.583  -0.332  1.00  0.00     0.153 A 
HETATM   19  N   UNL     1       1.495  -1.626   0.571  1.00  0.00    -0.154 NA
HETATM   20  N   UNL     1       0.916  -2.278   1.601  1.00  0.00    -0.275 N 
HETATM   21  C   UNL     1       0.779  -3.618   1.379  1.00  0.00     0.116 A 
HETATM   22  C   UNL     1       1.310  -3.848   0.132  1.00  0.00     0.071 A 
BRANCH  20  23
HETATM   23  C   UNL     1       0.428  -1.533   2.755  1.00  0.00     0.189 C 
BRANCH  23  24
HETATM   24  C   UNL     1       1.329  -1.692   3.952  1.00  0.00    -0.038 A 
HETATM   25  C   UNL     1       2.616  -1.133   3.954  1.00  0.00     0.009 A 
HETATM   26  C   UNL     1       3.446  -1.267   5.068  1.00  0.00     0.001 A 
HETATM   27  C   UNL     1       2.999  -1.960   6.191  1.00  0.00     0.000 A 
HETATM   28  C   UNL     1       1.724  -2.521   6.202  1.00  0.00     0.001 A 
HETATM   29  C   UNL     1       0.892  -2.389   5.088  1.00  0.00     0.009 A 
ENDBRANCH  23  24
ENDBRANCH  20  23
ENDBRANCH   3  18
TORSDOF 7
