REMARK  7 active torsions:
REMARK  status: ('A' for Active; 'I' for Inactive)
REMARK    1  A    between atoms: O_2  and  C_3 
REMARK    2  A    between atoms: C_5  and  C_6 
REMARK    3  A    between atoms: C_6  and  O_7 
REMARK    4  A    between atoms: C_6  and  C_8 
REMARK    5  A    between atoms: C_8  and  N_9 
REMARK       I    between atoms: N_9  and  C_10 
REMARK    6  A    between atoms: C_10  and  C_11 
REMARK    7  A    between atoms: C_12  and  C_13 
ROOT
HETATM    1  C   UNL     1      -0.757   4.963   2.607  1.00  0.00     0.089 C 
HETATM    2  C   UNL     1      -2.242   5.382   2.622  1.00  0.00     0.068 C 
HETATM    3  C   UNL     1      -2.943   5.320   1.253  1.00  0.00     0.013 C 
HETATM    4  C   UNL     1      -2.673   4.012   0.522  1.00  0.00     0.001 C 
HETATM    5  C   UNL     1      -1.179   3.757   0.385  1.00  0.00     0.001 C 
HETATM    6  C   UNL     1      -0.502   3.713   1.750  1.00  0.00     0.015 C 
ENDROOT
BRANCH   1   7
HETATM    7  C   UNL     1       0.293   6.036   2.289  1.00  0.00     0.222 C 
HETATM    8  N   UNL     1       0.050   6.845   1.209  1.00  0.00    -0.358 N 
HETATM    9  H   UNL     1      -0.924   7.108   1.098  1.00  0.00     0.162 HD
HETATM   10  O   UNL     1       1.346   6.073   2.926  1.00  0.00    -0.273 OA
BRANCH   8  11
HETATM   11  C   UNL     1       0.975   7.897   0.812  1.00  0.00     0.159 C 
BRANCH  11  12
HETATM   12  C   UNL     1       2.441   7.487   0.549  1.00  0.00     0.169 C 
BRANCH  12  13
HETATM   13  C   UNL     1       2.607   6.328  -0.415  1.00  0.00    -0.025 A 
HETATM   14  C   UNL     1       2.354   6.479  -1.791  1.00  0.00     0.046 A 
HETATM   15  C   UNL     1       2.535   5.408  -2.670  1.00  0.00     0.068 A 
HETATM   16  C   UNL     1       2.955   4.174  -2.168  1.00  0.00     0.037 A 
HETATM   17  C   UNL     1       3.202   4.007  -0.807  1.00  0.00     0.003 A 
HETATM   18  C   UNL     1       3.030   5.080   0.065  1.00  0.00     0.010 A 
BRANCH  15  19
HETATM   19  O   UNL     1       2.338   5.434  -4.023  1.00  0.00    -0.356 OA
HETATM   20  C   UNL     1       2.009   6.692  -4.599  1.00  0.00     0.210 C 
ENDBRANCH  15  19
ENDBRANCH  12  13
BRANCH  12  21
HETATM   21  O   UNL     1       3.146   8.622   0.021  1.00  0.00    -0.389 OA
HETATM   22  H   UNL     1       4.003   8.284  -0.295  1.00  0.00     0.210 HD
ENDBRANCH  12  21
ENDBRANCH  11  12
ENDBRANCH   8  11
ENDBRANCH   1   7
BRANCH   2  23
HETATM   23  C   UNL     1      -2.433   6.724   3.263  1.00  0.00     0.110 A 
HETATM   24  N   UNL     1      -2.360   7.893   2.659  1.00  0.00    -0.233 NA
HETATM   25  C   UNL     1      -2.544   8.832   3.645  1.00  0.00     0.087 A 
HETATM   26  C   UNL     1      -2.738   8.221   4.879  1.00  0.00     0.062 A 
HETATM   27  C   UNL     1      -2.553  10.230   3.558  1.00  0.00     0.057 A 
HETATM   28  N   UNL     1      -2.664   6.879   4.608  1.00  0.00    -0.342 N 
HETATM   29  C   UNL     1      -2.944   8.929   6.064  1.00  0.00     0.034 A 
HETATM   30  H   UNL     1      -2.745   6.134   5.286  1.00  0.00     0.167 HD
HETATM   31  C   UNL     1      -2.950  10.325   5.963  1.00  0.00     0.026 A 
HETATM   32  C   UNL     1      -2.758  10.960   4.733  1.00  0.00     0.036 A 
HETATM   33 CL   UNL     1      -2.773  12.682   4.662  1.00  0.00    -0.084 Cl
ENDBRANCH   2  23
TORSDOF 7
