REMARK  5 active torsions:
REMARK  status: ('A' for Active; 'I' for Inactive)
REMARK    1  A    between atoms: C_4  and  C_5 
REMARK    2  A    between atoms: C_6  and  N_7 
REMARK    3  A    between atoms: C_9  and  C_10 
REMARK       I    between atoms: C_10  and  N_11 
REMARK    4  A    between atoms: N_11  and  C_12 
REMARK    5  A    between atoms: C_12  and  C_13 
ROOT
HETATM    1  C   UNL     1       4.793  -0.761   0.208  1.00  0.00     0.019 A 
HETATM    2  C   UNL     1       3.497  -1.170   0.247  1.00  0.00     0.111 A 
HETATM    3  C   UNL     1       2.493  -0.367   1.068  1.00  0.00     0.273 A 
HETATM    4  O   UNL     1       1.314  -0.700   1.184  1.00  0.00    -0.266 OA
HETATM    5  N   UNL     1       2.940   0.752   1.707  1.00  0.00    -0.321 N 
HETATM    6  C   UNL     1       4.259   1.190   1.673  1.00  0.00     0.046 A 
HETATM    7  C   UNL     1       5.207   0.466   0.941  1.00  0.00     0.006 A 
HETATM    8  C   UNL     1       4.608   2.346   2.377  1.00  0.00     0.032 A 
HETATM    9  C   UNL     1       5.927   2.795   2.355  1.00  0.00     0.026 A 
HETATM   10  C   UNL     1       6.882   2.089   1.628  1.00  0.00     0.035 A 
HETATM   11 CL   UNL     1       8.511   2.643   1.601  1.00  0.00    -0.084 Cl
HETATM   12  C   UNL     1       6.530   0.936   0.923  1.00  0.00     0.038 A 
HETATM   13  H   UNL     1       2.241   1.253   2.238  1.00  0.00     0.169 HD
ENDROOT
BRANCH   2  14
HETATM   14  N   UNL     1       3.016  -2.331  -0.408  1.00  0.00    -0.375 N 
HETATM   15  C   UNL     1       1.830  -2.218  -1.286  1.00  0.00     0.137 C 
HETATM   16  C   UNL     1       1.805  -3.379  -2.282  1.00  0.00     0.096 C 
HETATM   17  C   UNL     1       1.862  -4.731  -1.560  1.00  0.00     0.017 C 
HETATM   18  C   UNL     1       3.053  -4.778  -0.605  1.00  0.00     0.021 C 
HETATM   19  C   UNL     1       3.034  -3.592   0.357  1.00  0.00     0.123 C 
BRANCH  16  20
HETATM   20  C   UNL     1       0.590  -3.263  -3.191  1.00  0.00     0.223 C 
HETATM   21  N   UNL     1      -0.631  -3.463  -2.592  1.00  0.00    -0.358 N 
HETATM   22  H   UNL     1      -0.706  -3.437  -1.580  1.00  0.00     0.162 HD
HETATM   23  O   UNL     1       0.705  -2.999  -4.385  1.00  0.00    -0.273 OA
BRANCH  21  24
HETATM   24  C   UNL     1      -1.874  -3.228  -3.308  1.00  0.00     0.154 C 
BRANCH  24  25
HETATM   25  C   UNL     1      -3.051  -3.884  -2.588  1.00  0.00     0.139 C 
HETATM   26  O   UNL     1      -3.152  -3.374  -1.239  1.00  0.00    -0.384 OA
HETATM   27  C   UNL     1      -4.538  -3.138  -0.948  1.00  0.00     0.168 C 
HETATM   28  C   UNL     1      -5.337  -3.750  -2.079  1.00  0.00     0.029 C 
HETATM   29  C   UNL     1      -4.391  -3.605  -3.245  1.00  0.00     0.035 C 
ENDBRANCH  24  25
ENDBRANCH  21  24
ENDBRANCH  16  20
ENDBRANCH   2  14
BRANCH   1  30
HETATM   30  C   UNL     1       5.746  -1.572  -0.596  1.00  0.00    -0.023 A 
HETATM   31  C   UNL     1       5.818  -1.411  -1.986  1.00  0.00     0.012 A 
HETATM   32  C   UNL     1       6.736  -2.151  -2.733  1.00  0.00     0.001 A 
HETATM   33  C   UNL     1       7.587  -3.054  -2.097  1.00  0.00     0.000 A 
HETATM   34  C   UNL     1       7.522  -3.221  -0.714  1.00  0.00     0.001 A 
HETATM   35  C   UNL     1       6.605  -2.482   0.036  1.00  0.00     0.012 A 
ENDBRANCH   1  30
TORSDOF 5
