REMARK  6 active torsions:
REMARK  status: ('A' for Active; 'I' for Inactive)
REMARK    1  A    between atoms: C_2  and  O_3 
REMARK    2  A    between atoms: O_3  and  C_4 
REMARK    3  A    between atoms: C_4  and  C_5 
REMARK    4  A    between atoms: C_6  and  O_7 
REMARK    5  A    between atoms: C_12  and  O_13 
REMARK    6  A    between atoms: C_17  and  C_18 
ROOT
HETATM    1  C   UNL     1       1.957  -2.204  -0.726  1.00  0.00     0.133 C 
HETATM    2  C   UNL     1       2.005  -2.625   0.784  1.00  0.00     0.073 C 
HETATM    3  C   UNL     1       0.577  -2.916   1.285  1.00  0.00     0.047 C 
HETATM    4  C   UNL     1       2.921  -3.855   1.053  1.00  0.00     0.097 C 
HETATM    5  C   UNL     1       2.653  -4.897   0.040  1.00  0.00     0.042 A 
HETATM    6  C   UNL     1       2.108  -4.707  -1.212  1.00  0.00     0.030 A 
HETATM    7  C   UNL     1       1.996  -6.016  -1.711  1.00  0.00     0.190 A 
HETATM    8  N   UNL     1       2.440  -6.946  -0.874  1.00  0.00    -0.149 NA
HETATM    9  N   UNL     1       2.852  -6.238   0.191  1.00  0.00    -0.279 N 
HETATM   10  H   UNL     1       3.233  -6.743   0.985  1.00  0.00     0.189 HD
HETATM   11  C   UNL     1       1.686  -3.367  -1.730  1.00  0.00     0.074 C 
ENDROOT
BRANCH  11  12
HETATM   12  C   UNL     1       2.302  -3.220  -3.116  1.00  0.00    -0.048 A 
HETATM   13  C   UNL     1       1.503  -2.769  -4.181  1.00  0.00     0.011 A 
HETATM   14  C   UNL     1       2.041  -2.615  -5.461  1.00  0.00     0.043 A 
HETATM   15  C   UNL     1       3.382  -2.901  -5.684  1.00  0.00     0.116 A 
HETATM   16  F   UNL     1       3.894  -2.753  -6.913  1.00  0.00    -0.206 F 
HETATM   17  C   UNL     1       4.198  -3.337  -4.651  1.00  0.00     0.043 A 
HETATM   18  C   UNL     1       3.663  -3.490  -3.371  1.00  0.00     0.011 A 
ENDBRANCH  11  12
BRANCH   1  19
HETATM   19  C   UNL     1       3.191  -1.398  -1.074  1.00  0.00     0.267 C 
HETATM   20  O   UNL     1       4.319  -1.634  -0.661  1.00  0.00    -0.265 OA
BRANCH  19  21
HETATM   21  O   UNL     1       2.845  -0.344  -1.866  1.00  0.00    -0.316 OA
BRANCH  21  22
HETATM   22  C   UNL     1       3.897   0.565  -2.239  1.00  0.00     0.123 C 
HETATM   23  C   UNL     1       4.188   1.521  -1.086  1.00  0.00     0.040 C 
HETATM   24  C   UNL     1       3.400   1.336  -3.456  1.00  0.00     0.040 C 
ENDBRANCH  21  22
ENDBRANCH  19  21
ENDBRANCH   1  19
BRANCH   2  25
HETATM   25  O   UNL     1       2.457  -1.525   1.594  1.00  0.00    -0.389 OA
HETATM   26  H   UNL     1       3.418  -1.416   1.448  1.00  0.00     0.210 HD
ENDBRANCH   2  25
BRANCH   7  27
HETATM   27  O   UNL     1       1.512  -6.449  -2.877  1.00  0.00    -0.343 OA
HETATM   28  H   UNL     1       1.359  -5.695  -3.466  1.00  0.00     0.219 HD
ENDBRANCH   7  27
TORSDOF 6
