REMARK  4 active torsions:
REMARK  status: ('A' for Active; 'I' for Inactive)
REMARK    1  A    between atoms: C_6  and  N_7 
REMARK       I    between atoms: N_7  and  C_8 
REMARK    2  A    between atoms: C_8  and  C_9 
REMARK    3  A    between atoms: C_10  and  C_11 
REMARK    4  A    between atoms: C_14  and  O_15 
ROOT
HETATM    1  C   UNL     1       6.952  -2.456  -0.530  1.00  0.00     0.125 C 
HETATM    2  C   UNL     1       5.413  -2.606  -0.683  1.00  0.00     0.160 C 
HETATM    3  N   UNL     1       4.994  -3.994  -0.830  1.00  0.00    -0.231 N 
HETATM    4  C   UNL     1       5.836  -5.069  -0.819  1.00  0.00     0.200 A 
HETATM    5  N   UNL     1       7.166  -4.903  -0.677  1.00  0.00    -0.256 NA
HETATM    6  C   UNL     1       7.717  -3.637  -1.175  1.00  0.00     0.074 C 
HETATM    7  C   UNL     1       9.208  -3.604  -0.824  1.00  0.00     0.027 C 
HETATM    8  N   UNL     1       3.729  -4.367  -1.106  1.00  0.00    -0.162 NA
HETATM    9  C   UNL     1       3.871  -5.696  -1.165  1.00  0.00     0.258 A 
HETATM   10  N   UNL     1       5.146  -6.165  -0.995  1.00  0.00    -0.210 NA
HETATM   11  H   UNL     1       7.706  -5.730  -0.931  1.00  0.00     0.131 HD
ENDROOT
BRANCH   1  12
HETATM   12  C   UNL     1       7.368  -1.151  -1.194  1.00  0.00     0.230 C 
HETATM   13  N   UNL     1       7.203  -0.037  -0.389  1.00  0.00    -0.326 N 
HETATM   14  H   UNL     1       6.508  -0.107   0.347  1.00  0.00     0.169 HD
HETATM   15  O   UNL     1       7.749  -1.134  -2.361  1.00  0.00    -0.273 OA
BRANCH  13  16
HETATM   16  C   UNL     1       7.578   1.282  -0.737  1.00  0.00     0.040 A 
HETATM   17  C   UNL     1       8.765   1.632  -1.405  1.00  0.00    -0.035 A 
HETATM   18  C   UNL     1       8.983   2.984  -1.741  1.00  0.00     0.015 A 
HETATM   19  C   UNL     1       9.864   0.664  -1.748  1.00  0.00     0.050 C 
HETATM   20  C   UNL     1       8.086   3.989  -1.365  1.00  0.00    -0.061 A 
HETATM   21  C   UNL     1       8.327   5.416  -1.758  1.00  0.00     0.048 C 
HETATM   22  C   UNL     1       6.942   3.635  -0.650  1.00  0.00     0.009 A 
HETATM   23  C   UNL     1       6.700   2.298  -0.325  1.00  0.00     0.030 A 
ENDBRANCH  13  16
ENDBRANCH   1  12
BRANCH   2  24
HETATM   24  C   UNL     1       4.682  -1.968   0.499  1.00  0.00    -0.032 A 
HETATM   25  C   UNL     1       3.816  -0.886   0.295  1.00  0.00     0.012 A 
HETATM   26  C   UNL     1       3.170  -0.285   1.379  1.00  0.00     0.037 A 
HETATM   27  C   UNL     1       3.368  -0.752   2.681  1.00  0.00     0.068 A 
HETATM   28  C   UNL     1       4.217  -1.836   2.892  1.00  0.00     0.037 A 
HETATM   29  C   UNL     1       4.865  -2.442   1.810  1.00  0.00     0.012 A 
BRANCH  27  30
HETATM   30  O   UNL     1       2.679  -0.072   3.647  1.00  0.00    -0.356 OA
HETATM   31  C   UNL     1       2.819  -0.537   4.984  1.00  0.00     0.210 C 
ENDBRANCH  27  30
ENDBRANCH   2  24
TORSDOF 4
