REMARK  7 active torsions:
REMARK  status: ('A' for Active; 'I' for Inactive)
REMARK    1  A    between atoms: C_7  and  C_8 
REMARK    2  A    between atoms: C_8  and  C_9 
REMARK    3  A    between atoms: C_9  and  C_10 
REMARK    4  A    between atoms: C_10  and  O_11 
REMARK    5  A    between atoms: C_13  and  C_14 
REMARK    6  A    between atoms: C_21  and  C_22 
REMARK       I    between atoms: C_22  and  N_23 
REMARK    7  A    between atoms: N_23  and  C_24 
ROOT
HETATM    1  C   UNL     1       1.022  -0.093  -0.140  1.00  0.00     0.070 C 
HETATM    2  C   UNL     1       2.494  -0.157   0.186  1.00  0.00     0.037 A 
HETATM    3  N   UNL     1       3.151   1.067   0.243  1.00  0.00    -0.192 N 
HETATM    4  C   UNL     1       4.474   1.190   0.457  1.00  0.00     0.726 A 
HETATM    5  N   UNL     1       5.219   0.068   0.686  1.00  0.00    -0.083 N 
HETATM    6  N   UNL     1       6.537   0.357   0.742  1.00  0.00    -0.140 NA
HETATM    7  C   UNL     1       6.500   1.696   0.663  1.00  0.00     0.166 A 
HETATM    8  N   UNL     1       5.253   2.240   0.466  1.00  0.00    -0.046 NA
HETATM    9  C   UNL     1       4.670  -1.292   0.737  1.00  0.00     0.202 A 
HETATM   10  C   UNL     1       3.184  -1.306   0.400  1.00  0.00     0.062 A 
HETATM   11  H   UNL     1       2.604   1.907   0.073  1.00  0.00     0.184 HD
ENDROOT
BRANCH  10  12
HETATM   12  C   UNL     1       2.475  -2.616   0.413  1.00  0.00     0.256 C 
HETATM   13  N   UNL     1       3.067  -3.574  -0.383  1.00  0.00    -0.323 N 
HETATM   14  H   UNL     1       3.917  -3.335  -0.873  1.00  0.00     0.169 HD
HETATM   15  O   UNL     1       1.468  -2.745   1.098  1.00  0.00    -0.267 OA
BRANCH  13  16
HETATM   16  C   UNL     1       2.602  -4.888  -0.615  1.00  0.00     0.035 A 
HETATM   17  C   UNL     1       1.369  -5.371  -0.172  1.00  0.00     0.029 A 
HETATM   18  C   UNL     1       0.973  -6.680  -0.465  1.00  0.00     0.002 A 
HETATM   19  C   UNL     1       1.810  -7.521  -1.194  1.00  0.00     0.000 A 
HETATM   20  C   UNL     1       3.043  -7.052  -1.637  1.00  0.00     0.002 A 
HETATM   21  C   UNL     1       3.434  -5.740  -1.354  1.00  0.00     0.029 A 
ENDBRANCH  13  16
ENDBRANCH  10  12
BRANCH   9  22
HETATM   22  C   UNL     1       5.024  -1.936   2.075  1.00  0.00    -0.028 A 
HETATM   23  C   UNL     1       4.262  -1.708   3.234  1.00  0.00     0.011 A 
HETATM   24  C   UNL     1       4.630  -2.284   4.453  1.00  0.00     0.019 A 
HETATM   25  C   UNL     1       5.770  -3.080   4.528  1.00  0.00     0.011 A 
HETATM   26 BR   UNL     1       6.275  -3.848   6.180  1.00  0.00    -0.051 Br
HETATM   27  C   UNL     1       6.547  -3.307   3.395  1.00  0.00     0.019 A 
HETATM   28  C   UNL     1       6.176  -2.738   2.176  1.00  0.00     0.011 A 
ENDBRANCH   9  22
BRANCH   7  29
HETATM   29  C   UNL     1       7.719   2.532   0.791  1.00  0.00     0.085 C 
BRANCH  29  30
HETATM   30  C   UNL     1       7.947   3.044   2.212  1.00  0.00     0.034 C 
BRANCH  30  31
HETATM   31  C   UNL     1       8.205   1.927   3.218  1.00  0.00     0.164 C 
BRANCH  31  32
HETATM   32  O   UNL     1       8.537   2.493   4.482  1.00  0.00    -0.401 OA
HETATM   33  H   UNL     1       9.370   2.981   4.375  1.00  0.00     0.209 HD
ENDBRANCH  31  32
ENDBRANCH  30  31
ENDBRANCH  29  30
ENDBRANCH   7  29
TORSDOF 7
