REMARK  8 active torsions:
REMARK  status: ('A' for Active; 'I' for Inactive)
REMARK    1  A    between atoms: C_2  and  C_3 
REMARK    2  A    between atoms: C_3  and  C_4 
REMARK    3  A    between atoms: C_7  and  N_8 
REMARK       I    between atoms: N_8  and  C_9 
REMARK    4  A    between atoms: C_9  and  C_10 
REMARK    5  A    between atoms: C_13  and  N_14 
REMARK       I    between atoms: N_14  and  C_15 
REMARK    6  A    between atoms: C_15  and  C_16 
REMARK    7  A    between atoms: C_16  and  C_17 
REMARK    8  A    between atoms: C_19  and  N_20 
ROOT
HETATM    1  C   UNL     1       3.056   7.239   0.411  1.00  0.00     0.032 A 
HETATM    2  C   UNL     1       3.347   8.449  -0.227  1.00  0.00     0.019 A 
HETATM    3  C   UNL     1       4.546   8.608  -0.936  1.00  0.00     0.030 A 
HETATM    4  C   UNL     1       5.465   7.560  -1.038  1.00  0.00     0.034 A 
HETATM    5  C   UNL     1       5.159   6.340  -0.425  1.00  0.00     0.030 A 
HETATM    6  C   UNL     1       3.968   6.181   0.295  1.00  0.00     0.019 A 
ENDROOT
BRANCH   4   7
HETATM    7  N   UNL     1       6.687   7.645  -1.741  1.00  0.00    -0.327 N 
HETATM    8  C   UNL     1       7.238   8.774  -2.323  1.00  0.00     0.223 C 
HETATM    9  O   UNL     1       6.748   9.898  -2.319  1.00  0.00    -0.273 OA
HETATM   10  H   UNL     1       7.231   6.792  -1.783  1.00  0.00     0.169 HD
BRANCH   8  11
HETATM   11  C   UNL     1       8.540   8.480  -3.050  1.00  0.00     0.128 C 
BRANCH  11  12
HETATM   12  C   UNL     1       9.384   9.741  -3.183  1.00  0.00     0.158 C 
HETATM   13  S   UNL     1      10.543   9.944  -1.794  1.00  0.00    -0.077 SA
HETATM   14  C   UNL     1      11.768  10.535  -2.908  1.00  0.00     0.168 C 
HETATM   15  N   UNL     1      11.510  10.362  -4.163  1.00  0.00    -0.189 NA
HETATM   16  C   UNL     1      10.308   9.727  -4.386  1.00  0.00     0.260 C 
HETATM   17  O   UNL     1       9.988   9.246  -5.466  1.00  0.00    -0.270 OA
BRANCH  14  18
HETATM   18  N   UNL     1      12.871  11.188  -2.406  1.00  0.00    -0.360 N 
HETATM   19  C   UNL     1      13.572  10.770  -1.189  1.00  0.00     0.125 C 
HETATM   20  C   UNL     1      14.831   9.986  -1.568  1.00  0.00     0.020 C 
HETATM   21  C   UNL     1      15.727  10.793  -2.507  1.00  0.00     0.003 C 
HETATM   22  C   UNL     1      14.942  11.283  -3.723  1.00  0.00     0.020 C 
HETATM   23  C   UNL     1      13.683  12.030  -3.291  1.00  0.00     0.125 C 
ENDBRANCH  14  18
ENDBRANCH  11  12
ENDBRANCH   8  11
ENDBRANCH   4   7
BRANCH   1  24
HETATM   24  C   UNL     1       1.796   7.006   1.187  1.00  0.00     0.256 C 
HETATM   25  N   UNL     1       1.187   8.137   1.703  1.00  0.00    -0.323 N 
HETATM   26  H   UNL     1       1.662   9.020   1.583  1.00  0.00     0.169 HD
HETATM   27  O   UNL     1       1.417   5.849   1.328  1.00  0.00    -0.267 OA
BRANCH  25  28
HETATM   28  C   UNL     1      -0.005   8.202   2.459  1.00  0.00     0.035 A 
HETATM   29  C   UNL     1      -0.779   7.095   2.801  1.00  0.00     0.030 A 
HETATM   30  C   UNL     1      -1.942   7.245   3.569  1.00  0.00     0.010 A 
HETATM   31  C   UNL     1      -2.354   8.506   4.018  1.00  0.00    -0.054 A 
HETATM   32  C   UNL     1      -1.586   9.619   3.651  1.00  0.00     0.010 A 
HETATM   33  C   UNL     1      -0.424   9.468   2.884  1.00  0.00     0.030 A 
BRANCH  31  34
HETATM   34  C   UNL     1      -3.610   8.703   4.855  1.00  0.00     0.014 C 
HETATM   35  C   UNL     1      -3.731   7.664   5.977  1.00  0.00     0.015 C 
BRANCH  34  36
HETATM   36  C   UNL     1      -4.851   8.733   3.943  1.00  0.00     0.004 C 
HETATM   37  C   UNL     1      -6.132   9.107   4.676  1.00  0.00     0.006 C 
ENDBRANCH  34  36
ENDBRANCH  31  34
ENDBRANCH  25  28
ENDBRANCH   1  24
TORSDOF 8
