REMARK  4 active torsions:
REMARK  status: ('A' for Active; 'I' for Inactive)
REMARK    1  A    between atoms: C_7  and  C_8 
REMARK    2  A    between atoms: N_9  and  N_10 
REMARK       I    between atoms: N_10  and  C_11 
REMARK    3  A    between atoms: C_11  and  C_12 
REMARK    4  A    between atoms: C_16  and  C_17 
ROOT
HETATM    1  N   UNL     1       3.242  -4.834   0.048  1.00  0.00    -0.242 N 
HETATM    2  C   UNL     1       4.047  -5.963   0.090  1.00  0.00     0.289 C 
HETATM    3  O   UNL     1       5.273  -5.937   0.159  1.00  0.00    -0.264 OA
HETATM    4  H   UNL     1       2.237  -4.922  -0.004  1.00  0.00     0.192 HD
ENDROOT
BRANCH   1   5
HETATM    5  N   UNL     1       3.806  -3.590   0.066  1.00  0.00    -0.183 NA
HETATM    6  C   UNL     1       2.983  -2.593   0.032  1.00  0.00     0.153 C 
BRANCH   6   7
HETATM    7  C   UNL     1       3.476  -1.228   0.039  1.00  0.00     0.018 A 
HETATM    8  C   UNL     1       4.803  -0.817   0.064  1.00  0.00     0.018 A 
HETATM    9  C   UNL     1       6.071  -1.597   0.090  1.00  0.00     0.069 C 
HETATM   10  N   UNL     1       4.816   0.555   0.060  1.00  0.00    -0.358 N 
HETATM   11  H   UNL     1       5.650   1.127   0.074  1.00  0.00     0.166 HD
HETATM   12  C   UNL     1       3.536   1.053   0.033  1.00  0.00     0.043 A 
HETATM   13  C   UNL     1       2.671  -0.040   0.020  1.00  0.00     0.004 A 
HETATM   14  C   UNL     1       3.088   2.379   0.019  1.00  0.00     0.030 A 
HETATM   15  C   UNL     1       1.281   0.210  -0.007  1.00  0.00     0.014 A 
HETATM   16  C   UNL     1       0.815   1.530  -0.020  1.00  0.00     0.001 A 
HETATM   17  C   UNL     1       1.708   2.598  -0.008  1.00  0.00     0.002 A 
ENDBRANCH   6   7
ENDBRANCH   1   5
BRANCH   2  18
HETATM   18  C   UNL     1       3.332  -7.215   0.045  1.00  0.00     0.121 A 
HETATM   19  N   UNL     1       3.997  -8.407   0.092  1.00  0.00    -0.272 N 
HETATM   20  H   UNL     1       5.003  -8.538   0.161  1.00  0.00     0.189 HD
HETATM   21  N   UNL     1       3.201  -9.484   0.036  1.00  0.00    -0.174 NA
HETATM   22  C   UNL     1       1.957  -8.989  -0.052  1.00  0.00     0.089 A 
HETATM   23  C   UNL     1       1.999  -7.563  -0.048  1.00  0.00     0.071 A 
BRANCH  22  24
HETATM   24  C   UNL     1       0.784  -9.871  -0.141  1.00  0.00    -0.006 A 
HETATM   25  C   UNL     1       0.948 -11.267  -0.167  1.00  0.00     0.015 A 
HETATM   26  C   UNL     1      -0.156 -12.121  -0.254  1.00  0.00     0.024 A 
HETATM   27  C   UNL     1      -1.439 -11.587  -0.316  1.00  0.00     0.034 A 
HETATM   28 CL   UNL     1      -2.800 -12.632  -0.424  1.00  0.00    -0.084 Cl
HETATM   29  C   UNL     1      -1.625 -10.207  -0.291  1.00  0.00     0.024 A 
HETATM   30  C   UNL     1      -0.519  -9.353  -0.203  1.00  0.00     0.015 A 
ENDBRANCH  22  24
ENDBRANCH   2  18
TORSDOF 4
