REMARK  4 active torsions:
REMARK  status: ('A' for Active; 'I' for Inactive)
REMARK    1  A    between atoms: C_5  and  C_6 
REMARK    2  A    between atoms: C_8  and  O_9 
REMARK    3  A    between atoms: C_15  and  C_16 
REMARK       I    between atoms: C_16  and  N_17 
REMARK    4  A    between atoms: N_17  and  C_18 
ROOT
HETATM    1  C   UNL     1       0.738   0.189   0.033  1.00  0.00     0.071 C 
HETATM    2  C   UNL     1       2.212   0.055   0.059  1.00  0.00     0.041 A 
HETATM    3  N   UNL     1       3.063   1.129   0.097  1.00  0.00    -0.342 N 
HETATM    4  H   UNL     1       2.788   2.100   0.132  1.00  0.00     0.167 HD
HETATM    5  C   UNL     1       4.361   0.670   0.095  1.00  0.00     0.139 A 
HETATM    6  N   UNL     1       4.368  -0.651   0.110  1.00  0.00    -0.223 NA
HETATM    7  C   UNL     1       3.038  -1.054   0.054  1.00  0.00     0.149 A 
ENDROOT
BRANCH   7   8
HETATM    8  C   UNL     1       2.642  -2.468  -0.006  1.00  0.00     0.276 C 
HETATM    9  N   UNL     1       3.746  -3.293   0.065  1.00  0.00    -0.322 N 
HETATM   10  H   UNL     1       4.622  -2.791   0.188  1.00  0.00     0.169 HD
HETATM   11  O   UNL     1       1.470  -2.814  -0.103  1.00  0.00    -0.266 OA
BRANCH   9  12
HETATM   12  C   UNL     1       3.794  -4.695  -0.018  1.00  0.00     0.035 A 
HETATM   13  C   UNL     1       2.677  -5.490  -0.289  1.00  0.00     0.039 A 
HETATM   14  C   UNL     1       2.843  -6.865  -0.375  1.00  0.00    -0.024 A 
HETATM   15  C   UNL     1       4.079  -7.458  -0.182  1.00  0.00    -0.026 A 
HETATM   16  C   UNL     1       1.830  -7.914  -0.649  1.00  0.00     0.207 C 
HETATM   17  C   UNL     1       3.941  -8.930  -0.306  1.00  0.00     0.207 C 
HETATM   18  C   UNL     1       5.198  -6.696   0.098  1.00  0.00     0.012 A 
HETATM   19  O   UNL     1       2.595  -9.135  -0.795  1.00  0.00    -0.382 OA
HETATM   20  C   UNL     1       5.050  -5.307   0.171  1.00  0.00     0.030 A 
ENDBRANCH   9  12
ENDBRANCH   7   8
BRANCH   5  21
HETATM   21  C   UNL     1       5.537   1.544   0.100  1.00  0.00     0.013 A 
HETATM   22  C   UNL     1       5.497   2.844  -0.435  1.00  0.00     0.052 A 
HETATM   23  C   UNL     1       6.636   3.656  -0.423  1.00  0.00     0.069 A 
HETATM   24  C   UNL     1       7.820   3.169   0.134  1.00  0.00     0.037 A 
HETATM   25  C   UNL     1       7.878   1.879   0.657  1.00  0.00     0.004 A 
HETATM   26  C   UNL     1       6.743   1.070   0.634  1.00  0.00     0.015 A 
BRANCH  23  27
HETATM   27  O   UNL     1       6.720   4.930  -0.915  1.00  0.00    -0.356 OA
HETATM   28  C   UNL     1       5.599   5.420  -1.640  1.00  0.00     0.210 C 
ENDBRANCH  23  27
ENDBRANCH   5  21
TORSDOF 4
