REMARK  5 active torsions:
REMARK  status: ('A' for Active; 'I' for Inactive)
REMARK    1  A    between atoms: C_8  and  N_9 
REMARK       I    between atoms: N_9  and  C_10 
REMARK    2  A    between atoms: C_10  and  C_11 
REMARK    3  A    between atoms: C_11  and  N_12 
REMARK    4  A    between atoms: N_12  and  C_13 
REMARK    5  A    between atoms: C_13  and  C_14 
ROOT
HETATM    1  C   UNL     1       0.308  -1.792   0.022  1.00  0.00     0.372 C 
ENDROOT
BRANCH   1   2
HETATM    2  C   UNL     1       1.531  -2.710  -0.104  1.00  0.00     0.250 C 
HETATM    3  N   UNL     1       2.712  -2.017  -0.253  1.00  0.00    -0.322 N 
HETATM    4  H   UNL     1       2.627  -1.007  -0.199  1.00  0.00     0.169 HD
HETATM    5  O   UNL     1       1.398  -3.925  -0.005  1.00  0.00    -0.271 OA
BRANCH   3   6
HETATM    6  C   UNL     1       3.979  -2.547  -0.422  1.00  0.00     0.085 A 
HETATM    7  C   UNL     1       5.113  -1.759  -0.369  1.00  0.00     0.052 A 
HETATM    8  C   UNL     1       5.322  -0.312  -0.128  1.00  0.00     0.072 C 
HETATM    9  N   UNL     1       6.166  -2.604  -0.576  1.00  0.00    -0.280 N 
HETATM   10  H   UNL     1       7.155  -2.381  -0.598  1.00  0.00     0.189 HD
HETATM   11  N   UNL     1       5.809  -3.875  -0.773  1.00  0.00    -0.177 NA
HETATM   12  C   UNL     1       4.470  -3.861  -0.689  1.00  0.00     0.079 A 
HETATM   13  C   UNL     1       3.744  -5.136  -0.920  1.00  0.00     0.075 C 
ENDBRANCH   3   6
ENDBRANCH   1   2
BRANCH   1  14
HETATM   14  N   UNL     1       0.525  -0.500  -0.667  1.00  0.00     0.100 N 
HETATM   15  H   UNL     1       0.715  -0.697  -1.655  1.00  0.00     0.317 HD
BRANCH  14  16
HETATM   16  C   UNL     1      -0.668   0.363  -0.608  1.00  0.00     0.251 C 
HETATM   17  C   UNL     1      -1.897  -0.198  -1.341  1.00  0.00     0.048 C 
BRANCH  16  18
HETATM   18  C   UNL     1      -0.367   1.778  -1.104  1.00  0.00    -0.002 A 
HETATM   19  C   UNL     1       0.180   2.091  -2.370  1.00  0.00     0.064 A 
HETATM   20 CL   UNL     1       0.632   0.831  -3.480  1.00  0.00    -0.082 Cl
HETATM   21  C   UNL     1       0.355   3.437  -2.746  1.00  0.00     0.056 A 
HETATM   22 CL   UNL     1       1.015   3.900  -4.280  1.00  0.00    -0.083 Cl
HETATM   23  C   UNL     1      -0.013   4.470  -1.881  1.00  0.00     0.026 A 
HETATM   24  C   UNL     1      -0.551   4.175  -0.635  1.00  0.00     0.002 A 
HETATM   25  C   UNL     1      -0.725   2.846  -0.251  1.00  0.00     0.011 A 
ENDBRANCH  16  18
ENDBRANCH  14  16
ENDBRANCH   1  14
TORSDOF 5
