REMARK  7 active torsions:
REMARK  status: ('A' for Active; 'I' for Inactive)
REMARK    1  A    between atoms: C_2  and  C_3 
REMARK    2  A    between atoms: C_7  and  N_8 
REMARK    3  A    between atoms: C_10  and  C_11 
REMARK    4  A    between atoms: C_17  and  N_18 
REMARK       I    between atoms: N_18  and  C_19 
REMARK    5  A    between atoms: C_19  and  C_20 
REMARK    6  A    between atoms: C_20  and  O_21 
REMARK    7  A    between atoms: O_21  and  C_22 
ROOT
HETATM    1  N   UNL     1       4.478  -1.259  -5.089  1.00  0.00    -0.044 N 
HETATM    2  N   UNL     1       4.867  -0.227  -5.897  1.00  0.00    -0.148 NA
HETATM    3  C   UNL     1       5.190  -0.814  -7.054  1.00  0.00     0.115 A 
HETATM    4  C   UNL     1       5.001  -2.209  -7.015  1.00  0.00     0.087 A 
HETATM    5  C   UNL     1       4.602  -2.488  -5.729  1.00  0.00     0.152 A 
ENDROOT
BRANCH   5   6
HETATM    6  N   UNL     1       4.270  -3.769  -5.318  1.00  0.00    -0.309 N 
HETATM    7  C   UNL     1       4.585  -4.367  -4.052  1.00  0.00     0.247 C 
HETATM    8  O   UNL     1       3.902  -5.338  -3.756  1.00  0.00    -0.271 OA
HETATM    9  H   UNL     1       3.795  -4.387  -5.966  1.00  0.00     0.170 HD
BRANCH   7  10
HETATM   10  C   UNL     1       5.816  -3.929  -3.281  1.00  0.00     0.278 C 
BRANCH  10  11
HETATM   11  O   UNL     1       6.945  -4.187  -4.113  1.00  0.00    -0.342 OA
BRANCH  11  12
HETATM   12  C   UNL     1       8.177  -4.084  -3.526  1.00  0.00     0.070 A 
HETATM   13  C   UNL     1       9.240  -4.543  -4.309  1.00  0.00     0.049 A 
HETATM   14  C   UNL     1      10.564  -4.501  -3.837  1.00  0.00    -0.023 A 
HETATM   15  C   UNL     1      10.819  -3.980  -2.550  1.00  0.00    -0.026 A 
HETATM   16  C   UNL     1      11.638  -4.966  -4.614  1.00  0.00     0.012 A 
HETATM   17  C   UNL     1       9.746  -3.517  -1.775  1.00  0.00     0.015 A 
HETATM   18  C   UNL     1      12.140  -3.936  -2.074  1.00  0.00     0.012 A 
HETATM   19  C   UNL     1       8.434  -3.566  -2.258  1.00  0.00     0.037 A 
HETATM   20  C   UNL     1      13.196  -4.401  -2.858  1.00  0.00     0.001 A 
HETATM   21  C   UNL     1      12.945  -4.916  -4.127  1.00  0.00     0.001 A 
ENDBRANCH  11  12
ENDBRANCH  10  11
ENDBRANCH   7  10
ENDBRANCH   5   6
BRANCH   1  22
HETATM   22  C   UNL     1       3.938  -0.956  -3.825  1.00  0.00     0.732 A 
HETATM   23  N   UNL     1       3.879   0.389  -3.611  1.00  0.00    -0.152 N 
HETATM   24  C   UNL     1       3.333   0.908  -2.482  1.00  0.00     0.268 A 
HETATM   25  H   UNL     1       4.169   1.032  -4.342  1.00  0.00     0.188 HD
HETATM   26  C   UNL     1       2.928  -0.091  -1.453  1.00  0.00     0.035 A 
HETATM   27  O   UNL     1       3.188   2.114  -2.331  1.00  0.00    -0.267 OA
HETATM   28  C   UNL     1       3.065  -1.398  -1.768  1.00  0.00     0.061 A 
HETATM   29  N   UNL     1       3.549  -1.853  -2.981  1.00  0.00    -0.067 NA
HETATM   30  C   UNL     1       2.694  -2.514  -0.823  1.00  0.00     0.072 C 
BRANCH  26  31
HETATM   31  C   UNL     1       2.448   0.480  -0.143  1.00  0.00     0.042 C 
HETATM   32  C   UNL     1       0.949   0.738  -0.144  1.00  0.00     0.010 C 
ENDBRANCH  26  31
ENDBRANCH   1  22
BRANCH   3  33
HETATM   33  C   UNL     1       5.691  -0.053  -8.234  1.00  0.00     0.105 A 
HETATM   34  O   UNL     1       6.105  -0.632  -9.402  1.00  0.00    -0.320 OA
HETATM   35  C   UNL     1       6.512   0.368 -10.225  1.00  0.00     0.142 A 
HETATM   36  C   UNL     1       6.350   1.589  -9.616  1.00  0.00     0.027 A 
HETATM   37  C   UNL     1       5.823   1.319  -8.330  1.00  0.00     0.041 A 
ENDBRANCH   3  33
TORSDOF 7
