REMARK  7 active torsions:
REMARK  status: ('A' for Active; 'I' for Inactive)
REMARK    1  A    between atoms: C_2  and  C_3 
REMARK    2  A    between atoms: C_8  and  N_9 
REMARK    3  A    between atoms: N_9  and  C_10 
REMARK    4  A    between atoms: C_10  and  C_11 
REMARK       I    between atoms: C_11  and  N_12 
REMARK    5  A    between atoms: N_12  and  C_13 
REMARK    6  A    between atoms: C_24  and  N_25 
REMARK    7  A    between atoms: N_25  and  C_26 
ROOT
HETATM    1  N   UNL     1       1.224   2.154   0.792  1.00  0.00    -0.282 NA
HETATM    2  H   UNL     1       1.799   2.287  -0.043  1.00  0.00     0.128 HD
ENDROOT
BRANCH   1   3
HETATM    3  C   UNL     1       0.430   0.999   0.547  1.00  0.00     0.036 A 
HETATM    4  C   UNL     1      -0.961   1.038   0.379  1.00  0.00     0.042 A 
HETATM    5  C   UNL     1      -1.695  -0.129   0.113  1.00  0.00     0.049 A 
HETATM    6  C   UNL     1      -1.014  -1.345   0.009  1.00  0.00     0.018 A 
HETATM    7  C   UNL     1       0.373  -1.399   0.171  1.00  0.00     0.032 A 
HETATM    8  C   UNL     1       1.118  -0.246   0.428  1.00  0.00     0.049 A 
BRANCH   5   9
HETATM    9  C   UNL     1      -3.191  -0.051  -0.061  1.00  0.00     0.417 C 
HETATM   10  F   UNL     1      -3.784  -1.264  -0.238  1.00  0.00    -0.166 F 
HETATM   11  F   UNL     1      -3.814   0.518   1.007  1.00  0.00    -0.166 F 
HETATM   12  F   UNL     1      -3.545   0.698  -1.142  1.00  0.00    -0.166 F 
ENDBRANCH   5   9
BRANCH   8  13
HETATM   13  N   UNL     1       2.494  -0.258   0.676  1.00  0.00    -0.384 N 
HETATM   14  H   UNL     1       2.826   0.696   0.810  1.00  0.00     0.160 HD
BRANCH  13  15
HETATM   15  C   UNL     1       3.483  -1.128   0.036  1.00  0.00     0.081 C 
HETATM   16  C   UNL     1       3.269  -1.308  -1.471  1.00  0.00     0.025 C 
HETATM   17  C   UNL     1       4.364  -2.180  -2.085  1.00  0.00     0.002 C 
HETATM   18  C   UNL     1       4.494  -3.515  -1.355  1.00  0.00     0.000 C 
HETATM   19  C   UNL     1       4.736  -3.319   0.140  1.00  0.00     0.002 C 
HETATM   20  C   UNL     1       3.651  -2.456   0.782  1.00  0.00     0.025 C 
ENDBRANCH  13  15
ENDBRANCH   8  13
ENDBRANCH   1   3
BRANCH   1  21
HETATM   21  C   UNL     1       0.568   3.434   1.146  1.00  0.00     0.195 C 
BRANCH  21  22
HETATM   22  C   UNL     1      -0.097   3.414   2.533  1.00  0.00     0.235 C 
HETATM   23  N   UNL     1       0.383   2.402   3.343  1.00  0.00    -0.326 N 
HETATM   24  H   UNL     1       1.068   1.803   2.884  1.00  0.00     0.169 HD
HETATM   25  O   UNL     1      -0.932   4.262   2.837  1.00  0.00    -0.272 OA
BRANCH  23  26
HETATM   26  C   UNL     1      -0.044   2.034   4.630  1.00  0.00     0.037 A 
HETATM   27  C   UNL     1      -1.065   2.697   5.322  1.00  0.00     0.061 A 
HETATM   28  C   UNL     1      -1.399   2.205   6.563  1.00  0.00     0.065 A 
HETATM   29  C   UNL     1      -0.759   1.107   7.131  1.00  0.00     0.063 A 
HETATM   30  N   UNL     1      -2.373   2.640   7.457  1.00  0.00    -0.306 N 
HETATM   31  N   UNL     1      -1.334   0.868   8.373  1.00  0.00    -0.307 N 
HETATM   32  C   UNL     1       0.251   0.439   6.486  1.00  0.00     0.034 A 
HETATM   33  C   UNL     1      -2.347   1.815   8.589  1.00  0.00     0.325 A 
HETATM   34  H   UNL     1      -1.099   0.142   9.028  1.00  0.00     0.170 HD
HETATM   35  O   UNL     1      -3.064   1.898   9.570  1.00  0.00    -0.247 OA
HETATM   36  C   UNL     1       0.604   0.914   5.216  1.00  0.00     0.032 A 
HETATM   37  H   UNL     1      -3.012   3.408   7.332  1.00  0.00     0.170 HD
ENDBRANCH  23  26
ENDBRANCH  21  22
ENDBRANCH   1  21
TORSDOF 7
