REMARK  7 active torsions:
REMARK  status: ('A' for Active; 'I' for Inactive)
REMARK    1  A    between atoms: O_2  and  C_3 
REMARK    2  A    between atoms: N_7  and  C_9 
REMARK    3  A    between atoms: C_9  and  C_10 
REMARK    4  A    between atoms: C_11  and  O_12 
REMARK    5  A    between atoms: C_22  and  N_23 
REMARK       I    between atoms: N_23  and  C_24 
REMARK    6  A    between atoms: C_24  and  C_25 
REMARK    7  A    between atoms: C_25  and  C_26 
ROOT
HETATM    1  C   UNL     1       2.920   1.312   0.483  1.00  0.00     0.161 C 
HETATM    2  C   UNL     1       2.333   2.767   0.291  1.00  0.00     0.019 C 
HETATM    3  C   UNL     1       2.584   3.623   1.556  1.00  0.00     0.045 C 
HETATM    4  C   UNL     1       1.651   3.258   2.709  1.00  0.00     0.236 C 
HETATM    5  N   UNL     1       0.213   3.292   2.268  1.00  0.00    -0.067 N 
HETATM    6  H   UNL     1      -0.348   2.915   3.051  1.00  0.00     0.280 HD
HETATM    7  C   UNL     1      -0.044   2.373   1.104  1.00  0.00     0.236 C 
HETATM    8  C   UNL     1       0.830   2.780  -0.071  1.00  0.00     0.045 C 
HETATM    9  C   UNL     1       3.160   3.297  -0.861  1.00  0.00    -0.038 A 
HETATM   10  C   UNL     1       4.227   2.451  -1.168  1.00  0.00    -0.026 A 
HETATM   11  C   UNL     1       4.306   1.271  -0.244  1.00  0.00     0.148 C 
HETATM   12  C   UNL     1       2.977   4.478  -1.576  1.00  0.00     0.009 A 
HETATM   13  C   UNL     1       3.863   4.790  -2.610  1.00  0.00     0.001 A 
HETATM   14  C   UNL     1       4.922   3.930  -2.922  1.00  0.00     0.001 A 
HETATM   15  C   UNL     1       5.111   2.754  -2.198  1.00  0.00     0.010 A 
ENDROOT
BRANCH   1  16
HETATM   16  O   UNL     1       1.995   0.351  -0.062  1.00  0.00    -0.387 OA
HETATM   17  C   UNL     1       2.280  -0.991   0.332  1.00  0.00     0.202 C 
ENDBRANCH   1  16
BRANCH  11  18
HETATM   18  N   UNL     1       5.454   1.416   0.633  1.00  0.00    -0.350 N 
HETATM   19  C   UNL     1       5.772   0.466   1.580  1.00  0.00     0.223 C 
HETATM   20  O   UNL     1       4.987  -0.418   1.917  1.00  0.00    -0.273 OA
HETATM   21  H   UNL     1       6.185   2.054   0.338  1.00  0.00     0.163 HD
BRANCH  19  22
HETATM   22  C   UNL     1       7.161   0.611   2.176  1.00  0.00     0.148 C 
BRANCH  22  23
HETATM   23  C   UNL     1       7.120   1.427   3.430  1.00  0.00    -0.009 A 
HETATM   24  S   UNL     1       6.925   3.130   3.358  1.00  0.00    -0.106 SA
HETATM   25  C   UNL     1       7.064   3.282   5.055  1.00  0.00     0.050 A 
HETATM   26  C   UNL     1       7.249   2.063   5.669  1.00  0.00     0.008 A 
HETATM   27  C   UNL     1       7.277   0.992   4.731  1.00  0.00     0.015 A 
ENDBRANCH  22  23
ENDBRANCH  19  22
ENDBRANCH  11  18
BRANCH   5  28
HETATM   28  C   UNL     1      -0.372   4.678   2.089  1.00  0.00     0.276 C 
BRANCH  28  29
HETATM   29  C   UNL     1      -0.509   5.441   3.378  1.00  0.00     0.002 A 
HETATM   30  C   UNL     1      -1.313   4.954   4.416  1.00  0.00     0.073 A 
HETATM   31  C   UNL     1      -1.475   5.665   5.603  1.00  0.00     0.039 A 
HETATM   32  C   UNL     1      -0.813   6.883   5.768  1.00  0.00     0.026 A 
HETATM   33  C   UNL     1      -0.002   7.376   4.749  1.00  0.00     0.034 A 
HETATM   34 CL   UNL     1       0.826   8.868   4.958  1.00  0.00    -0.084 Cl
HETATM   35  C   UNL     1       0.150   6.667   3.556  1.00  0.00     0.035 A 
BRANCH  30  36
HETATM   36  O   UNL     1      -1.918   3.739   4.243  1.00  0.00    -0.360 OA
HETATM   37  H   UNL     1      -2.572   3.622   4.962  1.00  0.00     0.217 HD
ENDBRANCH  30  36
ENDBRANCH  28  29
ENDBRANCH   5  28
TORSDOF 7
