REMARK  2 active torsions:
REMARK  status: ('A' for Active; 'I' for Inactive)
REMARK    1  A    between atoms: C_2  and  C_3 
REMARK    2  A    between atoms: C_7  and  C_8 
REMARK       I    between atoms: C_8  and  N_9 
ROOT
HETATM    1  C   UNL     1       4.045  -0.819  -4.881  1.00  0.00     0.271 C 
HETATM    2  N   UNL     1       4.334  -2.098  -4.369  1.00  0.00    -0.346 N 
HETATM    3  C   UNL     1       5.722  -2.324  -3.972  1.00  0.00     0.130 C 
HETATM    4  C   UNL     1       5.860  -3.508  -3.024  1.00  0.00     0.068 C 
HETATM    5  C   UNL     1       5.183  -4.780  -3.561  1.00  0.00     0.094 C 
HETATM    6  N   UNL     1       5.192  -5.787  -2.521  1.00  0.00    -0.334 N 
HETATM    7  C   UNL     1       4.956  -7.112  -2.772  1.00  0.00     0.255 C 
HETATM    8  O   UNL     1       4.581  -7.872  -1.888  1.00  0.00    -0.268 OA
HETATM    9  C   UNL     1       5.197  -7.564  -4.155  1.00  0.00     0.053 A 
HETATM   10  C   UNL     1       5.695  -6.626  -5.068  1.00  0.00     0.026 A 
HETATM   11  N   UNL     1       5.968  -5.307  -4.677  1.00  0.00    -0.265 NA
HETATM   12  C   UNL     1       4.961  -8.892  -4.524  1.00  0.00     0.019 A 
HETATM   13  C   UNL     1       5.252  -9.303  -5.823  1.00  0.00     0.001 A 
HETATM   14  C   UNL     1       5.794  -8.394  -6.732  1.00  0.00     0.002 A 
HETATM   15  C   UNL     1       6.029  -7.068  -6.352  1.00  0.00     0.024 A 
HETATM   16  C   UNL     1       3.736  -4.463  -3.984  1.00  0.00     0.068 C 
HETATM   17  C   UNL     1       3.661  -3.273  -4.927  1.00  0.00     0.130 C 
HETATM   18  O   UNL     1       4.935   0.001  -5.099  1.00  0.00    -0.266 OA
HETATM   19  H   UNL     1       4.944  -5.516  -1.579  1.00  0.00     0.164 HD
HETATM   20  H   UNL     1       6.067  -4.680  -5.469  1.00  0.00     0.130 HD
ENDROOT
BRANCH   1  21
HETATM   21  C   UNL     1       2.658  -0.505  -5.106  1.00  0.00     0.119 A 
HETATM   22  N   UNL     1       1.624  -0.883  -4.297  1.00  0.00    -0.273 N 
HETATM   23  N   UNL     1       0.418  -0.496  -4.732  1.00  0.00    -0.178 NA
HETATM   24  H   UNL     1       1.676  -1.425  -3.441  1.00  0.00     0.189 HD
HETATM   25  C   UNL     1       0.679   0.247  -5.819  1.00  0.00     0.064 A 
HETATM   26  C   UNL     1       2.075   0.291  -6.070  1.00  0.00     0.066 A 
BRANCH  25  27
HETATM   27  C   UNL     1      -0.458   0.901  -6.587  1.00  0.00    -0.005 C 
HETATM   28  C   UNL     1      -1.176   1.930  -5.691  1.00  0.00     0.021 C 
HETATM   29  C   UNL     1      -1.477  -0.166  -7.041  1.00  0.00     0.021 C 
HETATM   30  C   UNL     1       0.048   1.635  -7.846  1.00  0.00     0.021 C 
ENDBRANCH  25  27
ENDBRANCH   1  21
TORSDOF 2
