REMARK  6 active torsions:
REMARK  status: ('A' for Active; 'I' for Inactive)
REMARK    1  A    between atoms: C_2  and  C_3 
REMARK    2  A    between atoms: C_3  and  O_4 
REMARK    3  A    between atoms: O_4  and  C_5 
REMARK    4  A    between atoms: C_9  and  C_10 
REMARK       I    between atoms: C_10  and  N_11 
REMARK    5  A    between atoms: N_11  and  C_12 
REMARK    6  A    between atoms: C_25  and  O_26 
ROOT
HETATM    1  C   UNL     1       3.775   5.500   5.187  1.00  0.00     0.256 C 
HETATM    2  N   UNL     1       3.144   5.451   6.420  1.00  0.00    -0.323 N 
HETATM    3  O   UNL     1       4.584   6.348   4.827  1.00  0.00    -0.267 OA
HETATM    4  H   UNL     1       2.429   4.745   6.547  1.00  0.00     0.169 HD
ENDROOT
BRANCH   1   5
HETATM    5  C   UNL     1       3.397   4.432   4.216  1.00  0.00     0.036 A 
HETATM    6  C   UNL     1       3.505   4.712   2.849  1.00  0.00     0.044 A 
HETATM    7  C   UNL     1       3.154   3.749   1.896  1.00  0.00     0.071 A 
HETATM    8  C   UNL     1       2.677   2.493   2.300  1.00  0.00     0.123 A 
HETATM    9 CL   UNL     1       3.389   4.168   0.237  1.00  0.00    -0.081 Cl
HETATM   10  C   UNL     1       2.662   2.190   3.671  1.00  0.00     0.104 A 
HETATM   11  C   UNL     1       2.991   3.159   4.624  1.00  0.00     0.056 A 
BRANCH   8  12
HETATM   12  O   UNL     1       2.272   1.519   1.424  1.00  0.00    -0.346 OA
BRANCH  12  13
HETATM   13  C   UNL     1       1.146   1.901   0.621  1.00  0.00     0.179 C 
BRANCH  13  14
HETATM   14  C   UNL     1       0.147   0.741   0.486  1.00  0.00     0.002 C 
HETATM   15  C   UNL     1      -0.520   0.416   1.822  1.00  0.00     0.011 C 
HETATM   16  C   UNL     1       0.806  -0.510  -0.095  1.00  0.00     0.011 C 
ENDBRANCH  13  14
ENDBRANCH  12  13
ENDBRANCH   8  12
BRANCH  10  17
HETATM   17  O   UNL     1       2.276   0.979   4.189  1.00  0.00    -0.353 OA
HETATM   18  C   UNL     1       3.059  -0.108   3.689  1.00  0.00     0.210 C 
ENDBRANCH  10  17
ENDBRANCH   1   5
BRANCH   2  19
HETATM   19  C   UNL     1       3.337   6.329   7.508  1.00  0.00     0.035 A 
HETATM   20  C   UNL     1       4.237   7.398   7.488  1.00  0.00     0.039 A 
HETATM   21  C   UNL     1       4.347   8.206   8.611  1.00  0.00    -0.022 A 
HETATM   22  C   UNL     1       3.581   7.971   9.754  1.00  0.00    -0.025 A 
HETATM   23  C   UNL     1       5.204   9.412   8.789  1.00  0.00     0.274 C 
HETATM   24  C   UNL     1       3.870   9.001  10.792  1.00  0.00     0.273 C 
HETATM   25  C   UNL     1       2.682   6.920   9.797  1.00  0.00     0.012 A 
HETATM   26  N   UNL     1       5.110   9.723  10.278  1.00  0.00    -0.067 N 
HETATM   27  H   UNL     1       5.912   9.249  10.710  1.00  0.00     0.280 HD
HETATM   28  C   UNL     1       5.173  11.169  10.612  1.00  0.00     0.270 C 
HETATM   29  C   UNL     1       2.567   6.099   8.667  1.00  0.00     0.030 A 
ENDBRANCH   2  19
TORSDOF 6
