REMARK  4 active torsions:
REMARK  status: ('A' for Active; 'I' for Inactive)
REMARK    1  A    between atoms: N_8  and  C_10 
REMARK    2  A    between atoms: C_10  and  C_11 
REMARK    3  A    between atoms: C_14  and  C_15 
REMARK    4  A    between atoms: C_22  and  C_23 
ROOT
HETATM    1  C   UNL     1       0.931  -0.101   0.000  1.00  0.00     0.269 C 
HETATM    2  N   UNL     1       2.443  -0.104  -0.094  1.00  0.00    -0.073 N 
HETATM    3  H   UNL     1       2.770  -0.420   0.828  1.00  0.00     0.279 HD
HETATM    4  C   UNL     1       2.980   1.277  -0.355  1.00  0.00     0.244 C 
HETATM    5  C   UNL     1       4.532   1.299  -0.336  1.00  0.00    -0.013 C 
HETATM    6  C   UNL     1       4.993   2.699  -0.841  1.00  0.00     0.039 C 
HETATM    7  C   UNL     1       6.495   2.952  -0.704  1.00  0.00     0.236 C 
HETATM    8  N   UNL     1       6.944   2.728   0.714  1.00  0.00    -0.064 N 
HETATM    9  H   UNL     1       7.978   2.765   0.671  1.00  0.00     0.280 HD
HETATM   10  C   UNL     1       6.576   1.378   1.252  1.00  0.00     0.236 C 
HETATM   11  C   UNL     1       5.069   1.142   1.114  1.00  0.00     0.039 C 
HETATM   12  C   UNL     1       5.054   0.202  -1.311  1.00  0.00     0.022 C 
HETATM   13  C   UNL     1       4.447  -1.216  -1.132  1.00  0.00     0.045 C 
HETATM   14  C   UNL     1       2.910  -1.114  -1.128  1.00  0.00     0.243 C 
ENDROOT
BRANCH  13  15
HETATM   15  C   UNL     1       5.088  -2.004   0.007  1.00  0.00    -0.052 A 
HETATM   16  C   UNL     1       4.365  -2.607   1.049  1.00  0.00     0.007 A 
HETATM   17  C   UNL     1       5.017  -3.315   2.064  1.00  0.00     0.001 A 
HETATM   18  C   UNL     1       6.400  -3.459   2.044  1.00  0.00     0.000 A 
HETATM   19  C   UNL     1       7.133  -2.914   0.997  1.00  0.00     0.001 A 
HETATM   20  C   UNL     1       6.483  -2.206  -0.015  1.00  0.00     0.007 A 
ENDBRANCH  13  15
BRANCH   8  21
HETATM   21  C   UNL     1       6.645   3.893   1.672  1.00  0.00     0.317 C 
BRANCH  21  22
HETATM   22  C   UNL     1       7.387   5.138   1.328  1.00  0.00     0.181 A 
HETATM   23  N   UNL     1       6.859   6.355   1.456  1.00  0.00    -0.109 NA
HETATM   24  O   UNL     1       7.874   7.187   0.973  1.00  0.00    -0.196 OA
HETATM   25  C   UNL     1       8.900   6.371   0.572  1.00  0.00     0.177 A 
HETATM   26  N   UNL     1       8.628   5.089   0.746  1.00  0.00    -0.207 NA
BRANCH  25  27
HETATM   27  C   UNL     1      10.190   6.910  -0.024  1.00  0.00     0.065 A 
HETATM   28  C   UNL     1      11.487   6.183   0.270  1.00  0.00     0.013 A 
HETATM   29  C   UNL     1      10.894   6.099  -1.094  1.00  0.00     0.013 A 
ENDBRANCH  25  27
ENDBRANCH  21  22
ENDBRANCH   8  21
TORSDOF 4
