REMARK  9 active torsions:
REMARK  status: ('A' for Active; 'I' for Inactive)
REMARK    1  A    between atoms: C_4  and  O_5 
REMARK    2  A    between atoms: O_5  and  C_6 
REMARK    3  A    between atoms: C_6  and  C_7 
REMARK       I    between atoms: C_7  and  N_8 
REMARK    4  A    between atoms: N_8  and  C_9 
REMARK    5  A    between atoms: C_9  and  N_10 
REMARK    6  A    between atoms: N_10  and  C_11 
REMARK    7  A    between atoms: C_14  and  N_15 
REMARK    8  A    between atoms: N_18  and  C_20 
REMARK    9  A    between atoms: C_20  and  C_21 
ROOT
HETATM    1  C   UNL     1       6.139   2.443  -1.367  1.00  0.00     0.034 A 
HETATM    2  C   UNL     1       7.266   2.525  -2.178  1.00  0.00     0.032 A 
HETATM    3  C   UNL     1       8.210   1.487  -2.203  1.00  0.00     0.031 A 
HETATM    4  C   UNL     1       8.040   0.323  -1.449  1.00  0.00     0.030 A 
HETATM    5  C   UNL     1       6.923   0.279  -0.600  1.00  0.00     0.031 A 
HETATM    6  C   UNL     1       5.998   1.329  -0.541  1.00  0.00     0.032 A 
ENDROOT
BRANCH   1   7
HETATM    7  N   UNL     1       5.166   3.455  -1.271  1.00  0.00    -0.333 N 
HETATM    8  H   UNL     1       4.598   3.433  -0.422  1.00  0.00     0.168 HD
BRANCH   7   9
HETATM    9  C   UNL     1       4.754   4.401  -2.182  1.00  0.00     0.178 C 
HETATM   10  S   UNL     1       5.072   4.471  -3.823  1.00  0.00    -0.040 SA
BRANCH   9  11
HETATM   11  N   UNL     1       3.945   5.395  -1.663  1.00  0.00    -0.302 N 
HETATM   12  C   UNL     1       3.540   5.598  -0.349  1.00  0.00     0.248 C 
HETATM   13  O   UNL     1       3.741   4.795   0.561  1.00  0.00    -0.271 OA
HETATM   14  H   UNL     1       3.620   6.073  -2.345  1.00  0.00     0.171 HD
BRANCH  12  15
HETATM   15  C   UNL     1       2.836   6.934  -0.142  1.00  0.00     0.278 C 
BRANCH  15  16
HETATM   16  O   UNL     1       1.797   7.136  -1.090  1.00  0.00    -0.342 OA
BRANCH  16  17
HETATM   17  C   UNL     1       0.561   6.630  -0.788  1.00  0.00     0.070 A 
HETATM   18  C   UNL     1       0.261   5.765   0.267  1.00  0.00     0.043 A 
HETATM   19  C   UNL     1      -1.055   5.330   0.481  1.00  0.00    -0.059 A 
HETATM   20  C   UNL     1      -1.370   4.385   1.604  1.00  0.00     0.048 C 
HETATM   21  C   UNL     1      -2.065   5.743  -0.396  1.00  0.00     0.013 A 
HETATM   22  C   UNL     1      -1.779   6.606  -1.459  1.00  0.00    -0.059 A 
HETATM   23  C   UNL     1      -0.460   7.035  -1.652  1.00  0.00     0.043 A 
HETATM   24  C   UNL     1      -2.871   7.026  -2.399  1.00  0.00     0.048 C 
ENDBRANCH  16  17
ENDBRANCH  15  16
ENDBRANCH  12  15
ENDBRANCH   9  11
ENDBRANCH   7   9
ENDBRANCH   1   7
BRANCH   4  25
HETATM   25  N   UNL     1       8.918  -0.763  -1.484  1.00  0.00    -0.378 N 
HETATM   26  C   UNL     1      10.320  -0.572  -1.894  1.00  0.00     0.150 C 
HETATM   27  C   UNL     1      10.524  -0.780  -3.410  1.00  0.00     0.255 C 
HETATM   28  N   UNL     1       9.909  -2.098  -3.875  1.00  0.00    -0.064 N 
HETATM   29  H   UNL     1      10.412  -2.857  -3.395  1.00  0.00     0.280 HD
HETATM   30  C   UNL     1       8.444  -2.207  -3.449  1.00  0.00     0.255 C 
HETATM   31  C   UNL     1       8.318  -2.041  -1.920  1.00  0.00     0.150 C 
BRANCH  28  32
HETATM   32  C   UNL     1      10.080  -2.335  -5.357  1.00  0.00     0.275 C 
BRANCH  32  33
HETATM   33  C   UNL     1      11.515  -2.500  -5.782  1.00  0.00    -0.011 A 
HETATM   34  C   UNL     1      12.298  -3.586  -5.354  1.00  0.00     0.042 A 
HETATM   35 CL   UNL     1      11.654  -4.785  -4.288  1.00  0.00    -0.084 Cl
HETATM   36  C   UNL     1      13.630  -3.711  -5.754  1.00  0.00     0.024 A 
HETATM   37  C   UNL     1      14.198  -2.751  -6.589  1.00  0.00     0.002 A 
HETATM   38  C   UNL     1      13.437  -1.669  -7.024  1.00  0.00     0.001 A 
HETATM   39  C   UNL     1      12.104  -1.543  -6.627  1.00  0.00     0.010 A 
ENDBRANCH  32  33
ENDBRANCH  28  32
ENDBRANCH   4  25
TORSDOF 9
