REMARK  5 active torsions:
REMARK  status: ('A' for Active; 'I' for Inactive)
REMARK    1  A    between atoms: O_2  and  C_3 
REMARK    2  A    between atoms: C_5  and  C_6 
REMARK       I    between atoms: C_6  and  N_7 
REMARK    3  A    between atoms: N_7  and  C_8 
REMARK    4  A    between atoms: C_8  and  C_9 
REMARK       I    between atoms: C_9  and  N_10 
REMARK    5  A    between atoms: N_10  and  N_11 
ROOT
HETATM    1  C   UNL     1       5.237  -2.752  -7.326  1.00  0.00     0.255 C 
HETATM    2  N   UNL     1       6.185  -2.047  -8.050  1.00  0.00    -0.245 N 
HETATM    3  O   UNL     1       4.669  -3.771  -7.723  1.00  0.00    -0.270 OA
HETATM    4  H   UNL     1       6.715  -1.290  -7.606  1.00  0.00     0.192 HD
ENDROOT
BRANCH   1   5
HETATM    5  C   UNL     1       5.030  -2.253  -5.898  1.00  0.00     0.227 C 
BRANCH   5   6
HETATM    6  N   UNL     1       4.985  -0.806  -5.751  1.00  0.00    -0.348 N 
HETATM    7  C   UNL     1       6.092  -0.083  -5.370  1.00  0.00     0.252 C 
HETATM    8  O   UNL     1       7.203  -0.595  -5.291  1.00  0.00    -0.268 OA
HETATM    9  H   UNL     1       4.128  -0.337  -6.009  1.00  0.00     0.163 HD
BRANCH   7  10
HETATM   10  C   UNL     1       5.889   1.362  -5.061  1.00  0.00     0.034 A 
HETATM   11  C   UNL     1       7.011   2.200  -5.040  1.00  0.00     0.053 A 
HETATM   12  C   UNL     1       6.891   3.545  -4.678  1.00  0.00     0.069 A 
HETATM   13  C   UNL     1       5.634   4.064  -4.366  1.00  0.00     0.037 A 
HETATM   14  C   UNL     1       4.509   3.236  -4.386  1.00  0.00     0.004 A 
HETATM   15  C   UNL     1       4.635   1.886  -4.721  1.00  0.00     0.017 A 
BRANCH  12  16
HETATM   16  O   UNL     1       8.063   4.251  -4.675  1.00  0.00    -0.356 OA
HETATM   17  C   UNL     1       8.061   5.474  -3.948  1.00  0.00     0.210 C 
ENDBRANCH  12  16
ENDBRANCH   7  10
ENDBRANCH   5   6
ENDBRANCH   1   5
BRANCH   2  18
HETATM   18  N   UNL     1       6.519  -2.479  -9.300  1.00  0.00    -0.166 NA
HETATM   19  C   UNL     1       7.433  -1.827  -9.939  1.00  0.00     0.157 A 
HETATM   20  C   UNL     1       8.206  -0.576  -9.519  1.00  0.00     0.277 A 
HETATM   21  C   UNL     1       7.932  -2.180 -11.263  1.00  0.00     0.028 A 
HETATM   22  O   UNL     1       8.036   0.038  -8.488  1.00  0.00    -0.266 OA
HETATM   23  N   UNL     1       9.077  -0.315 -10.557  1.00  0.00    -0.321 N 
HETATM   24  C   UNL     1       8.917  -1.246 -11.580  1.00  0.00     0.048 A 
HETATM   25  H   UNL     1       9.721   0.463 -10.555  1.00  0.00     0.169 HD
HETATM   26  C   UNL     1       9.595  -1.305 -12.779  1.00  0.00     0.032 A 
HETATM   27  C   UNL     1       9.252  -2.339 -13.662  1.00  0.00     0.021 A 
HETATM   28  C   UNL     1       8.252  -3.276 -13.326  1.00  0.00     0.012 A 
HETATM   29 BR   UNL     1       7.823  -4.651 -14.553  1.00  0.00    -0.051 Br
HETATM   30  C   UNL     1       7.574  -3.209 -12.110  1.00  0.00     0.035 A 
ENDBRANCH   2  18
TORSDOF 5
