REMARK  5 active torsions:
REMARK  status: ('A' for Active; 'I' for Inactive)
REMARK    1  A    between atoms: C_2  and  C_3 
REMARK    2  A    between atoms: C_3  and  C_4 
REMARK       I    between atoms: C_4  and  N_5 
REMARK    3  A    between atoms: N_5  and  C_6 
REMARK    4  A    between atoms: C_13  and  C_14 
REMARK       I    between atoms: C_14  and  N_15 
REMARK    5  A    between atoms: C_22  and  C_23 
ROOT
HETATM    1  C   UNL     1      -2.200   3.143  -0.290  1.00  0.00     0.035 A 
HETATM    2  C   UNL     1      -2.294   2.190   0.735  1.00  0.00     0.046 A 
HETATM    3  C   UNL     1      -3.387   1.298   0.758  1.00  0.00     0.030 A 
HETATM    4  C   UNL     1      -4.324   1.360  -0.266  1.00  0.00     0.063 A 
HETATM    5  N   UNL     1      -5.246   0.395   0.031  1.00  0.00    -0.277 N 
HETATM    6  H   UNL     1      -6.075   0.153  -0.500  1.00  0.00     0.189 HD
HETATM    7  N   UNL     1      -5.010  -0.269   1.175  1.00  0.00    -0.168 NA
HETATM    8  C   UNL     1      -3.863   0.280   1.638  1.00  0.00     0.156 A 
HETATM    9  C   UNL     1      -4.241   2.272  -1.321  1.00  0.00     0.034 A 
HETATM   10  C   UNL     1      -3.167   3.173  -1.301  1.00  0.00     0.032 A 
ENDROOT
BRANCH   1  11
HETATM   11  N   UNL     1      -1.223   4.162  -0.288  1.00  0.00    -0.327 N 
HETATM   12  C   UNL     1      -0.124   4.234   0.551  1.00  0.00     0.226 C 
HETATM   13  O   UNL     1       0.433   3.278   1.082  1.00  0.00    -0.273 OA
HETATM   14  H   UNL     1      -1.352   4.921  -0.946  1.00  0.00     0.169 HD
BRANCH  12  15
HETATM   15  C   UNL     1       0.327   5.660   0.815  1.00  0.00     0.141 C 
BRANCH  15  16
HETATM   16  C   UNL     1       1.482   6.170  -0.010  1.00  0.00    -0.049 A 
HETATM   17  C   UNL     1       1.495   7.518  -0.400  1.00  0.00     0.008 A 
HETATM   18  C   UNL     1       2.604   8.066  -1.048  1.00  0.00     0.017 A 
HETATM   19  C   UNL     1       3.730   7.279  -1.320  1.00  0.00     0.047 A 
HETATM   20  C   UNL     1       3.719   5.931  -0.932  1.00  0.00     0.017 A 
HETATM   21  C   UNL     1       2.608   5.383  -0.281  1.00  0.00     0.008 A 
BRANCH  19  22
HETATM   22  C   UNL     1       4.953   7.895  -1.952  1.00  0.00     0.417 C 
HETATM   23  F   UNL     1       5.720   6.999  -2.633  1.00  0.00    -0.166 F 
HETATM   24  F   UNL     1       4.651   8.879  -2.846  1.00  0.00    -0.166 F 
HETATM   25  F   UNL     1       5.777   8.470  -1.032  1.00  0.00    -0.166 F 
ENDBRANCH  19  22
ENDBRANCH  15  16
ENDBRANCH  12  15
ENDBRANCH   1  11
BRANCH   8  26
HETATM   26  C   UNL     1      -3.268  -0.150   2.911  1.00  0.00     0.270 C 
HETATM   27  N   UNL     1      -3.972  -1.131   3.555  1.00  0.00    -0.365 N 
HETATM   28  H   UNL     1      -4.833  -1.464   3.138  1.00  0.00     0.159 HD
HETATM   29  H   UNL     1      -3.656  -1.462   4.453  1.00  0.00     0.159 HD
HETATM   30  O   UNL     1      -2.244   0.318   3.398  1.00  0.00    -0.266 OA
ENDBRANCH   8  26
TORSDOF 5
