REMARK  6 active torsions:
REMARK  status: ('A' for Active; 'I' for Inactive)
REMARK    1  A    between atoms: C_2  and  O_3 
REMARK    2  A    between atoms: C_2  and  C_4 
REMARK    3  A    between atoms: C_6  and  N_7 
REMARK       I    between atoms: N_7  and  C_8 
REMARK    4  A    between atoms: C_8  and  C_9 
REMARK    5  A    between atoms: C_14  and  C_15 
REMARK    6  A    between atoms: C_23  and  C_24 
ROOT
HETATM    1  C   UNL     1       4.768  -0.538  -3.480  1.00  0.00     0.148 A 
HETATM    2  N   UNL     1       4.774   0.550  -4.288  1.00  0.00    -0.165 NA
HETATM    3  N   UNL     1       4.748   1.578  -3.418  1.00  0.00    -0.240 N 
HETATM    4  C   UNL     1       4.808   1.200  -2.107  1.00  0.00     0.123 A 
HETATM    5  N   UNL     1       4.914   2.111  -1.120  1.00  0.00    -0.366 N 
HETATM    6  C   UNL     1       5.209   3.519  -1.377  1.00  0.00     0.118 C 
HETATM    7  C   UNL     1       5.658   3.754  -2.837  1.00  0.00     0.066 C 
HETATM    8  C   UNL     1       4.805   2.963  -3.842  1.00  0.00     0.221 C 
HETATM    9  C   UNL     1       4.761  -0.166  -2.107  1.00  0.00     0.089 A 
HETATM   10  H   UNL     1       4.950   1.825  -0.142  1.00  0.00     0.161 HD
ENDROOT
BRANCH   1  11
HETATM   11  C   UNL     1       4.807  -1.915  -4.005  1.00  0.00     0.276 C 
HETATM   12  N   UNL     1       4.838  -1.944  -5.385  1.00  0.00    -0.322 N 
HETATM   13  H   UNL     1       4.791  -1.023  -5.811  1.00  0.00     0.169 HD
HETATM   14  O   UNL     1       4.819  -2.880  -3.250  1.00  0.00    -0.266 OA
BRANCH  12  15
HETATM   15  C   UNL     1       4.931  -3.064  -6.229  1.00  0.00     0.035 A 
HETATM   16  C   UNL     1       5.056  -4.376  -5.765  1.00  0.00     0.039 A 
HETATM   17  C   UNL     1       5.155  -5.460  -6.658  1.00  0.00    -0.028 A 
HETATM   18  C   UNL     1       5.113  -5.203  -8.034  1.00  0.00     0.010 A 
HETATM   19  C   UNL     1       4.993  -3.897  -8.506  1.00  0.00     0.003 A 
HETATM   20  C   UNL     1       4.905  -2.832  -7.607  1.00  0.00     0.029 A 
BRANCH  17  21
HETATM   21  C   UNL     1       5.268  -6.865  -6.108  1.00  0.00     0.147 C 
HETATM   22  C   UNL     1       3.897  -7.451  -5.791  1.00  0.00     0.044 C 
BRANCH  21  23
HETATM   23  O   UNL     1       5.932  -7.716  -7.042  1.00  0.00    -0.391 OA
HETATM   24  H   UNL     1       6.063  -8.571  -6.599  1.00  0.00     0.210 HD
ENDBRANCH  21  23
ENDBRANCH  17  21
ENDBRANCH  12  15
ENDBRANCH   1  11
BRANCH   8  25
HETATM   25  C   UNL     1       3.408   3.518  -3.991  1.00  0.00     0.409 C 
HETATM   26  F   UNL     1       2.693   2.867  -4.934  1.00  0.00    -0.169 F 
HETATM   27  F   UNL     1       2.694   3.501  -2.847  1.00  0.00    -0.169 F 
HETATM   28  F   UNL     1       3.474   4.817  -4.386  1.00  0.00    -0.169 F 
ENDBRANCH   8  25
BRANCH   6  29
HETATM   29  C   UNL     1       6.270   3.968  -0.383  1.00  0.00    -0.035 A 
HETATM   30  C   UNL     1       7.525   3.330  -0.326  1.00  0.00     0.012 A 
HETATM   31  C   UNL     1       8.483   3.719   0.609  1.00  0.00     0.043 A 
HETATM   32  C   UNL     1       8.190   4.744   1.499  1.00  0.00     0.116 A 
HETATM   33  F   UNL     1       9.104   5.112   2.405  1.00  0.00    -0.206 F 
HETATM   34  C   UNL     1       6.957   5.386   1.468  1.00  0.00     0.043 A 
HETATM   35  C   UNL     1       5.997   5.001   0.529  1.00  0.00     0.012 A 
ENDBRANCH   6  29
TORSDOF 6
