REMARK  4 active torsions:
REMARK  status: ('A' for Active; 'I' for Inactive)
REMARK    1  A    between atoms: C_3  and  C_4 
REMARK       I    between atoms: C_4  and  N_5 
REMARK    2  A    between atoms: N_5  and  N_6 
REMARK    3  A    between atoms: C_21  and  C_22 
REMARK    4  A    between atoms: C_25  and  O_26 
ROOT
HETATM    1  C   UNL     1       3.092   2.490  -0.045  1.00  0.00     0.290 C 
HETATM    2  N   UNL     1       1.828   3.002  -0.296  1.00  0.00    -0.241 N 
HETATM    3  O   UNL     1       4.090   3.182   0.135  1.00  0.00    -0.264 OA
HETATM    4  H   UNL     1       1.053   2.378  -0.437  1.00  0.00     0.192 HD
ENDROOT
BRANCH   1   5
HETATM    5  C   UNL     1       3.192   1.048  -0.088  1.00  0.00     0.127 A 
HETATM    6  C   UNL     1       2.309  -0.017   0.062  1.00  0.00     0.003 A 
HETATM    7  C   UNL     1       0.869   0.017   0.430  1.00  0.00     0.053 C 
HETATM    8  C   UNL     1       3.109  -1.191  -0.159  1.00  0.00     0.095 A 
HETATM    9  N   UNL     1       4.393  -0.863  -0.358  1.00  0.00    -0.173 NA
HETATM   10  N   UNL     1       4.418   0.469  -0.271  1.00  0.00    -0.272 N 
HETATM   11  H   UNL     1       5.306   0.954  -0.364  1.00  0.00     0.189 HD
BRANCH   8  12
HETATM   12  C   UNL     1       2.701  -2.597  -0.160  1.00  0.00    -0.005 A 
HETATM   13  C   UNL     1       3.494  -3.557   0.480  1.00  0.00     0.016 A 
HETATM   14  C   UNL     1       3.107  -4.900   0.497  1.00  0.00     0.037 A 
HETATM   15  C   UNL     1       1.925  -5.307  -0.124  1.00  0.00     0.068 A 
HETATM   16  C   UNL     1       1.143  -4.361  -0.787  1.00  0.00     0.037 A 
HETATM   17  C   UNL     1       1.532  -3.014  -0.807  1.00  0.00     0.016 A 
BRANCH  15  18
HETATM   18  O   UNL     1       1.656  -6.644  -0.024  1.00  0.00    -0.356 OA
HETATM   19  C   UNL     1       0.376  -7.075  -0.469  1.00  0.00     0.210 C 
ENDBRANCH  15  18
ENDBRANCH   8  12
ENDBRANCH   1   5
BRANCH   2  20
HETATM   20  N   UNL     1       1.587   4.333  -0.150  1.00  0.00    -0.165 NA
HETATM   21  C   UNL     1       0.502   4.851  -0.631  1.00  0.00     0.157 A 
HETATM   22  C   UNL     1       0.122   6.315  -0.317  1.00  0.00     0.277 A 
HETATM   23  C   UNL     1      -0.580   4.335  -1.483  1.00  0.00     0.027 A 
HETATM   24  O   UNL     1       0.767   7.112   0.326  1.00  0.00    -0.266 OA
HETATM   25  N   UNL     1      -1.107   6.506  -0.905  1.00  0.00    -0.321 N 
HETATM   26  C   UNL     1      -1.516   5.368  -1.588  1.00  0.00     0.048 A 
HETATM   27  H   UNL     1      -1.597   7.387  -0.862  1.00  0.00     0.169 HD
HETATM   28  C   UNL     1      -2.677   5.239  -2.324  1.00  0.00     0.030 A 
HETATM   29  C   UNL     1      -2.886   4.029  -2.989  1.00  0.00     0.002 A 
HETATM   30  C   UNL     1      -1.933   2.996  -2.919  1.00  0.00     0.001 A 
HETATM   31  C   UNL     1      -0.760   3.147  -2.169  1.00  0.00     0.016 A 
ENDBRANCH   2  20
TORSDOF 4
