REMARK  6 active torsions:
REMARK  status: ('A' for Active; 'I' for Inactive)
REMARK    1  A    between atoms: C_7  and  S_8 
REMARK    2  A    between atoms: S_8  and  C_9 
REMARK    3  A    between atoms: C_9  and  C_10 
REMARK    4  A    between atoms: C_18  and  C_19 
REMARK    5  A    between atoms: C_26  and  C_27 
REMARK    6  A    between atoms: C_27  and  O_28 
ROOT
HETATM    1  C   UNL     1       0.926   0.094   0.104  1.00  0.00     0.070 C 
HETATM    2  C   UNL     1       2.433   0.024   0.100  1.00  0.00     0.037 A 
HETATM    3  N   UNL     1       3.104   1.233   0.253  1.00  0.00    -0.192 N 
HETATM    4  C   UNL     1       4.437   1.315   0.428  1.00  0.00     0.726 A 
HETATM    5  N   UNL     1       5.200   0.184   0.314  1.00  0.00    -0.082 N 
HETATM    6  N   UNL     1       6.496   0.439   0.576  1.00  0.00    -0.128 NA
HETATM    7  C   UNL     1       6.451   1.755   0.812  1.00  0.00     0.226 A 
HETATM    8  N   UNL     1       5.205   2.329   0.728  1.00  0.00    -0.035 NA
HETATM    9  C   UNL     1       4.662  -1.148  -0.001  1.00  0.00     0.204 A 
HETATM   10  C   UNL     1       3.140  -1.127   0.000  1.00  0.00     0.070 A 
HETATM   11  H   UNL     1       2.541   2.068   0.392  1.00  0.00     0.184 HD
ENDROOT
BRANCH   7  12
HETATM   12  S   UNL     1       7.895   2.650   1.190  1.00  0.00    -0.083 SA
BRANCH  12  13
HETATM   13  C   UNL     1       7.154   4.119   1.953  1.00  0.00     0.123 C 
BRANCH  13  14
HETATM   14  C   UNL     1       8.202   5.126   2.365  1.00  0.00    -0.027 A 
HETATM   15  C   UNL     1       8.856   5.083   3.607  1.00  0.00     0.041 A 
HETATM   16 CL   UNL     1       8.499   3.874   4.789  1.00  0.00    -0.084 Cl
HETATM   17  C   UNL     1       9.829   6.035   3.931  1.00  0.00     0.024 A 
HETATM   18  C   UNL     1      10.164   7.037   3.022  1.00  0.00     0.002 A 
HETATM   19  C   UNL     1       9.530   7.089   1.784  1.00  0.00     0.001 A 
HETATM   20  C   UNL     1       8.560   6.140   1.456  1.00  0.00     0.009 A 
ENDBRANCH  13  14
ENDBRANCH  12  13
ENDBRANCH   7  12
BRANCH   9  21
HETATM   21  C   UNL     1       5.229  -1.633  -1.335  1.00  0.00    -0.006 A 
HETATM   22  C   UNL     1       5.946  -2.836  -1.458  1.00  0.00     0.042 A 
HETATM   23 CL   UNL     1       6.241  -3.882  -0.115  1.00  0.00    -0.084 Cl
HETATM   24  C   UNL     1       6.445  -3.247  -2.700  1.00  0.00     0.024 A 
HETATM   25  C   UNL     1       6.237  -2.471  -3.838  1.00  0.00     0.002 A 
HETATM   26  C   UNL     1       5.524  -1.281  -3.741  1.00  0.00     0.001 A 
HETATM   27  C   UNL     1       5.023  -0.867  -2.505  1.00  0.00     0.011 A 
ENDBRANCH   9  21
BRANCH  10  28
HETATM   28  C   UNL     1       2.466  -2.432  -0.122  1.00  0.00     0.293 C 
HETATM   29  O   UNL     1       1.585  -2.683  -0.926  1.00  0.00    -0.259 OA
BRANCH  28  30
HETATM   30  O   UNL     1       2.958  -3.266   0.825  1.00  0.00    -0.323 OA
HETATM   31  C   UNL     1       2.353  -4.559   0.835  1.00  0.00     0.213 C 
ENDBRANCH  28  30
ENDBRANCH  10  28
TORSDOF 6
