REMARK  5 active torsions:
REMARK  status: ('A' for Active; 'I' for Inactive)
REMARK    1  A    between atoms: C_2  and  C_3 
REMARK    2  A    between atoms: C_5  and  N_6 
REMARK       I    between atoms: N_6  and  C_7 
REMARK    3  A    between atoms: C_7  and  C_8 
REMARK    4  A    between atoms: C_16  and  C_17 
REMARK    5  A    between atoms: C_19  and  O_20 
ROOT
HETATM    1  C   UNL     1       7.021   0.113   0.973  1.00  0.00     0.047 A 
HETATM    2  C   UNL     1       7.633   1.354   0.707  1.00  0.00     0.008 A 
HETATM    3  C   UNL     1       6.769   2.462   0.665  1.00  0.00     0.068 A 
HETATM    4  C   UNL     1       7.300   3.714   0.386  1.00  0.00     0.032 A 
HETATM    5  C   UNL     1       8.666   3.906   0.165  1.00  0.00     0.002 A 
HETATM    6  C   UNL     1       9.532   2.825   0.233  1.00  0.00     0.001 A 
HETATM    7  C   UNL     1       9.024   1.557   0.506  1.00  0.00     0.015 A 
HETATM    8  N   UNL     1       5.446   2.367   0.885  1.00  0.00    -0.248 NA
HETATM    9  C   UNL     1       4.882   1.170   1.190  1.00  0.00     0.069 A 
HETATM   10  C   UNL     1       5.654   0.024   1.248  1.00  0.00     0.050 A 
ENDROOT
BRANCH   1  11
HETATM   11  C   UNL     1       7.744  -1.181   0.943  1.00  0.00     0.257 C 
HETATM   12  N   UNL     1       8.389  -1.442  -0.251  1.00  0.00    -0.323 N 
HETATM   13  H   UNL     1       8.369  -0.709  -0.951  1.00  0.00     0.169 HD
HETATM   14  O   UNL     1       7.648  -1.913   1.917  1.00  0.00    -0.267 OA
BRANCH  12  15
HETATM   15  C   UNL     1       9.022  -2.642  -0.637  1.00  0.00     0.035 A 
HETATM   16  C   UNL     1       9.022  -3.810   0.130  1.00  0.00     0.044 A 
HETATM   17  C   UNL     1       9.628  -4.983  -0.352  1.00  0.00     0.011 A 
HETATM   18  C   UNL     1      10.264  -4.972  -1.598  1.00  0.00     0.015 A 
HETATM   19  C   UNL     1      10.279  -3.806  -2.361  1.00  0.00     0.003 A 
HETATM   20  C   UNL     1       9.655  -2.651  -1.886  1.00  0.00     0.029 A 
BRANCH  17  21
HETATM   21  C   UNL     1       9.560  -6.220   0.484  1.00  0.00     0.155 C 
HETATM   22  C   UNL     1       9.986  -7.532  -0.121  1.00  0.00     0.096 C 
HETATM   23  O   UNL     1       9.159  -6.161   1.644  1.00  0.00    -0.293 OA
ENDBRANCH  17  21
ENDBRANCH  12  15
ENDBRANCH   1  11
BRANCH   9  24
HETATM   24  C   UNL     1       3.420   1.186   1.439  1.00  0.00    -0.005 A 
HETATM   25  C   UNL     1       2.622   0.024   1.347  1.00  0.00     0.050 A 
HETATM   26  C   UNL     1       1.245   0.054   1.597  1.00  0.00     0.069 A 
HETATM   27  C   UNL     1       0.635   1.263   1.926  1.00  0.00     0.037 A 
HETATM   28  C   UNL     1       1.389   2.429   2.014  1.00  0.00     0.004 A 
HETATM   29  C   UNL     1       2.764   2.387   1.775  1.00  0.00     0.014 A 
BRANCH  26  30
HETATM   30  O   UNL     1       0.396  -1.017   1.542  1.00  0.00    -0.356 OA
HETATM   31  C   UNL     1       0.985  -2.302   1.382  1.00  0.00     0.210 C 
ENDBRANCH  26  30
ENDBRANCH   9  24
TORSDOF 5
