REMARK  4 active torsions:
REMARK  status: ('A' for Active; 'I' for Inactive)
REMARK    1  A    between atoms: N_3  and  C_4 
REMARK    2  A    between atoms: C_4  and  C_5 
REMARK    3  A    between atoms: C_5  and  C_6 
REMARK       I    between atoms: C_6  and  N_7 
REMARK    4  A    between atoms: N_7  and  C_8 
ROOT
HETATM    1  C   UNL     1       5.072   4.356  -0.637  1.00  0.00     0.035 A 
HETATM    2  C   UNL     1       6.012   5.029   0.142  1.00  0.00     0.049 A 
HETATM    3  C   UNL     1       6.657   6.186  -0.334  1.00  0.00     0.061 A 
HETATM    4  C   UNL     1       6.363   6.673  -1.614  1.00  0.00     0.050 A 
HETATM    5  N   UNL     1       6.813   7.890  -2.156  1.00  0.00    -0.324 N 
HETATM    6  C   UNL     1       7.054   9.065  -1.489  1.00  0.00     0.245 C 
HETATM    7  O   UNL     1       7.220  10.086  -2.159  1.00  0.00    -0.271 OA
HETATM    8  C   UNL     1       6.906   9.081   0.033  1.00  0.00     0.180 C 
HETATM    9  N   UNL     1       7.817   8.121   0.634  1.00  0.00    -0.334 N 
HETATM   10  C   UNL     1       7.697   6.756   0.557  1.00  0.00     0.256 C 
HETATM   11  O   UNL     1       8.404   5.994   1.211  1.00  0.00    -0.267 OA
HETATM   12  C   UNL     1       7.296  10.424   0.663  1.00  0.00     0.037 C 
HETATM   13  C   UNL     1       7.958  10.025   1.976  1.00  0.00     0.022 C 
HETATM   14  C   UNL     1       8.694   8.751   1.603  1.00  0.00     0.127 C 
HETATM   15  C   UNL     1       5.520   5.916  -2.440  1.00  0.00     0.033 A 
HETATM   16  C   UNL     1       4.869   4.778  -1.952  1.00  0.00     0.032 A 
HETATM   17  H   UNL     1       6.722   8.037  -3.154  1.00  0.00     0.169 HD
ENDROOT
BRANCH   1  18
HETATM   18  N   UNL     1       4.241   3.325  -0.150  1.00  0.00    -0.327 N 
HETATM   19  C   UNL     1       4.223   2.818   1.134  1.00  0.00     0.224 C 
HETATM   20  O   UNL     1       5.104   2.945   1.979  1.00  0.00    -0.273 OA
HETATM   21  H   UNL     1       3.544   2.969  -0.797  1.00  0.00     0.169 HD
BRANCH  19  22
HETATM   22  C   UNL     1       2.938   2.097   1.492  1.00  0.00     0.134 C 
BRANCH  22  23
HETATM   23  C   UNL     1       2.896   0.595   1.119  1.00  0.00     0.044 C 
HETATM   24  C   UNL     1       1.637  -0.012   1.820  1.00  0.00     0.032 C 
HETATM   25  C   UNL     1       1.551  -1.532   1.708  1.00  0.00     0.002 C 
HETATM   26  C   UNL     1       2.791  -2.194   2.291  1.00  0.00     0.000 C 
HETATM   27  C   UNL     1       4.061  -1.661   1.641  1.00  0.00     0.002 C 
HETATM   28  C   UNL     1       4.141  -0.133   1.712  1.00  0.00     0.032 C 
BRANCH  23  29
HETATM   29  N   UNL     1       2.782   0.484  -0.355  1.00  0.00    -0.356 N 
HETATM   30  C   UNL     1       1.670   0.844  -1.089  1.00  0.00     0.091 A 
HETATM   31  C   UNL     1       1.946   0.674  -2.427  1.00  0.00     0.019 A 
HETATM   32  C   UNL     1       3.280   0.232  -2.523  1.00  0.00     0.019 A 
HETATM   33  C   UNL     1       3.777   0.147  -1.241  1.00  0.00     0.091 A 
ENDBRANCH  23  29
ENDBRANCH  22  23
ENDBRANCH  19  22
ENDBRANCH   1  18
TORSDOF 4
