REMARK  6 active torsions:
REMARK  status: ('A' for Active; 'I' for Inactive)
REMARK    1  A    between atoms: C_2  and  N_3 
REMARK    2  A    between atoms: C_2  and  C_16 
REMARK    3  A    between atoms: N_3  and  C_6 
REMARK    4  A    between atoms: C_16  and  C_17 
REMARK       I    between atoms: C_17  and  N_18 
REMARK    5  A    between atoms: N_18  and  C_19 
REMARK    6  A    between atoms: C_22  and  O_23 
ROOT
HETATM    1  C   UNL     1       1.041   0.656   0.455  1.00  0.00     0.040 C 
HETATM    2  C   UNL     1       2.540   0.640   0.186  1.00  0.00     0.191 C 
ENDROOT
BRANCH   2   3
HETATM    3  N   UNL     1       2.807   0.373  -1.276  1.00  0.00    -0.063 N 
HETATM    4  H   UNL     1       3.847   0.352  -1.377  1.00  0.00     0.278 HD
HETATM    5  H   UNL     1       2.529  -0.597  -1.464  1.00  0.00     0.278 HD
BRANCH   3   6
HETATM    6  C   UNL     1       2.256   1.266  -2.357  1.00  0.00     0.221 C 
HETATM    7  C   UNL     1       3.039   2.537  -2.556  1.00  0.00    -0.011 A 
HETATM    8  C   UNL     1       4.315   2.486  -3.141  1.00  0.00     0.009 A 
HETATM    9  C   UNL     1       2.508   3.780  -2.176  1.00  0.00     0.011 A 
HETATM   10  C   UNL     1       5.068   3.655  -3.273  1.00  0.00     0.019 A 
HETATM   11  S   UNL     1       5.027   0.943  -3.673  1.00  0.00    -0.129 SA
HETATM   12  C   UNL     1       4.542   4.881  -2.868  1.00  0.00     0.001 A 
HETATM   13  C   UNL     1       3.260   4.946  -2.329  1.00  0.00     0.001 A 
HETATM   14  C   UNL     1       3.554   0.023  -4.224  1.00  0.00     0.082 C 
HETATM   15  C   UNL     1       2.207   0.498  -3.683  1.00  0.00     0.048 C 
ENDBRANCH   3   6
ENDBRANCH   2   3
BRANCH   2  16
HETATM   16  C   UNL     1       3.241   1.895   0.719  1.00  0.00     0.135 C 
BRANCH  16  17
HETATM   17  C   UNL     1       4.729   1.843   0.450  1.00  0.00     0.224 C 
HETATM   18  N   UNL     1       5.381   2.998   0.817  1.00  0.00    -0.327 N 
HETATM   19  H   UNL     1       4.818   3.786   1.115  1.00  0.00     0.169 HD
HETATM   20  O   UNL     1       5.207   0.847  -0.088  1.00  0.00    -0.273 OA
BRANCH  18  21
HETATM   21  C   UNL     1       6.768   3.248   0.752  1.00  0.00     0.034 A 
HETATM   22  C   UNL     1       7.198   4.554   1.020  1.00  0.00     0.032 A 
HETATM   23  C   UNL     1       8.560   4.882   1.002  1.00  0.00     0.039 A 
HETATM   24  C   UNL     1       9.510   3.902   0.728  1.00  0.00     0.068 A 
HETATM   25  C   UNL     1       9.083   2.601   0.460  1.00  0.00     0.039 A 
HETATM   26  C   UNL     1       7.722   2.273   0.469  1.00  0.00     0.032 A 
BRANCH  24  27
HETATM   27  O   UNL     1      10.864   4.079   0.693  1.00  0.00    -0.356 OA
HETATM   28  C   UNL     1      11.357   5.374   1.012  1.00  0.00     0.210 C 
ENDBRANCH  24  27
ENDBRANCH  18  21
ENDBRANCH  16  17
ENDBRANCH   2  16
TORSDOF 6
