REMARK  4 active torsions:
REMARK  status: ('A' for Active; 'I' for Inactive)
REMARK    1  A    between atoms: C_7  and  C_8 
REMARK    2  A    between atoms: C_11  and  O_12 
REMARK    3  A    between atoms: C_17  and  C_18 
REMARK    4  A    between atoms: C_25  and  C_26 
REMARK       I    between atoms: C_26  and  N_27 
ROOT
HETATM    1  C   UNL     1       1.042   0.176   0.049  1.00  0.00     0.070 C 
HETATM    2  C   UNL     1       2.539   0.037   0.185  1.00  0.00     0.037 A 
HETATM    3  N   UNL     1       3.245   1.228   0.316  1.00  0.00    -0.192 N 
HETATM    4  C   UNL     1       4.585   1.288   0.419  1.00  0.00     0.726 A 
HETATM    5  N   UNL     1       5.309   0.131   0.413  1.00  0.00    -0.083 N 
HETATM    6  N   UNL     1       6.633   0.377   0.427  1.00  0.00    -0.135 NA
HETATM    7  C   UNL     1       6.652   1.718   0.548  1.00  0.00     0.199 A 
HETATM    8  N   UNL     1       5.398   2.307   0.518  1.00  0.00    -0.041 NA
HETATM    9  C   UNL     1       4.721  -1.208   0.299  1.00  0.00     0.202 A 
HETATM   10  C   UNL     1       3.205  -1.145   0.161  1.00  0.00     0.062 A 
HETATM   11  H   UNL     1       2.713   2.094   0.331  1.00  0.00     0.184 HD
ENDROOT
BRANCH   7  12
HETATM   12  C   UNL     1       7.875   2.502   0.701  1.00  0.00     0.014 A 
HETATM   13  C   UNL     1       9.118   1.875   0.852  1.00  0.00     0.018 A 
HETATM   14  C   UNL     1      10.280   2.635   1.020  1.00  0.00     0.037 A 
HETATM   15  C   UNL     1      10.223   4.030   1.039  1.00  0.00     0.068 A 
HETATM   16  C   UNL     1       8.990   4.662   0.885  1.00  0.00     0.037 A 
HETATM   17  C   UNL     1       7.824   3.902   0.719  1.00  0.00     0.018 A 
BRANCH  15  18
HETATM   18  O   UNL     1      11.430   4.648   1.215  1.00  0.00    -0.356 OA
HETATM   19  C   UNL     1      11.422   6.069   1.270  1.00  0.00     0.210 C 
ENDBRANCH  15  18
ENDBRANCH   7  12
BRANCH   9  20
HETATM   20  C   UNL     1       5.207  -2.086   1.451  1.00  0.00    -0.028 A 
HETATM   21  C   UNL     1       4.662  -1.977   2.744  1.00  0.00     0.012 A 
HETATM   22  C   UNL     1       5.136  -2.782   3.782  1.00  0.00     0.043 A 
HETATM   23  C   UNL     1       6.161  -3.687   3.537  1.00  0.00     0.116 A 
HETATM   24  F   UNL     1       6.617  -4.455   4.535  1.00  0.00    -0.206 F 
HETATM   25  C   UNL     1       6.725  -3.803   2.273  1.00  0.00     0.043 A 
HETATM   26  C   UNL     1       6.252  -3.004   1.232  1.00  0.00     0.012 A 
ENDBRANCH   9  20
BRANCH  10  27
HETATM   27  C   UNL     1       2.471  -2.428   0.094  1.00  0.00     0.249 C 
HETATM   28  N   UNL     1       2.930  -3.325  -0.817  1.00  0.00    -0.366 N 
HETATM   29  H   UNL     1       3.653  -3.144  -1.497  1.00  0.00     0.159 HD
HETATM   30  H   UNL     1       2.425  -4.200  -0.885  1.00  0.00     0.159 HD
HETATM   31  O   UNL     1       1.510  -2.679   0.808  1.00  0.00    -0.268 OA
ENDBRANCH  10  27
TORSDOF 4
