REMARK  9 active torsions:
REMARK  status: ('A' for Active; 'I' for Inactive)
REMARK       I    between atoms: C_2  and  N_3 
REMARK    1  A    between atoms: N_3  and  C_4 
REMARK    2  A    between atoms: C_4  and  C_5 
REMARK    3  A    between atoms: C_5  and  N_6 
REMARK       I    between atoms: N_6  and  C_7 
REMARK    4  A    between atoms: C_7  and  C_8 
REMARK    5  A    between atoms: C_8  and  C_9 
REMARK    6  A    between atoms: C_13  and  C_14 
REMARK    7  A    between atoms: C_14  and  O_15 
REMARK    8  A    between atoms: C_17  and  O_18 
REMARK    9  A    between atoms: C_25  and  C_26 
ROOT
HETATM    1  C   UNL     1       0.819  -1.210   1.020  1.00  0.00     0.056 C 
HETATM    2  C   UNL     1       2.400  -1.405   0.893  1.00  0.00    -0.030 C 
HETATM    3  C   UNL     1       3.058  -1.240   2.294  1.00  0.00     0.016 C 
HETATM    4  C   UNL     1       3.072  -0.348  -0.101  1.00  0.00     0.012 C 
HETATM    5  C   UNL     1       2.875  -0.617  -1.658  1.00  0.00     0.008 C 
HETATM    6  C   UNL     1       3.913   0.232  -2.452  1.00  0.00     0.020 C 
HETATM    7  C   UNL     1       3.199  -2.113  -1.960  1.00  0.00     0.128 C 
HETATM    8  C   UNL     1       2.447  -3.082  -1.057  1.00  0.00     0.033 C 
HETATM    9  C   UNL     1       2.787  -2.823   0.401  1.00  0.00     0.013 C 
HETATM   10  C   UNL     1       2.777   1.112   0.340  1.00  0.00     0.054 C 
HETATM   11  C   UNL     1       1.349   1.274   0.711  1.00  0.00     0.010 A 
HETATM   12  C   UNL     1       0.467   0.264   1.017  1.00  0.00     0.054 A 
HETATM   13  N   UNL     1      -0.826   0.686   1.264  1.00  0.00    -0.244 NA
HETATM   14  C   UNL     1      -0.901   2.006   1.222  1.00  0.00     0.110 A 
HETATM   15  S   UNL     1       0.584   2.788   0.816  1.00  0.00    -0.072 SA
ENDROOT
BRANCH   1  16
HETATM   16  C   UNL     1       0.128  -1.893   2.226  1.00  0.00     0.114 C 
BRANCH  16  17
HETATM   17  C   UNL     1       0.161  -3.401   2.206  1.00  0.00     0.218 C 
HETATM   18  N   UNL     1      -0.456  -3.977   1.121  1.00  0.00    -0.359 N 
HETATM   19  H   UNL     1      -1.052  -3.419   0.523  1.00  0.00     0.162 HD
HETATM   20  O   UNL     1       0.698  -4.052   3.096  1.00  0.00    -0.274 OA
BRANCH  18  21
HETATM   21  C   UNL     1      -0.481  -5.420   0.938  1.00  0.00     0.142 C 
BRANCH  21  22
HETATM   22  C   UNL     1      -1.592  -6.097   1.748  1.00  0.00     0.142 C 
BRANCH  22  23
HETATM   23  N   UNL     1      -2.922  -5.661   1.351  1.00  0.00    -0.360 N 
HETATM   24  C   UNL     1      -3.497  -6.091   0.179  1.00  0.00     0.213 C 
HETATM   25  C   UNL     1      -4.889  -5.571  -0.060  1.00  0.00     0.117 C 
HETATM   26  O   UNL     1      -2.936  -6.839  -0.614  1.00  0.00    -0.274 OA
HETATM   27  H   UNL     1      -3.427  -5.043   1.972  1.00  0.00     0.162 HD
ENDBRANCH  22  23
ENDBRANCH  21  22
ENDBRANCH  18  21
ENDBRANCH  16  17
ENDBRANCH   1  16
BRANCH   5  28
HETATM   28  C   UNL     1       1.471  -0.221  -2.195  1.00  0.00     0.176 C 
BRANCH  28  29
HETATM   29  O   UNL     1       1.366  -0.375  -3.609  1.00  0.00    -0.400 OA
HETATM   30  H   UNL     1       1.620  -1.304  -3.797  1.00  0.00     0.209 HD
ENDBRANCH  28  29
ENDBRANCH   5  28
BRANCH  14  31
HETATM   31  C   UNL     1      -2.136   2.770   1.450  1.00  0.00     0.017 A 
HETATM   32  C   UNL     1      -2.159   4.121   1.791  1.00  0.00     0.130 A 
HETATM   33  N   UNL     1      -3.288   4.846   2.008  1.00  0.00    -0.272 NA
HETATM   34  C   UNL     1      -4.461   4.193   1.883  1.00  0.00     0.116 A 
HETATM   35  C   UNL     1      -4.559   2.852   1.557  1.00  0.00     0.020 A 
HETATM   36  C   UNL     1      -3.381   2.137   1.343  1.00  0.00     0.017 A 
ENDBRANCH  14  31
BRANCH   7  37
HETATM   37  O   UNL     1       2.890  -2.461  -3.311  1.00  0.00    -0.395 OA
HETATM   38  H   UNL     1       3.675  -2.252  -3.851  1.00  0.00     0.210 HD
ENDBRANCH   7  37
TORSDOF 9
