REMARK  8 active torsions:
REMARK  status: ('A' for Active; 'I' for Inactive)
REMARK    1  A    between atoms: C_3  and  N_4 
REMARK    2  A    between atoms: N_7  and  C_9 
REMARK    3  A    between atoms: C_9  and  C_10 
REMARK    4  A    between atoms: C_10  and  C_11 
REMARK    5  A    between atoms: C_11  and  N_12 
REMARK       I    between atoms: N_12  and  C_13 
REMARK    6  A    between atoms: C_13  and  C_14 
REMARK    7  A    between atoms: C_14  and  O_15 
REMARK    8  A    between atoms: O_15  and  C_16 
ROOT
HETATM    1  C   UNL     1       1.626   6.310   1.846  1.00  0.00     0.236 C 
ENDROOT
BRANCH   1   2
HETATM    2  N   UNL     1       1.595   5.013   1.065  1.00  0.00    -0.069 N 
HETATM    3  C   UNL     1       2.701   4.930  -0.005  1.00  0.00     0.249 C 
HETATM    4  C   UNL     1       2.701   3.555  -0.708  1.00  0.00     0.123 C 
HETATM    5  N   UNL     1       2.815   2.487   0.305  1.00  0.00    -0.280 NA
HETATM    6  C   UNL     1       1.705   2.477   1.271  1.00  0.00     0.123 C 
HETATM    7  C   UNL     1       1.686   3.818   2.032  1.00  0.00     0.249 C 
HETATM    8  H   UNL     1       0.693   4.940   0.577  1.00  0.00     0.280 HD
BRANCH   5   9
HETATM    9  C   UNL     1       3.216   1.251  -0.230  1.00  0.00     0.018 A 
HETATM   10  C   UNL     1       4.581   1.018  -0.523  1.00  0.00    -0.041 A 
HETATM   11  C   UNL     1       5.647   2.053  -0.268  1.00  0.00     0.050 C 
HETATM   12  C   UNL     1       4.983  -0.209  -1.081  1.00  0.00     0.010 A 
HETATM   13  C   UNL     1       4.057  -1.221  -1.321  1.00  0.00     0.024 A 
HETATM   14  C   UNL     1       2.721  -1.006  -1.014  1.00  0.00     0.035 A 
HETATM   15  C   UNL     1       2.301   0.215  -0.480  1.00  0.00     0.048 A 
HETATM   16 CL   UNL     1       1.567  -2.250  -1.299  1.00  0.00    -0.084 Cl
ENDBRANCH   5   9
ENDBRANCH   1   2
BRANCH   1  17
HETATM   17  C   UNL     1       1.234   7.501   0.984  1.00  0.00     0.047 C 
BRANCH  17  18
HETATM   18  C   UNL     1       1.281   8.785   1.815  1.00  0.00     0.124 C 
BRANCH  18  19
HETATM   19  N   UNL     1       1.245   9.972   0.997  1.00  0.00    -0.359 N 
HETATM   20  C   UNL     1       2.348  10.384   0.274  1.00  0.00     0.241 C 
HETATM   21  O   UNL     1       3.346   9.677   0.143  1.00  0.00    -0.271 OA
HETATM   22  H   UNL     1       0.526  10.678   1.146  1.00  0.00     0.162 HD
BRANCH  20  23
HETATM   23  C   UNL     1       2.239  11.787  -0.328  1.00  0.00     0.278 C 
BRANCH  23  24
HETATM   24  O   UNL     1       0.936  12.320  -0.101  1.00  0.00    -0.342 OA
BRANCH  24  25
HETATM   25  C   UNL     1       0.697  13.589  -0.552  1.00  0.00     0.069 A 
HETATM   26  C   UNL     1       1.637  14.449  -1.122  1.00  0.00     0.038 A 
HETATM   27  C   UNL     1       1.256  15.733  -1.531  1.00  0.00     0.026 A 
HETATM   28  C   UNL     1      -0.062  16.154  -1.373  1.00  0.00     0.034 A 
HETATM   29 CL   UNL     1      -0.525  17.731  -1.877  1.00  0.00    -0.084 Cl
HETATM   30  C   UNL     1      -1.006  15.302  -0.806  1.00  0.00     0.026 A 
HETATM   31  C   UNL     1      -0.623  14.023  -0.395  1.00  0.00     0.038 A 
ENDBRANCH  24  25
ENDBRANCH  23  24
ENDBRANCH  20  23
ENDBRANCH  18  19
ENDBRANCH  17  18
ENDBRANCH   1  17
TORSDOF 8
