REMARK  7 active torsions:
REMARK  status: ('A' for Active; 'I' for Inactive)
REMARK    1  A    between atoms: C_2  and  O_3 
REMARK    2  A    between atoms: O_3  and  C_4 
REMARK    3  A    between atoms: C_5  and  C_6 
REMARK    4  A    between atoms: C_9  and  C_10 
REMARK       I    between atoms: C_10  and  N_11 
REMARK    5  A    between atoms: N_11  and  C_12 
REMARK    6  A    between atoms: C_25  and  C_26 
REMARK       I    between atoms: C_26  and  N_27 
REMARK    7  A    between atoms: N_27  and  C_28 
ROOT
HETATM    1  C   UNL     1       4.040   3.638   1.060  1.00  0.00     0.188 A 
HETATM    2  N   UNL     1       4.322   4.966   1.639  1.00  0.00    -0.239 N 
HETATM    3  C   UNL     1       4.343   6.143   0.919  1.00  0.00     0.142 A 
HETATM    4  C   UNL     1       4.649   7.136   1.829  1.00  0.00     0.097 A 
HETATM    5  C   UNL     1       4.807   6.444   3.056  1.00  0.00     0.160 A 
HETATM    6  N   UNL     1       4.553   5.138   2.960  1.00  0.00    -0.181 NA
HETATM    7  N   UNL     1       4.113   6.102  -0.419  1.00  0.00    -0.343 N 
HETATM    8  C   UNL     1       3.866   4.910  -1.105  1.00  0.00     0.021 A 
HETATM    9  C   UNL     1       3.632   5.000  -2.591  1.00  0.00     0.069 C 
HETATM   10  C   UNL     1       3.832   3.734  -0.437  1.00  0.00     0.061 A 
HETATM   11  H   UNL     1       4.281   6.914  -1.011  1.00  0.00     0.167 HD
ENDROOT
BRANCH   4  12
HETATM   12  C   UNL     1       4.798   8.568   1.655  1.00  0.00     0.261 C 
HETATM   13  N   UNL     1       3.922   9.111   0.732  1.00  0.00    -0.323 N 
HETATM   14  H   UNL     1       3.250   8.467   0.332  1.00  0.00     0.169 HD
HETATM   15  O   UNL     1       5.596   9.190   2.344  1.00  0.00    -0.267 OA
BRANCH  13  16
HETATM   16  C   UNL     1       3.739  10.479   0.436  1.00  0.00     0.035 A 
HETATM   17  C   UNL     1       4.529  11.505   0.967  1.00  0.00     0.032 A 
HETATM   18  C   UNL     1       4.261  12.843   0.656  1.00  0.00     0.044 A 
HETATM   19  C   UNL     1       3.206  13.153  -0.190  1.00  0.00     0.116 A 
HETATM   20  F   UNL     1       2.946  14.434  -0.480  1.00  0.00    -0.206 F 
HETATM   21  C   UNL     1       2.417  12.151  -0.737  1.00  0.00     0.044 A 
HETATM   22  C   UNL     1       2.684  10.814  -0.425  1.00  0.00     0.032 A 
ENDBRANCH  13  16
ENDBRANCH   4  12
BRANCH   1  23
HETATM   23  C   UNL     1       5.105   2.638   1.512  1.00  0.00     0.005 A 
HETATM   24  C   UNL     1       6.419   2.628   1.011  1.00  0.00     0.077 A 
HETATM   25  C   UNL     1       7.350   1.688   1.464  1.00  0.00     0.037 A 
HETATM   26  C   UNL     1       6.998   0.777   2.459  1.00  0.00     0.003 A 
HETATM   27  C   UNL     1       5.712   0.790   2.988  1.00  0.00     0.001 A 
HETATM   28  C   UNL     1       4.773   1.709   2.518  1.00  0.00     0.012 A 
BRANCH  24  29
HETATM   29  O   UNL     1       6.729   3.459  -0.037  1.00  0.00    -0.351 OA
BRANCH  29  30
HETATM   30  C   UNL     1       7.838   4.319   0.251  1.00  0.00     0.171 C 
HETATM   31  C   UNL     1       7.983   5.285  -0.911  1.00  0.00     0.034 C 
ENDBRANCH  29  30
ENDBRANCH  24  29
ENDBRANCH   1  23
BRANCH  10  32
HETATM   32  C   UNL     1       3.543   2.454  -1.125  1.00  0.00     0.256 C 
HETATM   33  N   UNL     1       4.691   1.868  -1.609  1.00  0.00    -0.323 N 
HETATM   34  H   UNL     1       5.558   2.366  -1.423  1.00  0.00     0.169 HD
HETATM   35  O   UNL     1       2.394   2.038  -1.168  1.00  0.00    -0.267 OA
BRANCH  33  36
HETATM   36  C   UNL     1       4.838   0.569  -2.131  1.00  0.00     0.035 A 
HETATM   37  C   UNL     1       3.770  -0.276  -2.430  1.00  0.00     0.029 A 
HETATM   38  C   UNL     1       4.007  -1.570  -2.907  1.00  0.00     0.002 A 
HETATM   39  C   UNL     1       5.311  -2.028  -3.084  1.00  0.00     0.000 A 
HETATM   40  C   UNL     1       6.383  -1.188  -2.793  1.00  0.00     0.002 A 
HETATM   41  C   UNL     1       6.146   0.106  -2.324  1.00  0.00     0.029 A 
ENDBRANCH  33  36
ENDBRANCH  10  32
TORSDOF 7
