REMARK  5 active torsions:
REMARK  status: ('A' for Active; 'I' for Inactive)
REMARK    1  A    between atoms: C_8  and  N_9 
REMARK       I    between atoms: N_9  and  C_10 
REMARK       I    between atoms: C_10  and  N_11 
REMARK    2  A    between atoms: N_11  and  C_12 
REMARK    3  A    between atoms: C_13  and  O_14 
REMARK    4  A    between atoms: O_14  and  C_15 
REMARK    5  A    between atoms: C_15  and  C_16 
ROOT
HETATM    1  N   UNL     1       1.261  -3.728   0.044  1.00  0.00    -0.305 N 
HETATM    2  C   UNL     1       1.462  -2.360   0.073  1.00  0.00     0.325 C 
HETATM    3  N   UNL     1       0.623  -1.736  -0.835  1.00  0.00    -0.306 N 
HETATM    4  O   UNL     1       2.258  -1.780   0.798  1.00  0.00    -0.247 OA
HETATM    5  H   UNL     1       0.367  -4.038  -0.303  1.00  0.00     0.171 HD
HETATM    6  H   UNL     1       0.207  -2.321  -1.547  1.00  0.00     0.171 HD
ENDROOT
BRANCH   3   7
HETATM    7  C   UNL     1       0.435  -0.350  -1.028  1.00  0.00     0.069 A 
HETATM    8  C   UNL     1      -0.284   0.051  -2.168  1.00  0.00     0.095 A 
HETATM    9  C   UNL     1      -0.555   1.399  -2.412  1.00  0.00     0.039 A 
HETATM   10  C   UNL     1      -0.075   2.366  -1.532  1.00  0.00     0.003 A 
HETATM   11  C   UNL     1       0.657   1.982  -0.409  1.00  0.00     0.002 A 
HETATM   12  C   UNL     1       0.907   0.629  -0.154  1.00  0.00     0.032 A 
BRANCH   8  13
HETATM   13  O   UNL     1      -0.752  -0.928  -3.012  1.00  0.00    -0.340 OA
BRANCH  13  14
HETATM   14  C   UNL     1      -0.194  -0.795  -4.334  1.00  0.00     0.293 C 
BRANCH  14  15
HETATM   15  C   UNL     1      -0.231  -2.137  -5.046  1.00  0.00     0.408 C 
HETATM   16  F   UNL     1       0.413  -3.089  -4.332  1.00  0.00    -0.169 F 
HETATM   17  F   UNL     1      -1.498  -2.559  -5.251  1.00  0.00    -0.169 F 
HETATM   18  F   UNL     1       0.371  -2.055  -6.254  1.00  0.00    -0.169 F 
ENDBRANCH  14  15
ENDBRANCH  13  14
ENDBRANCH   8  13
ENDBRANCH   3   7
BRANCH   1  19
HETATM   19  C   UNL     1       2.020  -4.686   0.696  1.00  0.00     0.086 A 
HETATM   20  C   UNL     1       1.577  -5.985   0.867  1.00  0.00     0.052 A 
HETATM   21  C   UNL     1       0.324  -6.679   0.487  1.00  0.00     0.072 C 
HETATM   22  N   UNL     1       2.577  -6.635   1.532  1.00  0.00    -0.280 N 
HETATM   23  H   UNL     1       2.601  -7.602   1.838  1.00  0.00     0.189 HD
HETATM   24  N   UNL     1       3.643  -5.873   1.786  1.00  0.00    -0.177 NA
HETATM   25  C   UNL     1       3.324  -4.674   1.275  1.00  0.00     0.079 A 
HETATM   26  C   UNL     1       4.339  -3.592   1.340  1.00  0.00     0.075 C 
ENDBRANCH   1  19
TORSDOF 5
