REMARK  6 active torsions:
REMARK  status: ('A' for Active; 'I' for Inactive)
REMARK    1  A    between atoms: C_2  and  N_3 
REMARK    2  A    between atoms: C_2  and  C_21 
REMARK       I    between atoms: N_3  and  C_4 
REMARK       I    between atoms: C_4  and  N_5 
REMARK    3  A    between atoms: N_5  and  C_6 
REMARK    4  A    between atoms: C_6  and  C_7 
REMARK    5  A    between atoms: C_10  and  O_11 
REMARK    6  A    between atoms: O_11  and  C_12 
ROOT
HETATM    1  N   UNL     1       0.606  -0.377  -3.371  1.00  0.00    -0.332 N 
HETATM    2  C   UNL     1       1.234  -0.694  -2.205  1.00  0.00     0.317 C 
HETATM    3  N   UNL     1       0.653  -1.773  -1.596  1.00  0.00    -0.339 N 
HETATM    4  O   UNL     1       2.191  -0.083  -1.751  1.00  0.00    -0.247 OA
HETATM    5  H   UNL     1       0.030  -1.073  -3.823  1.00  0.00     0.165 HD
HETATM    6  H   UNL     1      -0.322  -1.916  -1.809  1.00  0.00     0.164 HD
ENDROOT
BRANCH   3   7
HETATM    7  C   UNL     1       1.094  -2.163  -0.278  1.00  0.00     0.162 C 
BRANCH   7   8
HETATM    8  C   UNL     1       0.370  -3.396   0.188  1.00  0.00    -0.040 A 
HETATM    9  C   UNL     1       0.873  -4.671  -0.102  1.00  0.00     0.011 A 
HETATM   10  C   UNL     1       0.194  -5.822   0.320  1.00  0.00     0.037 A 
HETATM   11  C   UNL     1      -1.002  -5.712   1.026  1.00  0.00     0.069 A 
HETATM   12  C   UNL     1      -1.514  -4.442   1.300  1.00  0.00     0.037 A 
HETATM   13  C   UNL     1      -0.839  -3.292   0.885  1.00  0.00     0.011 A 
BRANCH  11  14
HETATM   14  O   UNL     1      -1.766  -6.740   1.501  1.00  0.00    -0.346 OA
BRANCH  14  15
HETATM   15  C   UNL     1      -1.305  -8.089   1.362  1.00  0.00     0.129 C 
HETATM   16  C   UNL     1      -0.310  -8.441   2.477  1.00  0.00     0.032 C 
HETATM   17  C   UNL     1      -0.956  -8.403   3.862  1.00  0.00     0.002 C 
HETATM   18  C   UNL     1      -2.187  -9.302   3.932  1.00  0.00     0.000 C 
HETATM   19  C   UNL     1      -3.190  -8.971   2.833  1.00  0.00     0.002 C 
HETATM   20  C   UNL     1      -2.540  -9.000   1.449  1.00  0.00     0.032 C 
ENDBRANCH  14  15
ENDBRANCH  11  14
ENDBRANCH   7   8
ENDBRANCH   3   7
BRANCH   1  21
HETATM   21  C   UNL     1       1.054   0.718  -4.223  1.00  0.00     0.155 C 
HETATM   22  C   UNL     1       2.322   0.347  -4.990  1.00  0.00     0.041 C 
BRANCH  21  23
HETATM   23  C   UNL     1      -0.065   1.070  -5.167  1.00  0.00     0.169 A 
HETATM   24  N   UNL     1      -0.911   0.156  -5.681  1.00  0.00    -0.156 NA
HETATM   25  N   UNL     1      -1.710   0.927  -6.437  1.00  0.00    -0.270 N 
HETATM   26  H   UNL     1      -2.467   0.501  -6.960  1.00  0.00     0.190 HD
HETATM   27  C   UNL     1      -1.345   2.233  -6.368  1.00  0.00     0.227 A 
HETATM   28  N   UNL     1      -0.307   2.359  -5.577  1.00  0.00    -0.223 NA
ENDBRANCH  21  23
ENDBRANCH   1  21
TORSDOF 6
