REMARK  7 active torsions:
REMARK  status: ('A' for Active; 'I' for Inactive)
REMARK    1  A    between atoms: O_2  and  C_3 
REMARK    2  A    between atoms: C_5  and  C_6 
REMARK    3  A    between atoms: C_6  and  N_7 
REMARK    4  A    between atoms: C_6  and  C_13 
REMARK    5  A    between atoms: C_13  and  N_14 
REMARK       I    between atoms: N_14  and  C_15 
REMARK       I    between atoms: C_15  and  N_16 
REMARK    6  A    between atoms: N_16  and  C_17 
REMARK    7  A    between atoms: C_18  and  O_19 
ROOT
HETATM    1  N   UNL     1       1.331   4.213  -0.073  1.00  0.00    -0.341 N 
HETATM    2  C   UNL     1       1.367   2.842  -0.021  1.00  0.00     0.316 C 
HETATM    3  N   UNL     1       0.175   2.307   0.352  1.00  0.00    -0.332 N 
HETATM    4  O   UNL     1       2.334   2.192  -0.392  1.00  0.00    -0.247 OA
HETATM    5  H   UNL     1       0.663   4.638   0.558  1.00  0.00     0.164 HD
HETATM    6  H   UNL     1      -0.349   2.800   1.063  1.00  0.00     0.165 HD
ENDROOT
BRANCH   1   7
HETATM    7  C   UNL     1       2.545   4.963  -0.368  1.00  0.00     0.162 C 
BRANCH   7   8
HETATM    8  C   UNL     1       3.192   4.726  -1.775  1.00  0.00     0.238 C 
BRANCH   8   9
HETATM    9  C   UNL     1       4.555   5.394  -1.918  1.00  0.00    -0.023 A 
HETATM   10  C   UNL     1       5.597   4.677  -2.534  1.00  0.00     0.046 A 
HETATM   11  C   UNL     1       6.872   5.229  -2.691  1.00  0.00     0.068 A 
HETATM   12  C   UNL     1       7.112   6.529  -2.255  1.00  0.00     0.037 A 
HETATM   13  C   UNL     1       6.086   7.261  -1.654  1.00  0.00     0.003 A 
HETATM   14  C   UNL     1       4.818   6.701  -1.484  1.00  0.00     0.009 A 
BRANCH  11  15
HETATM   15  O   UNL     1       7.779   4.401  -3.289  1.00  0.00    -0.356 OA
HETATM   16  C   UNL     1       9.145   4.801  -3.233  1.00  0.00     0.210 C 
ENDBRANCH  11  15
ENDBRANCH   8   9
BRANCH   8  17
HETATM   17  N   UNL     1       2.293   5.104  -2.959  1.00  0.00    -0.061 N 
HETATM   18  H   UNL     1       2.946   5.135  -3.753  1.00  0.00     0.280 HD
HETATM   19  C   UNL     1       1.605   6.442  -2.932  1.00  0.00     0.236 C 
HETATM   20  C   UNL     1       0.140   6.107  -2.752  1.00  0.00     0.029 C 
HETATM   21  C   UNL     1      -0.026   4.844  -3.570  1.00  0.00     0.029 C 
HETATM   22  C   UNL     1       1.253   4.062  -3.330  1.00  0.00     0.236 C 
ENDBRANCH   8  17
ENDBRANCH   7   8
ENDBRANCH   1   7
BRANCH   3  23
HETATM   23  C   UNL     1       0.035   0.864   0.447  1.00  0.00     0.149 C 
HETATM   24  C   UNL     1       0.716   0.265   1.714  1.00  0.00     0.149 C 
HETATM   25  C   UNL     1      -0.161  -0.918   2.165  1.00  0.00     0.073 C 
HETATM   26  C   UNL     1      -1.503  -0.553   1.602  1.00  0.00    -0.047 A 
HETATM   27  C   UNL     1      -1.397   0.449   0.632  1.00  0.00    -0.026 A 
HETATM   28  C   UNL     1      -2.726  -1.128   1.907  1.00  0.00     0.008 A 
HETATM   29  C   UNL     1      -2.518   0.890  -0.058  1.00  0.00     0.010 A 
HETATM   30  C   UNL     1      -3.757   0.325   0.252  1.00  0.00     0.001 A 
HETATM   31  C   UNL     1      -3.859  -0.677   1.228  1.00  0.00     0.001 A 
BRANCH  24  32
HETATM   32  O   UNL     1       0.776   1.241   2.773  1.00  0.00    -0.393 OA
HETATM   33  H   UNL     1       1.669   1.627   2.740  1.00  0.00     0.210 HD
ENDBRANCH  24  32
ENDBRANCH   3  23
TORSDOF 7
