REMARK  11 active torsions:
REMARK  status: ('A' for Active; 'I' for Inactive)
REMARK    1  A    between atoms: O_2  and  C_3 
REMARK    2  A    between atoms: C_6  and  C_7 
REMARK    3  A    between atoms: C_7  and  S_8 
REMARK    4  A    between atoms: C_7  and  C_22 
REMARK    5  A    between atoms: S_8  and  C_9 
REMARK    6  A    between atoms: C_12  and  C_13 
REMARK    7  A    between atoms: C_22  and  C_23 
REMARK       I    between atoms: C_23  and  N_24 
REMARK    8  A    between atoms: N_24  and  C_25 
REMARK    9  A    between atoms: C_25  and  C_26 
REMARK   10  A    between atoms: C_26  and  C_27 
REMARK   11  A    between atoms: C_27  and  N_28 
ROOT
HETATM    1  C   UNL     1       4.300  -4.448  -3.165  1.00  0.00     0.097 C 
ENDROOT
BRANCH   1   2
HETATM    2  C   UNL     1       3.538  -4.175  -4.456  1.00  0.00    -0.043 A 
HETATM    3  C   UNL     1       3.996  -4.634  -5.702  1.00  0.00     0.011 A 
HETATM    4  C   UNL     1       3.235  -4.434  -6.856  1.00  0.00     0.037 A 
HETATM    5  C   UNL     1       1.993  -3.809  -6.779  1.00  0.00     0.068 A 
HETATM    6  C   UNL     1       1.537  -3.320  -5.558  1.00  0.00     0.037 A 
HETATM    7  C   UNL     1       2.304  -3.503  -4.404  1.00  0.00     0.011 A 
BRANCH   5   8
HETATM    8  O   UNL     1       1.306  -3.677  -7.953  1.00  0.00    -0.356 OA
HETATM    9  C   UNL     1      -0.070  -4.041  -7.846  1.00  0.00     0.210 C 
ENDBRANCH   5   8
ENDBRANCH   1   2
BRANCH   1  10
HETATM   10  S   UNL     1       5.920  -3.565  -3.134  1.00  0.00    -0.080 SA
BRANCH  10  11
HETATM   11  C   UNL     1       7.028  -4.695  -3.794  1.00  0.00     0.190 A 
HETATM   12  N   UNL     1       7.268  -5.910  -3.375  1.00  0.00    -0.122 NA
HETATM   13  N   UNL     1       8.251  -6.432  -4.174  1.00  0.00    -0.129 NA
HETATM   14  C   UNL     1       8.632  -5.505  -5.041  1.00  0.00     0.162 A 
HETATM   15  N   UNL     1       7.869  -4.382  -4.817  1.00  0.00    -0.317 N 
HETATM   16  H   UNL     1       7.903  -3.507  -5.318  1.00  0.00     0.169 HD
BRANCH  14  17
HETATM   17  C   UNL     1       9.670  -5.648  -6.062  1.00  0.00     0.012 A 
HETATM   18  C   UNL     1      10.153  -6.930  -6.374  1.00  0.00     0.017 A 
HETATM   19  C   UNL     1      11.153  -7.113  -7.333  1.00  0.00     0.025 A 
HETATM   20  C   UNL     1      11.688  -6.010  -7.990  1.00  0.00     0.034 A 
HETATM   21 CL   UNL     1      12.925  -6.227  -9.163  1.00  0.00    -0.084 Cl
HETATM   22  C   UNL     1      11.227  -4.728  -7.695  1.00  0.00     0.025 A 
HETATM   23  C   UNL     1      10.222  -4.547  -6.737  1.00  0.00     0.017 A 
ENDBRANCH  14  17
ENDBRANCH  10  11
ENDBRANCH   1  10
BRANCH   1  24
HETATM   24  C   UNL     1       4.291  -5.950  -2.859  1.00  0.00     0.123 C 
BRANCH  24  25
HETATM   25  C   UNL     1       4.766  -6.269  -1.461  1.00  0.00     0.219 C 
HETATM   26  N   UNL     1       5.805  -7.163  -1.399  1.00  0.00    -0.361 N 
HETATM   27  H   UNL     1       6.348  -7.317  -2.253  1.00  0.00     0.162 HD
HETATM   28  O   UNL     1       4.259  -5.788  -0.447  1.00  0.00    -0.274 OA
BRANCH  26  29
HETATM   29  C   UNL     1       6.308  -7.729  -0.171  1.00  0.00     0.124 C 
BRANCH  29  30
HETATM   30  C   UNL     1       7.410  -6.908   0.493  1.00  0.00     0.047 C 
BRANCH  30  31
HETATM   31  C   UNL     1       7.074  -5.466   0.875  1.00  0.00     0.236 C 
BRANCH  31  32
HETATM   32  N   UNL     1       5.788  -5.315   1.640  1.00  0.00    -0.067 N 
HETATM   33  H   UNL     1       5.033  -5.656   1.005  1.00  0.00     0.280 HD
HETATM   34  C   UNL     1       5.708  -6.075   2.950  1.00  0.00     0.261 C 
HETATM   35  C   UNL     1       4.333  -5.854   3.592  1.00  0.00     0.195 C 
HETATM   36  O   UNL     1       4.083  -4.460   3.803  1.00  0.00    -0.388 OA
HETATM   37  C   UNL     1       4.083  -3.738   2.566  1.00  0.00     0.195 C 
HETATM   38  C   UNL     1       5.444  -3.846   1.870  1.00  0.00     0.261 C 
ENDBRANCH  31  32
ENDBRANCH  30  31
ENDBRANCH  29  30
ENDBRANCH  26  29
ENDBRANCH  24  25
ENDBRANCH   1  24
TORSDOF 11
