REMARK  4 active torsions:
REMARK  status: ('A' for Active; 'I' for Inactive)
REMARK    1  A    between atoms: C_7  and  C_8 
REMARK    2  A    between atoms: N_9  and  C_10 
REMARK    3  A    between atoms: C_10  and  C_11 
REMARK       I    between atoms: C_11  and  N_12 
REMARK    4  A    between atoms: N_12  and  C_13 
ROOT
HETATM    1  C   UNL     1       2.944  -2.414   0.235  1.00  0.00     0.158 C 
HETATM    2  N   UNL     1       3.855  -3.473  -0.167  1.00  0.00    -0.326 N 
HETATM    3  C   UNL     1       3.854  -4.526   0.723  1.00  0.00     0.255 C 
HETATM    4  O   UNL     1       4.366  -5.619   0.572  1.00  0.00    -0.267 OA
HETATM    5  C   UNL     1       3.069  -4.100   1.889  1.00  0.00     0.040 A 
HETATM    6  C   UNL     1       2.550  -2.830   1.624  1.00  0.00    -0.015 A 
HETATM    7  C   UNL     1       2.852  -4.768   3.079  1.00  0.00     0.017 A 
HETATM    8  C   UNL     1       2.081  -4.121   4.045  1.00  0.00     0.001 A 
HETATM    9  C   UNL     1       1.548  -2.843   3.797  1.00  0.00     0.001 A 
HETATM   10  C   UNL     1       1.773  -2.192   2.578  1.00  0.00     0.011 A 
ENDROOT
BRANCH   1  11
HETATM   11  C   UNL     1       3.590  -1.065   0.323  1.00  0.00     0.004 A 
HETATM   12  C   UNL     1       2.999   0.130  -0.082  1.00  0.00     0.015 A 
HETATM   13  C   UNL     1       1.654   0.408  -0.654  1.00  0.00     0.069 C 
HETATM   14  N   UNL     1       3.904   1.140   0.114  1.00  0.00    -0.359 N 
HETATM   15  H   UNL     1       3.747   2.114  -0.105  1.00  0.00     0.166 HD
HETATM   16  C   UNL     1       5.069   0.651   0.648  1.00  0.00     0.043 A 
HETATM   17  C   UNL     1       4.906  -0.725   0.804  1.00  0.00     0.001 A 
HETATM   18  C   UNL     1       6.245   1.327   0.996  1.00  0.00     0.030 A 
HETATM   19  C   UNL     1       5.984  -1.458   1.348  1.00  0.00     0.014 A 
HETATM   20  C   UNL     1       7.169  -0.800   1.700  1.00  0.00     0.001 A 
HETATM   21  C   UNL     1       7.296   0.574   1.524  1.00  0.00     0.002 A 
ENDBRANCH   1  11
BRANCH   2  22
HETATM   22  C   UNL     1       4.522  -3.491  -1.458  1.00  0.00     0.229 C 
BRANCH  22  23
HETATM   23  C   UNL     1       3.695  -4.101  -2.590  1.00  0.00     0.235 C 
HETATM   24  N   UNL     1       3.089  -5.307  -2.289  1.00  0.00    -0.355 N 
HETATM   25  H   UNL     1       3.383  -5.757  -1.424  1.00  0.00     0.162 HD
HETATM   26  O   UNL     1       3.688  -3.610  -3.717  1.00  0.00    -0.272 OA
BRANCH  24  27
HETATM   27  C   UNL     1       2.512  -6.140  -3.339  1.00  0.00     0.084 C 
HETATM   28  C   UNL     1       3.579  -7.047  -3.971  1.00  0.00     0.025 C 
HETATM   29  C   UNL     1       3.974  -8.215  -3.068  1.00  0.00     0.002 C 
HETATM   30  C   UNL     1       2.754  -9.015  -2.624  1.00  0.00     0.000 C 
HETATM   31  C   UNL     1       1.727  -8.124  -1.934  1.00  0.00     0.002 C 
HETATM   32  C   UNL     1       1.319  -6.947  -2.816  1.00  0.00     0.025 C 
ENDBRANCH  24  27
ENDBRANCH  22  23
ENDBRANCH   2  22
TORSDOF 4
