REMARK  7 active torsions:
REMARK  status: ('A' for Active; 'I' for Inactive)
REMARK    1  A    between atoms: O_2  and  C_3 
REMARK    2  A    between atoms: C_4  and  C_5 
REMARK    3  A    between atoms: N_10  and  C_12 
REMARK    4  A    between atoms: C_12  and  C_13 
REMARK       I    between atoms: C_13  and  N_14 
REMARK    5  A    between atoms: N_14  and  C_15 
REMARK    6  A    between atoms: C_15  and  C_16 
REMARK    7  A    between atoms: C_16  and  C_17 
ROOT
HETATM    1  C   UNL     1       4.688   0.000   1.648  1.00  0.00     0.190 C 
HETATM    2  O   UNL     1       5.877  -0.813   1.689  1.00  0.00    -0.339 OA
HETATM    3  C   UNL     1       5.972  -1.777   0.734  1.00  0.00     0.077 A 
HETATM    4  C   UNL     1       6.098  -1.469  -0.622  1.00  0.00     0.001 A 
HETATM    5  C   UNL     1       6.180  -0.051  -1.090  1.00  0.00     0.276 C 
HETATM    6  N   UNL     1       4.946   0.770  -0.829  1.00  0.00    -0.056 N 
HETATM    7  H   UNL     1       4.106   0.231  -1.080  1.00  0.00     0.280 HD
HETATM    8  C   UNL     1       4.792   1.166   0.634  1.00  0.00     0.273 C 
HETATM    9  C   UNL     1       6.010  -3.098   1.180  1.00  0.00     0.037 A 
HETATM   10  C   UNL     1       6.121  -4.138   0.263  1.00  0.00     0.003 A 
HETATM   11  C   UNL     1       6.212  -3.854  -1.097  1.00  0.00     0.001 A 
HETATM   12  C   UNL     1       6.208  -2.529  -1.538  1.00  0.00     0.012 A 
ENDROOT
BRANCH   6  13
HETATM   13  C   UNL     1       4.908   1.995  -1.751  1.00  0.00     0.337 C 
BRANCH  13  14
HETATM   14  C   UNL     1       3.560   2.717  -1.729  1.00  0.00     0.243 C 
HETATM   15  N   UNL     1       3.601   4.009  -2.183  1.00  0.00    -0.359 N 
HETATM   16  H   UNL     1       4.499   4.463  -2.353  1.00  0.00     0.162 HD
HETATM   17  O   UNL     1       2.551   2.151  -1.317  1.00  0.00    -0.272 OA
BRANCH  15  18
HETATM   18  C   UNL     1       2.510   4.955  -2.001  1.00  0.00     0.130 C 
BRANCH  18  19
HETATM   19  C   UNL     1       2.737   5.839  -0.772  1.00  0.00     0.098 C 
BRANCH  19  20
HETATM   20  C   UNL     1       4.004   6.668  -0.877  1.00  0.00     0.109 A 
HETATM   21  N   UNL     1       5.075   6.189  -1.435  1.00  0.00    -0.234 NA
HETATM   22  C   UNL     1       6.216   7.015  -1.481  1.00  0.00     0.074 A 
HETATM   23  C   UNL     1       6.245   8.293  -0.914  1.00  0.00     0.061 A 
HETATM   24  C   UNL     1       7.365   6.544  -2.122  1.00  0.00     0.032 A 
HETATM   25  C   UNL     1       5.018   8.770  -0.256  1.00  0.00     0.259 A 
HETATM   26  C   UNL     1       7.391   9.091  -0.974  1.00  0.00     0.019 A 
HETATM   27  O   UNL     1       4.947   9.863   0.289  1.00  0.00    -0.267 OA
HETATM   28  N   UNL     1       3.954   7.904  -0.289  1.00  0.00    -0.311 N 
HETATM   29  H   UNL     1       3.115   8.247   0.160  1.00  0.00     0.170 HD
HETATM   30  C   UNL     1       8.530   8.606  -1.615  1.00  0.00     0.001 A 
HETATM   31  C   UNL     1       8.516   7.334  -2.189  1.00  0.00     0.002 A 
ENDBRANCH  19  20
ENDBRANCH  18  19
ENDBRANCH  15  18
ENDBRANCH  13  14
ENDBRANCH   6  13
BRANCH   1  32
HETATM   32  C   UNL     1       3.341  -0.731   1.721  1.00  0.00     0.006 A 
HETATM   33  C   UNL     1       2.583  -0.703   2.914  1.00  0.00     0.077 A 
HETATM   34  C   UNL     1       1.341  -1.350   2.984  1.00  0.00     0.037 A 
HETATM   35  C   UNL     1       0.849  -2.056   1.889  1.00  0.00     0.003 A 
HETATM   36  C   UNL     1       1.590  -2.116   0.718  1.00  0.00     0.001 A 
HETATM   37  C   UNL     1       2.820  -1.459   0.634  1.00  0.00     0.012 A 
BRANCH  33  38
HETATM   38  O   UNL     1       3.101   0.018   3.960  1.00  0.00    -0.355 OA
HETATM   39  C   UNL     1       2.692  -0.385   5.266  1.00  0.00     0.210 C 
ENDBRANCH  33  38
ENDBRANCH   1  32
TORSDOF 7
