REMARK  5 active torsions:
REMARK  status: ('A' for Active; 'I' for Inactive)
REMARK    1  A    between atoms: C_7  and  C_8 
REMARK    2  A    between atoms: N_9  and  N_10 
REMARK       I    between atoms: N_10  and  C_11 
REMARK    3  A    between atoms: C_11  and  C_12 
REMARK    4  A    between atoms: C_12  and  N_13 
REMARK       I    between atoms: N_13  and  C_14 
REMARK    5  A    between atoms: C_14  and  C_15 
ROOT
HETATM    1  N   UNL     1       3.213  -4.741   0.101  1.00  0.00    -0.246 N 
HETATM    2  C   UNL     1       4.030  -5.862   0.077  1.00  0.00     0.255 C 
HETATM    3  O   UNL     1       5.259  -5.861   0.109  1.00  0.00    -0.270 OA
HETATM    4  H   UNL     1       2.198  -4.867   0.160  1.00  0.00     0.192 HD
ENDROOT
BRANCH   1   5
HETATM    5  N   UNL     1       3.755  -3.491   0.091  1.00  0.00    -0.184 NA
HETATM    6  C   UNL     1       2.905  -2.516   0.100  1.00  0.00     0.153 C 
BRANCH   6   7
HETATM    7  C   UNL     1       3.368  -1.139   0.060  1.00  0.00     0.018 A 
HETATM    8  C   UNL     1       4.686  -0.701   0.022  1.00  0.00     0.018 A 
HETATM    9  C   UNL     1       5.970  -1.455   0.013  1.00  0.00     0.069 C 
HETATM   10  N   UNL     1       4.670   0.670  -0.018  1.00  0.00    -0.358 N 
HETATM   11  H   UNL     1       5.491   1.258  -0.054  1.00  0.00     0.166 HD
HETATM   12  C   UNL     1       3.380   1.142  -0.011  1.00  0.00     0.043 A 
HETATM   13  C   UNL     1       2.538   0.032   0.040  1.00  0.00     0.004 A 
HETATM   14  C   UNL     1       2.905   2.459  -0.047  1.00  0.00     0.030 A 
HETATM   15  C   UNL     1       1.143   0.254   0.055  1.00  0.00     0.014 A 
HETATM   16  C   UNL     1       0.650   1.564   0.019  1.00  0.00     0.001 A 
HETATM   17  C   UNL     1       1.521   2.649  -0.031  1.00  0.00     0.002 A 
ENDBRANCH   6   7
ENDBRANCH   1   5
BRANCH   2  18
HETATM   18  C   UNL     1       3.235  -7.162  -0.049  1.00  0.00     0.227 C 
BRANCH  18  19
HETATM   19  N   UNL     1       2.477  -7.494   1.147  1.00  0.00    -0.348 N 
HETATM   20  C   UNL     1       1.278  -6.882   1.433  1.00  0.00     0.252 C 
HETATM   21  O   UNL     1       0.834  -5.953   0.766  1.00  0.00    -0.268 OA
HETATM   22  H   UNL     1       2.936  -8.058   1.851  1.00  0.00     0.163 HD
BRANCH  20  23
HETATM   23  C   UNL     1       0.563  -7.369   2.642  1.00  0.00     0.032 A 
HETATM   24  C   UNL     1      -0.214  -6.464   3.375  1.00  0.00     0.018 A 
HETATM   25  C   UNL     1      -0.913  -6.897   4.506  1.00  0.00     0.025 A 
HETATM   26  C   UNL     1      -0.845  -8.235   4.892  1.00  0.00     0.034 A 
HETATM   27 CL   UNL     1      -1.713  -8.771   6.277  1.00  0.00    -0.084 Cl
HETATM   28  C   UNL     1      -0.085  -9.146   4.158  1.00  0.00     0.025 A 
HETATM   29  C   UNL     1       0.620  -8.715   3.030  1.00  0.00     0.018 A 
ENDBRANCH  20  23
ENDBRANCH  18  19
ENDBRANCH   2  18
TORSDOF 5
