REMARK  8 active torsions:
REMARK  status: ('A' for Active; 'I' for Inactive)
REMARK    1  A    between atoms: C_2  and  C_3 
REMARK    2  A    between atoms: C_3  and  C_4 
REMARK       I    between atoms: C_4  and  N_5 
REMARK    3  A    between atoms: N_8  and  C_9 
REMARK    4  A    between atoms: C_13  and  N_14 
REMARK    5  A    between atoms: N_14  and  C_15 
REMARK    6  A    between atoms: C_15  and  N_16 
REMARK       I    between atoms: N_16  and  C_17 
REMARK    7  A    between atoms: C_17  and  C_18 
REMARK    8  A    between atoms: C_19  and  O_20 
ROOT
HETATM    1  C   UNL     1       8.432  -3.355   0.522  1.00  0.00     0.052 A 
HETATM    2  C   UNL     1       9.746  -3.218   1.020  1.00  0.00     0.062 A 
HETATM    3 CL   UNL     1      10.652  -1.739   0.974  1.00  0.00    -0.082 Cl
HETATM    4  C   UNL     1      10.443  -4.315   1.557  1.00  0.00     0.055 A 
HETATM    5  C   UNL     1       9.882  -5.590   1.568  1.00  0.00     0.036 A 
HETATM    6  C   UNL     1       8.622  -5.771   1.007  1.00  0.00     0.032 A 
HETATM    7  C   UNL     1       7.913  -4.669   0.507  1.00  0.00     0.033 A 
ENDROOT
BRANCH   5   8
HETATM    8  N   UNL     1      10.584  -6.607   2.254  1.00  0.00    -0.333 N 
HETATM    9  H   UNL     1      11.185  -6.274   3.000  1.00  0.00     0.168 HD
BRANCH   8  10
HETATM   10  C   UNL     1      10.274  -7.924   2.319  1.00  0.00     0.179 C 
HETATM   11  S   UNL     1      10.348  -8.730   3.781  1.00  0.00    -0.040 SA
BRANCH  10  12
HETATM   12  N   UNL     1       9.973  -8.635   1.195  1.00  0.00    -0.299 N 
HETATM   13  C   UNL     1      10.666  -8.509  -0.008  1.00  0.00     0.260 C 
HETATM   14  O   UNL     1      11.162  -7.484  -0.454  1.00  0.00    -0.267 OA
HETATM   15  H   UNL     1       9.681  -9.576   1.423  1.00  0.00     0.171 HD
BRANCH  13  16
HETATM   16  C   UNL     1      10.749  -9.771  -0.794  1.00  0.00     0.066 A 
HETATM   17  C   UNL     1      10.470  -9.831  -2.170  1.00  0.00     0.089 A 
HETATM   18  C   UNL     1      10.660 -11.044  -2.865  1.00  0.00    -0.028 A 
HETATM   19  C   UNL     1      10.417 -11.128  -4.348  1.00  0.00     0.051 C 
HETATM   20  C   UNL     1      11.098 -12.183  -2.173  1.00  0.00     0.009 A 
HETATM   21  C   UNL     1      11.370 -12.123  -0.809  1.00  0.00     0.002 A 
HETATM   22  C   UNL     1      11.208 -10.921  -0.124  1.00  0.00     0.020 A 
BRANCH  17  23
HETATM   23  O   UNL     1      10.085  -8.767  -2.944  1.00  0.00    -0.354 OA
HETATM   24  C   UNL     1       8.943  -8.055  -2.477  1.00  0.00     0.210 C 
ENDBRANCH  17  23
ENDBRANCH  13  16
ENDBRANCH  10  12
ENDBRANCH   8  10
ENDBRANCH   5   8
BRANCH   1  25
HETATM   25  N   UNL     1       7.564  -2.330   0.130  1.00  0.00    -0.376 N 
HETATM   26  C   UNL     1       7.072  -2.358  -1.264  1.00  0.00     0.143 C 
HETATM   27  C   UNL     1       5.728  -1.606  -1.367  1.00  0.00     0.145 C 
HETATM   28  N   UNL     1       5.749  -0.271  -0.750  1.00  0.00    -0.349 N 
HETATM   29  C   UNL     1       4.793   0.648  -1.177  1.00  0.00     0.219 C 
HETATM   30  C   UNL     1       6.374  -0.212   0.579  1.00  0.00     0.145 C 
HETATM   31  O   UNL     1       4.051   0.423  -2.133  1.00  0.00    -0.273 OA
HETATM   32  C   UNL     1       7.715  -0.963   0.651  1.00  0.00     0.143 C 
BRANCH  29  33
HETATM   33  C   UNL     1       4.731   1.967  -0.416  1.00  0.00     0.103 C 
BRANCH  33  34
HETATM   34  C   UNL     1       3.674   2.921  -0.967  1.00  0.00     0.005 C 
HETATM   35  C   UNL     1       3.680   4.246  -0.220  1.00  0.00     0.005 C 
ENDBRANCH  33  34
ENDBRANCH  29  33
ENDBRANCH   1  25
TORSDOF 8
