REMARK  10 active torsions:
REMARK  status: ('A' for Active; 'I' for Inactive)
REMARK    1  A    between atoms: C_6  and  N_7 
REMARK    2  A    between atoms: C_8  and  S_9 
REMARK    3  A    between atoms: S_9  and  C_10 
REMARK    4  A    between atoms: C_10  and  C_11 
REMARK       I    between atoms: C_11  and  N_12 
REMARK    5  A    between atoms: N_12  and  C_13 
REMARK    6  A    between atoms: C_13  and  C_14 
REMARK    7  A    between atoms: C_14  and  C_15 
REMARK    8  A    between atoms: C_18  and  S_19 
REMARK    9  A    between atoms: S_19  and  N_20 
REMARK   10  A    between atoms: C_29  and  N_30 
ROOT
HETATM    1  N   UNL     1       6.798   0.286  -0.523  1.00  0.00    -0.276 N 
HETATM    2  C   UNL     1       7.472  -0.836  -0.139  1.00  0.00     0.177 A 
HETATM    3  N   UNL     1       8.796  -1.028  -0.277  1.00  0.00    -0.204 NA
HETATM    4  C   UNL     1       9.411   0.048  -0.768  1.00  0.00     0.162 A 
HETATM    5  C   UNL     1       8.822   1.241  -1.133  1.00  0.00     0.081 A 
HETATM    6  C   UNL     1       7.427   1.380  -1.038  1.00  0.00     0.124 A 
HETATM    7  N   UNL     1      10.752   0.181  -0.984  1.00  0.00    -0.260 N 
HETATM    8  H   UNL     1      11.483  -0.506  -0.820  1.00  0.00     0.191 HD
HETATM    9  N   UNL     1      11.088   1.392  -1.454  1.00  0.00    -0.177 NA
HETATM   10  C   UNL     1       9.927   2.053  -1.532  1.00  0.00     0.068 A 
HETATM   11  C   UNL     1       9.928   3.470  -1.981  1.00  0.00     0.073 C 
ENDROOT
BRANCH   2  12
HETATM   12  S   UNL     1       6.653  -2.121   0.806  1.00  0.00    -0.082 SA
BRANCH  12  13
HETATM   13  C   UNL     1       7.043  -3.587  -0.202  1.00  0.00     0.185 C 
BRANCH  13  14
HETATM   14  C   UNL     1       7.547  -4.696   0.700  1.00  0.00     0.227 C 
HETATM   15  N   UNL     1       6.652  -5.480   1.371  1.00  0.00    -0.360 N 
HETATM   16  H   UNL     1       7.112  -6.118   2.015  1.00  0.00     0.162 HD
HETATM   17  O   UNL     1       8.753  -4.900   0.835  1.00  0.00    -0.273 OA
BRANCH  15  18
HETATM   18  C   UNL     1       5.225  -5.250   1.552  1.00  0.00     0.127 C 
BRANCH  18  19
HETATM   19  C   UNL     1       4.539  -6.324   2.405  1.00  0.00     0.058 C 
BRANCH  19  20
HETATM   20  C   UNL     1       5.104  -6.409   3.805  1.00  0.00    -0.057 A 
HETATM   21  C   UNL     1       4.957  -5.343   4.705  1.00  0.00     0.009 A 
HETATM   22  C   UNL     1       5.536  -5.401   5.974  1.00  0.00     0.025 A 
HETATM   23  C   UNL     1       6.251  -6.540   6.353  1.00  0.00     0.074 A 
HETATM   24  C   UNL     1       6.395  -7.615   5.474  1.00  0.00     0.025 A 
HETATM   25  C   UNL     1       5.817  -7.550   4.205  1.00  0.00     0.009 A 
BRANCH  23  26
HETATM   26  S   UNL     1       7.056  -6.583   7.928  1.00  0.00     0.239 S 
HETATM   27  O   UNL     1       8.119  -7.560   7.889  1.00  0.00    -0.206 OA
HETATM   28  O   UNL     1       7.266  -5.227   8.382  1.00  0.00    -0.206 OA
BRANCH  26  29
HETATM   29  N   UNL     1       5.863  -7.227   8.914  1.00  0.00    -0.225 NA
HETATM   30  H   UNL     1       6.170  -8.127   9.286  1.00  0.00     0.136 HD
HETATM   31  H   UNL     1       5.610  -6.554   9.639  1.00  0.00     0.136 HD
ENDBRANCH  26  29
ENDBRANCH  23  26
ENDBRANCH  19  20
ENDBRANCH  18  19
ENDBRANCH  15  18
ENDBRANCH  13  14
ENDBRANCH  12  13
ENDBRANCH   2  12
BRANCH   1  32
HETATM   32  C   UNL     1       5.367   0.317  -0.388  1.00  0.00     0.045 A 
HETATM   33  C   UNL     1       4.800   1.058   0.645  1.00  0.00     0.054 A 
HETATM   34  C   UNL     1       3.412   1.052   0.780  1.00  0.00     0.042 A 
HETATM   35  C   UNL     1       2.603   0.318  -0.109  1.00  0.00    -0.040 A 
HETATM   36 CL   UNL     1       2.732   1.970   2.071  1.00  0.00    -0.084 Cl
HETATM   37  C   UNL     1       1.103   0.292   0.026  1.00  0.00     0.050 C 
HETATM   38  C   UNL     1       3.211  -0.404  -1.152  1.00  0.00     0.011 A 
HETATM   39  C   UNL     1       4.596  -0.407  -1.300  1.00  0.00     0.031 A 
ENDBRANCH   1  32
BRANCH   6  40
HETATM   40  N   UNL     1       6.753   2.526  -1.434  1.00  0.00    -0.384 N 
HETATM   41  H   UNL     1       7.264   3.254  -1.923  1.00  0.00     0.157 HD
HETATM   42  H   UNL     1       5.748   2.566  -1.550  1.00  0.00     0.157 HD
ENDBRANCH   6  40
TORSDOF 10
