REMARK  9 active torsions:
REMARK  status: ('A' for Active; 'I' for Inactive)
REMARK    1  A    between atoms: O_2  and  C_3 
REMARK    2  A    between atoms: C_9  and  C_13 
REMARK       I    between atoms: C_13  and  N_15 
REMARK    3  A    between atoms: N_15  and  C_16 
REMARK    4  A    between atoms: C_19  and  C_27 
REMARK    5  A    between atoms: C_21  and  O_22 
REMARK    6  A    between atoms: O_22  and  C_23 
REMARK    7  A    between atoms: C_23  and  C_24 
REMARK    8  A    between atoms: C_24  and  C_25 
REMARK    9  A    between atoms: C_25  and  O_26 
ROOT
HETATM    1  C   UNL     1       3.016   9.582   2.540  1.00  0.00     0.068 A 
HETATM    2  C   UNL     1       3.026  10.083   1.237  1.00  0.00     0.033 A 
HETATM    3  C   UNL     1       3.055  11.462   1.006  1.00  0.00     0.015 A 
HETATM    4  C   UNL     1       3.076  12.365   2.072  1.00  0.00    -0.020 A 
HETATM    5  C   UNL     1       3.055  11.865   3.382  1.00  0.00     0.051 A 
HETATM    6  C   UNL     1       3.023  10.484   3.624  1.00  0.00     0.096 A 
ENDROOT
BRANCH   1   7
HETATM    7  N   UNL     1       3.014   8.199   2.844  1.00  0.00    -0.324 N 
HETATM    8  C   UNL     1       3.035   7.137   1.960  1.00  0.00     0.228 C 
HETATM    9  O   UNL     1       3.007   7.220   0.736  1.00  0.00    -0.273 OA
HETATM   10  H   UNL     1       3.044   8.005   3.840  1.00  0.00     0.169 HD
BRANCH   8  11
HETATM   11  C   UNL     1       3.097   5.786   2.655  1.00  0.00     0.107 C 
HETATM   12  C   UNL     1       3.400   4.683   1.647  1.00  0.00     0.190 C 
HETATM   13  O   UNL     1       3.595   3.421   2.292  1.00  0.00    -0.350 OA
HETATM   14  C   UNL     1       2.592   3.077   3.157  1.00  0.00     0.075 A 
HETATM   15  C   UNL     1       2.517   1.731   3.502  1.00  0.00     0.040 A 
HETATM   16  C   UNL     1       1.699   4.002   3.711  1.00  0.00    -0.021 A 
HETATM   17  C   UNL     1       1.530   1.293   4.385  1.00  0.00     0.039 A 
HETATM   18  C   UNL     1       0.623   2.197   4.940  1.00  0.00     0.068 A 
HETATM   19  C   UNL     1       0.705   3.549   4.596  1.00  0.00     0.046 A 
HETATM   20  C   UNL     1       1.775   5.460   3.345  1.00  0.00     0.058 C 
BRANCH  18  21
HETATM   21  O   UNL     1      -0.289   1.636   5.791  1.00  0.00    -0.356 OA
HETATM   22  C   UNL     1      -1.137   2.526   6.505  1.00  0.00     0.210 C 
ENDBRANCH  18  21
ENDBRANCH   8  11
ENDBRANCH   1   7
BRANCH   6  23
HETATM   23  O   UNL     1       2.994   9.908   4.877  1.00  0.00    -0.349 OA
BRANCH  23  24
HETATM   24  C   UNL     1       3.035  10.793   5.998  1.00  0.00     0.178 C 
BRANCH  24  25
HETATM   25  C   UNL     1       2.969   9.974   7.282  1.00  0.00     0.053 C 
BRANCH  25  26
HETATM   26  C   UNL     1       1.641   9.243   7.422  1.00  0.00     0.166 C 
BRANCH  26  27
HETATM   27  O   UNL     1       1.587   8.583   8.681  1.00  0.00    -0.401 OA
HETATM   28  H   UNL     1       2.318   7.943   8.713  1.00  0.00     0.209 HD
ENDBRANCH  26  27
ENDBRANCH  25  26
ENDBRANCH  24  25
ENDBRANCH  23  24
ENDBRANCH   6  23
BRANCH   4  29
HETATM   29  C   UNL     1       3.110  13.795   1.809  1.00  0.00     0.010 A 
HETATM   30  C   UNL     1       2.613  14.546   0.717  1.00  0.00     0.152 A 
HETATM   31  N   UNL     1       2.862  15.853   0.832  1.00  0.00    -0.187 NA
HETATM   32  N   UNL     1       3.528  15.945   1.992  1.00  0.00    -0.289 N 
HETATM   33  H   UNL     1       3.841  16.862   2.295  1.00  0.00     0.188 HD
HETATM   34  C   UNL     1       3.702  14.743   2.617  1.00  0.00     0.123 A 
ENDBRANCH   4  29
TORSDOF 9
