REMARK  4 active torsions:
REMARK  status: ('A' for Active; 'I' for Inactive)
REMARK    1  A    between atoms: C_2  and  O_3 
REMARK    2  A    between atoms: O_3  and  C_4 
REMARK    3  A    between atoms: C_9  and  N_10 
REMARK       I    between atoms: N_10  and  C_11 
REMARK       I    between atoms: C_11  and  N_12 
REMARK       I    between atoms: N_12  and  C_13 
REMARK    4  A    between atoms: C_13  and  C_14 
ROOT
HETATM    1  N   UNL     1      10.337  -2.063   3.952  1.00  0.00    -0.019 N 
HETATM    2  C   UNL     1      11.055  -3.193   4.320  1.00  0.00     0.693 C 
HETATM    3  N   UNL     1      12.391  -3.271   4.045  1.00  0.00    -0.155 N 
HETATM    4  C   UNL     1      13.210  -4.404   4.317  1.00  0.00     0.269 C 
HETATM    5  O   UNL     1      12.792  -5.309   5.025  1.00  0.00    -0.267 OA
HETATM    6  N   UNL     1      10.423  -4.234   4.908  1.00  0.00    -0.234 N 
HETATM    7  H   UNL     1       9.408  -4.190   5.016  1.00  0.00     0.174 HD
HETATM    8  H   UNL     1      10.930  -5.063   5.217  1.00  0.00     0.174 HD
HETATM    9  H   UNL     1      10.804  -1.266   3.551  1.00  0.00     0.203 HD
HETATM   10  H   UNL     1      12.815  -2.479   3.588  1.00  0.00     0.187 HD
ENDROOT
BRANCH   1  11
HETATM   11  C   UNL     1       8.965  -1.948   3.811  1.00  0.00     0.742 A 
HETATM   12  N   UNL     1       8.514  -0.801   3.306  1.00  0.00    -0.062 NA
HETATM   13  C   UNL     1       7.204  -0.709   3.035  1.00  0.00     0.088 A 
HETATM   14  C   UNL     1       6.313  -1.768   3.245  1.00  0.00     0.021 A 
HETATM   15  C   UNL     1       6.704   0.474   2.502  1.00  0.00     0.036 A 
HETATM   16  C   UNL     1       4.954  -1.626   2.878  1.00  0.00     0.052 A 
HETATM   17  C   UNL     1       6.880  -2.916   3.807  1.00  0.00     0.062 A 
HETATM   18  C   UNL     1       4.484  -0.449   2.299  1.00  0.00     0.069 A 
HETATM   19  C   UNL     1       5.359   0.616   2.136  1.00  0.00     0.039 A 
HETATM   20  N   UNL     1       8.199  -3.008   4.100  1.00  0.00    -0.066 NA
HETATM   21  C   UNL     1       6.063  -4.146   4.087  1.00  0.00     0.072 C 
BRANCH  18  22
HETATM   22  O   UNL     1       3.166  -0.468   1.948  1.00  0.00    -0.351 OA
BRANCH  22  23
HETATM   23  C   UNL     1       2.725   0.547   1.045  1.00  0.00     0.171 C 
HETATM   24  C   UNL     1       1.368   0.133   0.504  1.00  0.00     0.034 C 
ENDBRANCH  22  23
ENDBRANCH  18  22
ENDBRANCH   1  11
BRANCH   4  25
HETATM   25  C   UNL     1      14.542  -4.454   3.673  1.00  0.00     0.032 A 
HETATM   26  C   UNL     1      14.786  -3.816   2.450  1.00  0.00     0.017 A 
HETATM   27  C   UNL     1      16.030  -3.961   1.828  1.00  0.00     0.007 A 
HETATM   28  C   UNL     1      17.033  -4.740   2.415  1.00  0.00    -0.062 A 
HETATM   29  C   UNL     1      18.354  -4.941   1.727  1.00  0.00     0.048 C 
HETATM   30  C   UNL     1      16.781  -5.375   3.636  1.00  0.00     0.007 A 
HETATM   31  C   UNL     1      15.541  -5.238   4.262  1.00  0.00     0.017 A 
ENDBRANCH   4  25
TORSDOF 4
