REMARK  4 active torsions:
REMARK  status: ('A' for Active; 'I' for Inactive)
REMARK    1  A    between atoms: C_7  and  C_8 
REMARK    2  A    between atoms: C_8  and  O_9 
REMARK    3  A    between atoms: N_12  and  C_14 
REMARK    4  A    between atoms: C_14  and  C_15 
ROOT
HETATM    1  C   UNL     1       2.799  -0.915  -0.821  1.00  0.00     0.001 A 
HETATM    2  C   UNL     1       1.432  -1.027  -1.085  1.00  0.00     0.010 A 
HETATM    3  C   UNL     1       0.517  -0.324  -0.298  1.00  0.00    -0.018 A 
HETATM    4  C   UNL     1       0.989   0.492   0.736  1.00  0.00     0.075 A 
HETATM    5  O   UNL     1       0.092   1.192   1.504  1.00  0.00    -0.350 OA
HETATM    6  C   UNL     1      -0.851   1.843   0.642  1.00  0.00     0.189 C 
HETATM    7  C   UNL     1      -1.737   0.824  -0.110  1.00  0.00     0.036 C 
HETATM    8  C   UNL     1      -0.968  -0.475  -0.454  1.00  0.00     0.061 C 
HETATM    9  C   UNL     1      -2.901   0.386   0.798  1.00  0.00     0.250 C 
HETATM   10  N   UNL     1      -2.904  -1.124   0.783  1.00  0.00    -0.064 N 
HETATM   11  H   UNL     1      -3.207  -1.429   1.724  1.00  0.00     0.280 HD
HETATM   12  C   UNL     1      -1.485  -1.519   0.540  1.00  0.00     0.245 C 
HETATM   13  C   UNL     1       2.343   0.581   1.026  1.00  0.00     0.037 A 
HETATM   14  C   UNL     1       3.252  -0.121   0.236  1.00  0.00     0.003 A 
ENDROOT
BRANCH  10  15
HETATM   15  C   UNL     1      -3.922  -1.769  -0.126  1.00  0.00     0.294 C 
BRANCH  15  16
HETATM   16  C   UNL     1      -5.334  -1.625   0.405  1.00  0.00     0.068 A 
HETATM   17  N   UNL     1      -5.440  -1.378   1.756  1.00  0.00    -0.233 NA
HETATM   18  C   UNL     1      -6.637  -1.208   2.241  1.00  0.00     0.137 A 
HETATM   19  N   UNL     1      -7.806  -1.273   1.489  1.00  0.00    -0.272 N 
HETATM   20  C   UNL     1      -6.787  -0.914   3.695  1.00  0.00     0.053 A 
HETATM   21  C   UNL     1      -7.740  -1.536   0.132  1.00  0.00     0.255 A 
HETATM   22  C   UNL     1      -9.052  -1.076   2.079  1.00  0.00     0.125 A 
HETATM   23  O   UNL     1      -8.693  -1.627  -0.637  1.00  0.00    -0.268 OA
HETATM   24  C   UNL     1      -6.385  -1.705  -0.418  1.00  0.00     0.104 A 
HETATM   25  C   UNL     1      -9.178  -0.809   3.385  1.00  0.00     0.050 A 
HETATM   26  C   UNL     1      -8.006  -0.724   4.216  1.00  0.00     0.029 A 
HETATM   27 CL   UNL     1     -10.720  -0.560   4.103  1.00  0.00    -0.083 Cl
ENDBRANCH  15  16
ENDBRANCH  10  15
BRANCH   7  28
HETATM   28  C   UNL     1      -2.277   1.501  -1.380  1.00  0.00     0.178 C 
BRANCH  28  29
HETATM   29  O   UNL     1      -3.087   2.605  -1.011  1.00  0.00    -0.400 OA
HETATM   30  H   UNL     1      -3.251   3.141  -1.812  1.00  0.00     0.209 HD
ENDBRANCH  28  29
ENDBRANCH   7  28
TORSDOF 4
