REMARK  6 active torsions:
REMARK  status: ('A' for Active; 'I' for Inactive)
REMARK    1  A    between atoms: C_7  and  C_8 
REMARK    2  A    between atoms: C_8  and  O_9 
REMARK    3  A    between atoms: N_12  and  C_13 
REMARK    4  A    between atoms: C_13  and  C_14 
REMARK    5  A    between atoms: C_14  and  C_15 
REMARK    6  A    between atoms: C_15  and  C_16 
ROOT
HETATM    1  C   UNL     1       2.718  -2.729  -0.410  1.00  0.00     0.199 A 
HETATM    2  C   UNL     1       3.047  -4.202  -0.830  1.00  0.00     0.269 A 
HETATM    3  O   UNL     1       3.333  -4.612  -1.948  1.00  0.00    -0.269 OA
HETATM    4  N   UNL     1       2.997  -4.985   0.340  1.00  0.00    -0.314 N 
HETATM    5  C   UNL     1       2.621  -4.214   1.451  1.00  0.00     0.047 A 
HETATM    6  C   UNL     1       2.424  -2.884   1.065  1.00  0.00     0.017 A 
HETATM    7  C   UNL     1       2.438  -4.614   2.763  1.00  0.00     0.030 A 
HETATM    8  C   UNL     1       2.049  -3.650   3.698  1.00  0.00     0.002 A 
HETATM    9  C   UNL     1       1.855  -2.313   3.316  1.00  0.00     0.001 A 
HETATM   10  C   UNL     1       2.049  -1.919   1.992  1.00  0.00     0.013 A 
ENDROOT
BRANCH   1  11
HETATM   11  C   UNL     1       1.465  -2.192  -1.069  1.00  0.00     0.025 A 
HETATM   12  C   UNL     1       1.306  -0.943  -1.671  1.00  0.00     0.016 A 
HETATM   13  C   UNL     1       2.257   0.190  -1.841  1.00  0.00     0.069 C 
HETATM   14  N   UNL     1       0.033  -0.865  -2.171  1.00  0.00    -0.359 N 
HETATM   15  H   UNL     1      -0.345  -0.074  -2.673  1.00  0.00     0.166 HD
HETATM   16  C   UNL     1      -0.666  -2.015  -1.909  1.00  0.00     0.043 A 
HETATM   17  C   UNL     1       0.193  -2.870  -1.218  1.00  0.00     0.003 A 
HETATM   18  C   UNL     1      -1.985  -2.352  -2.239  1.00  0.00     0.030 A 
HETATM   19  C   UNL     1      -0.315  -4.132  -0.834  1.00  0.00     0.014 A 
HETATM   20  C   UNL     1      -1.632  -4.488  -1.154  1.00  0.00     0.001 A 
HETATM   21  C   UNL     1      -2.453  -3.608  -1.849  1.00  0.00     0.002 A 
ENDBRANCH   1  11
BRANCH   1  22
HETATM   22  O   UNL     1       3.858  -1.885  -0.564  1.00  0.00    -0.371 OA
HETATM   23  H   UNL     1       4.480  -2.128   0.141  1.00  0.00     0.212 HD
ENDBRANCH   1  22
BRANCH   4  24
HETATM   24  C   UNL     1       3.160  -6.422   0.330  1.00  0.00     0.133 C 
BRANCH  24  25
HETATM   25  C   UNL     1       4.586  -6.884   0.032  1.00  0.00     0.025 C 
BRANCH  25  26
HETATM   26  C   UNL     1       5.592  -6.444   1.097  1.00  0.00     0.040 C 
BRANCH  26  27
HETATM   27  C   UNL     1       6.938  -7.092   0.876  1.00  0.00    -0.058 A 
HETATM   28  C   UNL     1       7.769  -6.665  -0.169  1.00  0.00     0.007 A 
HETATM   29  C   UNL     1       8.997  -7.287  -0.397  1.00  0.00     0.001 A 
HETATM   30  C   UNL     1       9.408  -8.341   0.418  1.00  0.00     0.000 A 
HETATM   31  C   UNL     1       8.591  -8.772   1.461  1.00  0.00     0.001 A 
HETATM   32  C   UNL     1       7.361  -8.152   1.689  1.00  0.00     0.007 A 
ENDBRANCH  26  27
ENDBRANCH  25  26
ENDBRANCH  24  25
ENDBRANCH   4  24
TORSDOF 6
