REMARK  4 active torsions:
REMARK  status: ('A' for Active; 'I' for Inactive)
REMARK    1  A    between atoms: C_9  and  C_10 
REMARK    2  A    between atoms: C_20  and  C_21 
REMARK       I    between atoms: C_21  and  N_22 
REMARK    3  A    between atoms: N_22  and  C_23 
REMARK    4  A    between atoms: C_24  and  O_25 
ROOT
HETATM    1  C   UNL     1       0.965   0.219  -0.704  1.00  0.00     0.070 C 
HETATM    2  C   UNL     1       2.337   0.070  -0.096  1.00  0.00     0.037 C 
HETATM    3  N   UNL     1       2.920   1.243   0.379  1.00  0.00    -0.192 N 
HETATM    4  C   UNL     1       4.243   1.341   0.628  1.00  0.00     0.725 A 
HETATM    5  N   UNL     1       5.007   0.204   0.657  1.00  0.00    -0.084 N 
HETATM    6  N   UNL     1       6.315   0.496   0.813  1.00  0.00    -0.149 NA
HETATM    7  C   UNL     1       6.257   1.828   0.927  1.00  0.00     0.275 A 
HETATM    8  N   UNL     1       5.007   2.385   0.823  1.00  0.00    -0.054 NA
HETATM    9  C   UNL     1       4.466  -1.152   0.481  1.00  0.00     0.203 C 
HETATM   10  C   UNL     1       3.044  -1.089  -0.062  1.00  0.00     0.062 C 
HETATM   11  H   UNL     1       2.408   2.109   0.226  1.00  0.00     0.184 HD
ENDROOT
BRANCH  10  12
HETATM   12  C   UNL     1       2.570  -2.328  -0.722  1.00  0.00     0.256 C 
HETATM   13  N   UNL     1       1.405  -2.823  -0.193  1.00  0.00    -0.321 N 
HETATM   14  H   UNL     1       1.067  -2.444   0.687  1.00  0.00     0.169 HD
HETATM   15  O   UNL     1       3.234  -2.798  -1.638  1.00  0.00    -0.267 OA
BRANCH  13  16
HETATM   16  C   UNL     1       0.555  -3.802  -0.757  1.00  0.00     0.068 A 
HETATM   17  C   UNL     1      -0.567  -4.199   0.000  1.00  0.00     0.095 A 
HETATM   18  C   UNL     1      -1.488  -5.103  -0.541  1.00  0.00     0.039 A 
HETATM   19  C   UNL     1      -1.290  -5.624  -1.820  1.00  0.00     0.003 A 
HETATM   20  C   UNL     1      -0.173  -5.247  -2.562  1.00  0.00     0.002 A 
HETATM   21  C   UNL     1       0.747  -4.340  -2.033  1.00  0.00     0.032 A 
BRANCH  17  22
HETATM   22  O   UNL     1      -0.686  -3.619   1.243  1.00  0.00    -0.354 OA
HETATM   23  C   UNL     1      -1.523  -4.303   2.170  1.00  0.00     0.210 C 
ENDBRANCH  17  22
ENDBRANCH  13  16
ENDBRANCH  10  12
BRANCH   9  24
HETATM   24  C   UNL     1       4.544  -1.910   1.816  1.00  0.00    -0.017 A 
HETATM   25  C   UNL     1       5.310  -3.105   1.982  1.00  0.00    -0.017 A 
HETATM   26  C   UNL     1       5.377  -3.693   3.275  1.00  0.00    -0.025 A 
HETATM   27  C   UNL     1       6.024  -3.758   0.947  1.00  0.00     0.013 A 
HETATM   28  C   UNL     1       6.142  -4.850   3.494  1.00  0.00     0.012 A 
HETATM   29  C   UNL     1       4.686  -3.121   4.351  1.00  0.00     0.012 A 
HETATM   30  C   UNL     1       6.841  -5.456   2.455  1.00  0.00     0.001 A 
HETATM   31  C   UNL     1       6.778  -4.913   1.181  1.00  0.00     0.001 A 
HETATM   32  C   UNL     1       3.921  -1.975   4.181  1.00  0.00     0.002 A 
HETATM   33  C   UNL     1       3.850  -1.377   2.929  1.00  0.00     0.010 A 
ENDBRANCH   9  24
TORSDOF 4
