REMARK  3 active torsions:
REMARK  status: ('A' for Active; 'I' for Inactive)
REMARK    1  A    between atoms: C_2  and  C_3 
REMARK    2  A    between atoms: C_7  and  N_8 
REMARK       I    between atoms: N_8  and  C_9 
REMARK    3  A    between atoms: C_9  and  C_10 
ROOT
HETATM    1  N   UNL     1       5.794  -6.976   0.451  1.00  0.00    -0.311 N 
HETATM    2  C   UNL     1       5.956  -5.815   1.191  1.00  0.00     0.234 C 
HETATM    3  O   UNL     1       6.986  -5.139   1.190  1.00  0.00    -0.272 OA
HETATM    4  H   UNL     1       4.918  -7.488   0.492  1.00  0.00     0.170 HD
ENDROOT
BRANCH   2   5
HETATM    5  C   UNL     1       4.771  -5.420   2.058  1.00  0.00     0.138 C 
HETATM    6  C   UNL     1       3.468  -5.393   1.343  1.00  0.00    -0.008 A 
HETATM    7  C   UNL     1       2.711  -6.489   1.731  1.00  0.00     0.076 A 
HETATM    8  C   UNL     1       2.998  -4.506   0.389  1.00  0.00     0.030 A 
HETATM    9  C   UNL     1       1.471  -6.752   1.188  1.00  0.00     0.039 A 
HETATM   10  O   UNL     1       3.336  -7.289   2.650  1.00  0.00    -0.349 OA
HETATM   11  C   UNL     1       0.977  -5.864   0.229  1.00  0.00     0.022 A 
HETATM   12  C   UNL     1       1.738  -4.751  -0.164  1.00  0.00     0.011 A 
HETATM   13 BR   UNL     1       1.052  -3.571  -1.473  1.00  0.00    -0.051 Br
HETATM   14  C   UNL     1       4.458  -6.490   3.109  1.00  0.00     0.194 C 
ENDBRANCH   2   5
BRANCH   1  15
HETATM   15  C   UNL     1       6.778  -7.450  -0.391  1.00  0.00     0.126 A 
HETATM   16  N   UNL     1       8.002  -6.859  -0.570  1.00  0.00    -0.262 N 
HETATM   17  N   UNL     1       8.788  -7.505  -1.450  1.00  0.00    -0.178 NA
HETATM   18  H   UNL     1       8.340  -6.014  -0.116  1.00  0.00     0.191 HD
HETATM   19  C   UNL     1       8.040  -8.541  -1.848  1.00  0.00     0.058 A 
HETATM   20  C   UNL     1       6.775  -8.553  -1.209  1.00  0.00     0.079 A 
BRANCH  19  21
HETATM   21  C   UNL     1       8.566  -9.509  -2.854  1.00  0.00     0.056 C 
HETATM   22  C   UNL     1       8.192  -9.122  -4.277  1.00  0.00     0.011 C 
ENDBRANCH  19  21
ENDBRANCH   1  15
TORSDOF 3
