REMARK  3 active torsions:
REMARK  status: ('A' for Active; 'I' for Inactive)
REMARK    1  A    between atoms: C_2  and  C_3 
REMARK    2  A    between atoms: C_12  and  C_13 
REMARK    3  A    between atoms: C_13  and  C_14 
ROOT
HETATM    1  C   UNL     1       3.183   1.493   0.398  1.00  0.00    -0.027 A 
HETATM    2  C   UNL     1       2.532   2.557  -0.248  1.00  0.00     0.039 A 
HETATM    3  C   UNL     1       1.441   2.332  -1.261  1.00  0.00     0.071 C 
HETATM    4  N   UNL     1       2.789   3.853  -0.009  1.00  0.00    -0.245 NA
HETATM    5  C   UNL     1       3.766   4.101   0.877  1.00  0.00     0.111 A 
HETATM    6  C   UNL     1       4.539   3.171   1.562  1.00  0.00     0.034 A 
HETATM    7  C   UNL     1       4.201   1.791   1.356  1.00  0.00    -0.038 A 
HETATM    8  C   UNL     1       4.883   0.672   2.104  1.00  0.00     0.050 C 
HETATM    9  S   UNL     1       4.129   5.710   1.266  1.00  0.00    -0.063 SA
HETATM   10  C   UNL     1       5.389   5.250   2.326  1.00  0.00     0.085 A 
HETATM   11  C   UNL     1       5.535   3.872   2.363  1.00  0.00     0.061 A 
HETATM   12  N   UNL     1       6.486   3.244   3.096  1.00  0.00    -0.397 N 
HETATM   13  H   UNL     1       7.186   3.733   3.646  1.00  0.00     0.156 HD
HETATM   14  H   UNL     1       6.784   2.300   2.871  1.00  0.00     0.156 HD
ENDROOT
BRANCH  10  15
HETATM   15  C   UNL     1       6.083   6.325   3.016  1.00  0.00     0.201 C 
HETATM   16  O   UNL     1       5.510   7.308   3.488  1.00  0.00    -0.286 OA
BRANCH  15  17
HETATM   17  C   UNL     1       7.564   6.287   3.186  1.00  0.00     0.018 A 
HETATM   18  C   UNL     1       8.405   5.729   2.212  1.00  0.00     0.055 A 
HETATM   19  C   UNL     1       9.763   5.761   2.450  1.00  0.00     0.106 A 
HETATM   20  C   UNL     1      10.294   6.326   3.588  1.00  0.00     0.105 A 
HETATM   21  O   UNL     1      10.724   5.262   1.626  1.00  0.00    -0.323 OA
HETATM   22  O   UNL     1      11.651   6.254   3.619  1.00  0.00    -0.323 OA
HETATM   23  C   UNL     1       9.498   6.897   4.555  1.00  0.00     0.040 A 
HETATM   24  C   UNL     1      11.920   5.599   2.362  1.00  0.00     0.352 A 
HETATM   25  C   UNL     1       8.116   6.880   4.346  1.00  0.00     0.018 A 
ENDBRANCH  15  17
ENDBRANCH  10  15
BRANCH   1  26
HETATM   26  C   UNL     1       2.820   0.061   0.041  1.00  0.00     0.036 C 
HETATM   27  C   UNL     1       3.725  -0.506  -1.044  1.00  0.00     0.010 C 
ENDBRANCH   1  26
TORSDOF 3
