REMARK  7 active torsions:
REMARK  status: ('A' for Active; 'I' for Inactive)
REMARK    1  A    between atoms: C_4  and  N_5 
REMARK    2  A    between atoms: C_6  and  S_7 
REMARK    3  A    between atoms: S_7  and  C_8 
REMARK    4  A    between atoms: C_8  and  C_9 
REMARK       I    between atoms: C_9  and  N_10 
REMARK    5  A    between atoms: C_12  and  C_13 
REMARK    6  A    between atoms: C_13  and  N_14 
REMARK       I    between atoms: N_14  and  C_15 
REMARK       I    between atoms: C_15  and  N_16 
REMARK    7  A    between atoms: N_16  and  C_17 
ROOT
HETATM    1  C   UNL     1       0.245   6.195   0.570  1.00  0.00     0.229 C 
HETATM    2  N   UNL     1      -0.337   5.123  -0.127  1.00  0.00    -0.351 N 
HETATM    3  C   UNL     1      -1.306   5.315  -1.203  1.00  0.00     0.132 C 
HETATM    4  C   UNL     1      -1.517   4.095  -2.110  1.00  0.00     0.021 C 
HETATM    5  C   UNL     1      -1.670   2.806  -1.294  1.00  0.00     0.009 C 
HETATM    6  C   UNL     1      -0.562   2.653  -0.262  1.00  0.00     0.020 C 
HETATM    7  C   UNL     1      -0.480   3.881   0.635  1.00  0.00     0.126 C 
HETATM    8  O   UNL     1       0.737   6.019   1.693  1.00  0.00    -0.273 OA
ENDROOT
BRANCH   1   9
HETATM    9  C   UNL     1       0.488   7.529  -0.126  1.00  0.00     0.185 C 
BRANCH   9  10
HETATM   10  S   UNL     1      -0.920   8.538  -0.624  1.00  0.00    -0.082 SA
BRANCH  10  11
HETATM   11  C   UNL     1      -2.091   8.305   0.630  1.00  0.00     0.173 A 
HETATM   12  N   UNL     1      -3.455   8.556   0.494  1.00  0.00    -0.300 N 
HETATM   13  C   UNL     1      -3.958   8.478   1.783  1.00  0.00     0.118 A 
HETATM   14  C   UNL     1      -2.908   8.117   2.590  1.00  0.00     0.137 A 
HETATM   15  N   UNL     1      -1.757   8.020   1.868  1.00  0.00    -0.235 NA
BRANCH  12  16
HETATM   16  C   UNL     1      -4.245   8.820  -0.668  1.00  0.00     0.042 A 
HETATM   17  C   UNL     1      -3.897   8.299  -1.922  1.00  0.00     0.037 A 
HETATM   18  C   UNL     1      -4.680   8.561  -3.055  1.00  0.00    -0.059 A 
HETATM   19  C   UNL     1      -4.312   7.983  -4.392  1.00  0.00     0.048 C 
HETATM   20  C   UNL     1      -5.834   9.339  -2.923  1.00  0.00     0.013 A 
HETATM   21  C   UNL     1      -6.209   9.857  -1.678  1.00  0.00    -0.059 A 
HETATM   22  C   UNL     1      -5.417   9.584  -0.553  1.00  0.00     0.037 A 
HETATM   23  C   UNL     1      -7.452  10.691  -1.565  1.00  0.00     0.048 C 
ENDBRANCH  12  16
ENDBRANCH  10  11
ENDBRANCH   9  10
ENDBRANCH   1   9
BRANCH   4  24
HETATM   24  C   UNL     1      -0.389   4.027  -3.157  1.00  0.00     0.130 C 
BRANCH  24  25
HETATM   25  N   UNL     1      -0.608   3.035  -4.195  1.00  0.00    -0.342 N 
HETATM   26  C   UNL     1      -1.605   3.181  -5.113  1.00  0.00     0.320 C 
HETATM   27  N   UNL     1      -1.679   2.259  -6.113  1.00  0.00    -0.309 N 
HETATM   28  O   UNL     1      -2.393   4.124  -5.109  1.00  0.00    -0.247 OA
HETATM   29  H   UNL     1      -2.328   2.565  -6.828  1.00  0.00     0.170 HD
HETATM   30  H   UNL     1       0.234   2.646  -4.596  1.00  0.00     0.164 HD
BRANCH  27  31
HETATM   31  C   UNL     1      -1.060   1.013  -6.319  1.00  0.00     0.039 A 
HETATM   32  C   UNL     1      -0.398   0.284  -5.331  1.00  0.00     0.071 A 
HETATM   33  C   UNL     1       0.200  -0.933  -5.652  1.00  0.00     0.118 A 
HETATM   34  F   UNL     1       0.846  -1.617  -4.698  1.00  0.00    -0.206 F 
HETATM   35  C   UNL     1       0.136  -1.455  -6.937  1.00  0.00     0.042 A 
HETATM   36  C   UNL     1      -0.556  -0.756  -7.920  1.00  0.00     0.005 A 
HETATM   37  C   UNL     1      -1.158   0.467  -7.608  1.00  0.00     0.030 A 
ENDBRANCH  27  31
ENDBRANCH  24  25
ENDBRANCH   4  24
TORSDOF 7
