REMARK  4 active torsions:
REMARK  status: ('A' for Active; 'I' for Inactive)
REMARK    1  A    between atoms: C_4  and  C_5 
REMARK    2  A    between atoms: C_7  and  N_8 
REMARK       I    between atoms: N_8  and  C_9 
REMARK    3  A    between atoms: C_9  and  C_10 
REMARK    4  A    between atoms: C_10  and  C_11 
ROOT
HETATM    1  C   UNL     1       6.934   0.429   0.172  1.00  0.00     0.019 A 
HETATM    2  C   UNL     1       6.979   1.832   0.080  1.00  0.00     0.045 A 
HETATM    3  C   UNL     1       8.172   2.497  -0.222  1.00  0.00     0.035 A 
HETATM    4  C   UNL     1       9.334   1.743  -0.434  1.00  0.00     0.029 A 
HETATM    5  C   UNL     1       9.305   0.351  -0.351  1.00  0.00     0.003 A 
HETATM    6  C   UNL     1       8.112  -0.300  -0.048  1.00  0.00     0.016 A 
ENDROOT
BRANCH   3   7
HETATM    7  N   UNL     1       8.298   3.899  -0.327  1.00  0.00    -0.327 N 
HETATM    8  C   UNL     1       7.299   4.857  -0.204  1.00  0.00     0.227 C 
HETATM    9  O   UNL     1       6.107   4.630  -0.010  1.00  0.00    -0.273 OA
HETATM   10  H   UNL     1       9.230   4.238  -0.529  1.00  0.00     0.169 HD
BRANCH   8  11
HETATM   11  C   UNL     1       7.839   6.277  -0.411  1.00  0.00     0.159 C 
BRANCH  11  12
HETATM   12  C   UNL     1       7.097   7.333   0.351  1.00  0.00     0.017 A 
HETATM   13  N   UNL     1       5.782   7.196   0.740  1.00  0.00    -0.369 N 
HETATM   14  H   UNL     1       5.223   6.362   0.581  1.00  0.00     0.165 HD
HETATM   15  C   UNL     1       5.370   8.329   1.388  1.00  0.00     0.088 A 
HETATM   16  C   UNL     1       6.425   9.210   1.418  1.00  0.00     0.019 A 
HETATM   17  C   UNL     1       7.514   8.585   0.765  1.00  0.00     0.027 A 
ENDBRANCH  11  12
ENDBRANCH   8  11
ENDBRANCH   3   7
BRANCH   1  18
HETATM   18  C   UNL     1       5.703  -0.290   0.495  1.00  0.00     0.180 A 
HETATM   19  N   UNL     1       5.520  -1.586   0.673  1.00  0.00    -0.226 NA
HETATM   20  C   UNL     1       4.178  -1.704   0.956  1.00  0.00     0.063 A 
HETATM   21  C   UNL     1       3.567  -3.020   1.233  1.00  0.00     0.073 C 
HETATM   22  C   UNL     1       3.591  -0.457   0.927  1.00  0.00     0.076 A 
HETATM   23  O   UNL     1       4.563   0.457   0.636  1.00  0.00    -0.294 OA
HETATM   24  C   UNL     1       2.227   0.053   1.139  1.00  0.00     0.079 C 
ENDBRANCH   1  18
TORSDOF 4
