REMARK  2 active torsions:
REMARK  status: ('A' for Active; 'I' for Inactive)
REMARK       I    between atoms: N_4  and  C_5 
REMARK       I    between atoms: C_5  and  N_6 
REMARK    1  A    between atoms: N_6  and  C_7 
REMARK    2  A    between atoms: C_20  and  C_21 
ROOT
HETATM    1  C   UNL     1       2.912  -0.120  -1.367  1.00  0.00     0.011 C 
HETATM    2  C   UNL     1       2.470  -0.138   0.096  1.00  0.00     0.002 C 
HETATM    3  C   UNL     1       3.031   1.061   0.858  1.00  0.00     0.132 C 
HETATM    4  N   UNL     1       4.303   0.591   1.377  1.00  0.00    -0.325 N 
HETATM    5  C   UNL     1       5.504   1.277   1.393  1.00  0.00     0.323 C 
HETATM    6  N   UNL     1       5.371   2.639   1.239  1.00  0.00    -0.309 N 
HETATM    7  O   UNL     1       6.576   0.692   1.531  1.00  0.00    -0.247 OA
HETATM    8  C   UNL     1       4.267  -0.849   1.608  1.00  0.00     0.125 C 
HETATM    9  C   UNL     1       3.031  -1.358   0.840  1.00  0.00     0.036 C 
HETATM   10  H   UNL     1       4.480   3.011   1.527  1.00  0.00     0.170 HD
ENDROOT
BRANCH   6  11
HETATM   11  C   UNL     1       6.398   3.571   0.988  1.00  0.00     0.038 A 
HETATM   12  C   UNL     1       7.682   3.208   0.572  1.00  0.00     0.062 A 
HETATM   13  C   UNL     1       8.641   4.192   0.316  1.00  0.00     0.070 A 
HETATM   14  C   UNL     1       8.327   5.542   0.466  1.00  0.00     0.096 A 
HETATM   15  N   UNL     1       9.907   3.813  -0.130  1.00  0.00    -0.323 N 
HETATM   16  O   UNL     1       9.200   6.561   0.203  1.00  0.00    -0.335 OA
HETATM   17  C   UNL     1       7.044   5.911   0.861  1.00  0.00     0.041 A 
HETATM   18  C   UNL     1      10.564   6.171   0.063  1.00  0.00     0.217 C 
HETATM   19  C   UNL     1      10.892   4.732  -0.362  1.00  0.00     0.251 C 
HETATM   20  C   UNL     1      11.280   6.473   1.378  1.00  0.00     0.050 C 
HETATM   21  O   UNL     1      11.986   4.396  -0.811  1.00  0.00    -0.270 OA
HETATM   22  C   UNL     1       6.083   4.929   1.121  1.00  0.00     0.032 A 
HETATM   23  H   UNL     1      10.121   2.844  -0.327  1.00  0.00     0.169 HD
ENDBRANCH   6  11
BRANCH   8  24
HETATM   24  C   UNL     1       4.272  -1.163   3.093  1.00  0.00     0.003 A 
HETATM   25  C   UNL     1       3.145  -0.998   3.908  1.00  0.00     0.124 A 
HETATM   26  F   UNL     1       1.992  -0.545   3.394  1.00  0.00    -0.205 F 
HETATM   27  C   UNL     1       3.179  -1.282   5.273  1.00  0.00     0.043 A 
HETATM   28  C   UNL     1       4.363  -1.718   5.860  1.00  0.00     0.003 A 
HETATM   29  C   UNL     1       5.508  -1.861   5.078  1.00  0.00     0.001 A 
HETATM   30  C   UNL     1       5.463  -1.584   3.708  1.00  0.00     0.012 A 
ENDBRANCH   8  24
TORSDOF 2
