REMARK  5 active torsions:
REMARK  status: ('A' for Active; 'I' for Inactive)
REMARK    1  A    between atoms: C_3  and  C_4 
REMARK    2  A    between atoms: C_4  and  C_5 
REMARK    3  A    between atoms: C_5  and  N_6 
REMARK       I    between atoms: N_6  and  C_7 
REMARK       I    between atoms: C_7  and  N_8 
REMARK    4  A    between atoms: N_8  and  C_9 
REMARK    5  A    between atoms: N_11  and  C_12 
ROOT
HETATM    1  C   UNL     1       5.404   0.538   5.170  1.00  0.00     0.159 A 
HETATM    2  N   UNL     1       4.657  -0.565   5.181  1.00  0.00    -0.149 NA
HETATM    3  N   UNL     1       3.372  -0.156   5.264  1.00  0.00    -0.241 N 
HETATM    4  C   UNL     1       3.317   1.224   5.343  1.00  0.00     0.129 A 
HETATM    5  C   UNL     1       4.607   1.702   5.278  1.00  0.00     0.003 A 
HETATM    6  C   UNL     1       5.045   3.117   5.315  1.00  0.00     0.054 C 
ENDROOT
BRANCH   1   7
HETATM    7  N   UNL     1       6.777   0.547   5.066  1.00  0.00    -0.291 N 
HETATM    8  C   UNL     1       7.638  -0.500   4.946  1.00  0.00     0.321 C 
HETATM    9  N   UNL     1       7.110  -1.750   4.968  1.00  0.00    -0.343 N 
HETATM   10  O   UNL     1       8.842  -0.278   4.826  1.00  0.00    -0.247 OA
HETATM   11  H   UNL     1       6.100  -1.813   5.093  1.00  0.00     0.164 HD
HETATM   12  H   UNL     1       7.239   1.444   5.052  1.00  0.00     0.172 HD
BRANCH   9  13
HETATM   13  C   UNL     1       7.901  -2.953   4.833  1.00  0.00     0.128 C 
BRANCH  13  14
HETATM   14  C   UNL     1       8.661  -3.303   6.115  1.00  0.00     0.046 C 
BRANCH  14  15
HETATM   15  C   UNL     1       9.511  -4.533   5.936  1.00  0.00    -0.029 C 
HETATM   16  C   UNL     1       9.359  -5.664   6.641  1.00  0.00    -0.035 C 
HETATM   17  C   UNL     1      10.212  -6.878   6.463  1.00  0.00     0.036 C 
ENDBRANCH  14  15
ENDBRANCH  13  14
ENDBRANCH   9  13
ENDBRANCH   1   7
BRANCH   3  18
HETATM   18  C   UNL     1       2.268  -1.067   5.237  1.00  0.00     0.079 A 
HETATM   19  C   UNL     1       2.413  -2.468   5.302  1.00  0.00     0.062 A 
HETATM   20 CL   UNL     1       3.903  -3.328   5.497  1.00  0.00    -0.082 Cl
HETATM   21  C   UNL     1       1.275  -3.292   5.245  1.00  0.00     0.026 A 
HETATM   22  C   UNL     1      -0.003  -2.751   5.128  1.00  0.00     0.002 A 
HETATM   23  C   UNL     1      -0.159  -1.374   5.069  1.00  0.00     0.002 A 
HETATM   24  C   UNL     1       0.962  -0.540   5.123  1.00  0.00     0.033 A 
ENDBRANCH   3  18
TORSDOF 5
