REMARK  8 active torsions:
REMARK  status: ('A' for Active; 'I' for Inactive)
REMARK    1  A    between atoms: C_2  and  O_3 
REMARK    2  A    between atoms: O_3  and  C_4 
REMARK    3  A    between atoms: C_4  and  C_5 
REMARK    4  A    between atoms: C_6  and  O_7 
REMARK    5  A    between atoms: C_6  and  C_8 
REMARK    6  A    between atoms: C_16  and  C_17 
REMARK    7  A    between atoms: C_18  and  C_19 
REMARK    8  A    between atoms: N_26  and  C_27 
ROOT
HETATM    1  C   UNL     1       5.080  -0.281  -0.240  1.00  0.00     0.177 C 
HETATM    2  C   UNL     1       5.631  -1.396   0.653  1.00  0.00     0.250 C 
HETATM    3  N   UNL     1       6.427  -2.358  -0.085  1.00  0.00    -0.303 N 
HETATM    4  C   UNL     1       7.066  -2.116  -1.248  1.00  0.00     0.319 C 
HETATM    5  O   UNL     1       7.822  -2.947  -1.736  1.00  0.00    -0.247 OA
HETATM    6  N   UNL     1       6.818  -0.938  -1.860  1.00  0.00    -0.333 N 
HETATM    7  C   UNL     1       6.106   0.184  -1.274  1.00  0.00     0.142 C 
HETATM    8  H   UNL     1       6.674  -3.243   0.342  1.00  0.00     0.167 HD
HETATM    9  H   UNL     1       7.376  -0.778  -2.691  1.00  0.00     0.165 HD
ENDROOT
BRANCH   7  10
HETATM   10  C   UNL     1       7.124   1.170  -0.754  1.00  0.00     0.015 A 
HETATM   11  C   UNL     1       7.096   2.605  -0.736  1.00  0.00     0.097 A 
HETATM   12  N   UNL     1       8.223   3.092  -0.188  1.00  0.00    -0.167 NA
HETATM   13  N   UNL     1       8.987   2.027   0.126  1.00  0.00    -0.244 N 
HETATM   14  C   UNL     1       8.361   0.859  -0.214  1.00  0.00     0.130 A 
BRANCH  11  15
HETATM   15  C   UNL     1       6.089   3.559  -1.231  1.00  0.00    -0.005 A 
HETATM   16  C   UNL     1       4.716   3.289  -1.223  1.00  0.00     0.014 A 
HETATM   17  C   UNL     1       3.794   4.233  -1.693  1.00  0.00     0.001 A 
HETATM   18  C   UNL     1       4.231   5.468  -2.165  1.00  0.00     0.000 A 
HETATM   19  C   UNL     1       5.590   5.763  -2.168  1.00  0.00     0.001 A 
HETATM   20  C   UNL     1       6.508   4.816  -1.706  1.00  0.00     0.014 A 
ENDBRANCH  11  15
BRANCH  13  21
HETATM   21  C   UNL     1      10.273   2.189   0.715  1.00  0.00     0.058 A 
HETATM   22  C   UNL     1      10.727   3.477   1.038  1.00  0.00     0.031 A 
HETATM   23  C   UNL     1      11.986   3.655   1.616  1.00  0.00     0.002 A 
HETATM   24  C   UNL     1      12.800   2.553   1.872  1.00  0.00     0.000 A 
HETATM   25  C   UNL     1      12.358   1.271   1.550  1.00  0.00     0.002 A 
HETATM   26  C   UNL     1      11.098   1.084   0.975  1.00  0.00     0.031 A 
ENDBRANCH  13  21
ENDBRANCH   7  10
BRANCH   1  27
HETATM   27  C   UNL     1       3.810  -0.651  -0.971  1.00  0.00     0.270 C 
HETATM   28  O   UNL     1       2.828   0.080  -0.997  1.00  0.00    -0.265 OA
BRANCH  27  29
HETATM   29  O   UNL     1       3.915  -1.832  -1.629  1.00  0.00    -0.321 OA
BRANCH  29  30
HETATM   30  C   UNL     1       2.790  -2.236  -2.427  1.00  0.00     0.174 C 
HETATM   31  C   UNL     1       1.766  -2.968  -1.580  1.00  0.00     0.034 C 
ENDBRANCH  29  30
ENDBRANCH  27  29
ENDBRANCH   1  27
BRANCH   2  32
HETATM   32  O   UNL     1       6.572  -0.800   1.569  1.00  0.00    -0.363 OA
HETATM   33  H   UNL     1       6.878  -1.510   2.161  1.00  0.00     0.213 HD
ENDBRANCH   2  32
BRANCH   2  34
HETATM   34  C   UNL     1       4.497  -2.066   1.504  1.00  0.00     0.439 C 
HETATM   35  F   UNL     1       3.745  -1.147   2.147  1.00  0.00    -0.166 F 
HETATM   36  F   UNL     1       3.671  -2.844   0.779  1.00  0.00    -0.166 F 
HETATM   37  F   UNL     1       5.059  -2.863   2.451  1.00  0.00    -0.166 F 
ENDBRANCH   2  34
TORSDOF 8
