REMARK  9 active torsions:
REMARK  status: ('A' for Active; 'I' for Inactive)
REMARK    1  A    between atoms: C_2  and  N_3 
REMARK    2  A    between atoms: C_2  and  C_23 
REMARK       I    between atoms: N_3  and  C_4 
REMARK       I    between atoms: C_4  and  N_5 
REMARK    3  A    between atoms: N_5  and  C_6 
REMARK    4  A    between atoms: C_6  and  C_7 
REMARK    5  A    between atoms: C_7  and  N_8 
REMARK    6  A    between atoms: C_7  and  C_14 
REMARK    7  A    between atoms: C_15  and  O_16 
REMARK    8  A    between atoms: C_23  and  C_24 
REMARK    9  A    between atoms: C_27  and  O_28 
ROOT
HETATM    1  N   UNL     1       1.046   2.744   4.049  1.00  0.00    -0.339 N 
HETATM    2  C   UNL     1       0.553   2.973   2.795  1.00  0.00     0.316 C 
HETATM    3  N   UNL     1       1.330   2.388   1.824  1.00  0.00    -0.341 N 
HETATM    4  O   UNL     1      -0.389   3.706   2.532  1.00  0.00    -0.248 OA
HETATM    5  H   UNL     1       1.488   1.848   4.191  1.00  0.00     0.164 HD
HETATM    6  H   UNL     1       1.842   1.578   2.146  1.00  0.00     0.164 HD
ENDROOT
BRANCH   3   7
HETATM    7  C   UNL     1       0.843   2.323   0.452  1.00  0.00     0.162 C 
BRANCH   7   8
HETATM    8  C   UNL     1       0.549   3.673  -0.296  1.00  0.00     0.241 C 
BRANCH   8   9
HETATM    9  N   UNL     1       1.752   4.648  -0.316  1.00  0.00    -0.061 N 
HETATM   10  H   UNL     1       1.524   5.294  -1.081  1.00  0.00     0.280 HD
HETATM   11  C   UNL     1       3.127   4.089  -0.585  1.00  0.00     0.236 C 
HETATM   12  C   UNL     1       3.918   4.372   0.674  1.00  0.00     0.029 C 
HETATM   13  C   UNL     1       3.355   5.697   1.139  1.00  0.00     0.029 C 
HETATM   14  C   UNL     1       1.863   5.552   0.901  1.00  0.00     0.236 C 
ENDBRANCH   8   9
BRANCH   8  15
HETATM   15  C   UNL     1      -0.021   3.380  -1.693  1.00  0.00     0.007 A 
HETATM   16  C   UNL     1      -1.340   2.876  -1.799  1.00  0.00     0.076 A 
HETATM   17  C   UNL     1      -1.894   2.598  -3.053  1.00  0.00     0.037 A 
HETATM   18  C   UNL     1      -1.150   2.803  -4.212  1.00  0.00     0.003 A 
HETATM   19  C   UNL     1       0.151   3.283  -4.126  1.00  0.00     0.001 A 
HETATM   20  C   UNL     1       0.714   3.566  -2.879  1.00  0.00     0.012 A 
BRANCH  16  21
HETATM   21  O   UNL     1      -2.011   2.709  -0.616  1.00  0.00    -0.355 OA
HETATM   22  C   UNL     1      -3.174   1.883  -0.636  1.00  0.00     0.210 C 
ENDBRANCH  16  21
ENDBRANCH   8  15
ENDBRANCH   7   8
ENDBRANCH   3   7
BRANCH   1  23
HETATM   23  C   UNL     1       0.458   3.327   5.260  1.00  0.00     0.086 C 
HETATM   24  C   UNL     1       0.698   4.837   5.313  1.00  0.00     0.032 C 
BRANCH  23  25
HETATM   25  C   UNL     1      -1.038   3.002   5.462  1.00  0.00     0.063 C 
BRANCH  25  26
HETATM   26  C   UNL     1      -1.355   1.527   5.361  1.00  0.00    -0.056 A 
HETATM   27  C   UNL     1      -0.966   0.637   6.372  1.00  0.00     0.010 A 
HETATM   28  C   UNL     1      -1.253  -0.726   6.263  1.00  0.00     0.037 A 
HETATM   29  C   UNL     1      -1.929  -1.196   5.142  1.00  0.00     0.065 A 
HETATM   30  C   UNL     1      -2.323  -0.328   4.132  1.00  0.00     0.037 A 
HETATM   31  C   UNL     1      -2.039   1.032   4.242  1.00  0.00     0.010 A 
BRANCH  29  32
HETATM   32  O   UNL     1      -2.230  -2.517   4.994  1.00  0.00    -0.361 OA
HETATM   33  H   UNL     1      -2.006  -2.983   5.817  1.00  0.00     0.217 HD
ENDBRANCH  29  32
ENDBRANCH  25  26
ENDBRANCH  23  25
ENDBRANCH   1  23
TORSDOF 9
