REMARK  4 active torsions:
REMARK  status: ('A' for Active; 'I' for Inactive)
REMARK    1  A    between atoms: C_7  and  C_8 
REMARK    2  A    between atoms: C_8  and  N_9 
REMARK    3  A    between atoms: N_15  and  C_17 
REMARK    4  A    between atoms: C_17  and  C_18 
ROOT
HETATM    1  N   UNL     1       1.672  -2.464  -0.330  1.00  0.00    -0.067 N 
HETATM    2  H   UNL     1       1.245  -3.340  -0.662  1.00  0.00     0.280 HD
HETATM    3  C   UNL     1       0.916  -2.104   0.922  1.00  0.00     0.236 C 
HETATM    4  C   UNL     1       1.276  -0.696   1.390  1.00  0.00     0.039 C 
HETATM    5  C   UNL     1       1.069   0.401   0.309  1.00  0.00    -0.013 C 
HETATM    6  C   UNL     1      -0.428   0.660  -0.007  1.00  0.00     0.244 C 
HETATM    7  N   UNL     1      -1.135   1.257   1.179  1.00  0.00    -0.065 N 
HETATM    8  H   UNL     1      -1.075   0.598   1.974  1.00  0.00     0.280 HD
HETATM    9  C   UNL     1      -0.561   2.577   1.607  1.00  0.00     0.235 C 
HETATM   10  C   UNL     1       0.915   2.395   1.932  1.00  0.00     0.029 C 
HETATM   11  C   UNL     1       1.687   1.743   0.784  1.00  0.00     0.013 C 
HETATM   12  C   UNL     1       1.813  -0.054  -0.979  1.00  0.00     0.039 C 
HETATM   13  C   UNL     1       1.473  -1.471  -1.441  1.00  0.00     0.236 C 
ENDROOT
BRANCH   7  14
HETATM   14  C   UNL     1      -2.653   1.310   0.982  1.00  0.00     0.293 C 
BRANCH  14  15
HETATM   15  C   UNL     1      -3.269  -0.059   1.192  1.00  0.00     0.060 A 
HETATM   16  N   UNL     1      -2.469  -0.993   1.796  1.00  0.00    -0.264 NA
HETATM   17  C   UNL     1      -3.039  -2.197   2.056  1.00  0.00     0.117 A 
HETATM   18  C   UNL     1      -4.336  -2.529   1.707  1.00  0.00     0.019 A 
HETATM   19  C   UNL     1      -5.116  -1.569   1.072  1.00  0.00     0.003 A 
HETATM   20  C   UNL     1      -4.585  -0.309   0.818  1.00  0.00     0.029 A 
ENDBRANCH  14  15
ENDBRANCH   7  14
BRANCH   1  21
HETATM   21  C   UNL     1       3.134  -2.858  -0.123  1.00  0.00     0.278 C 
BRANCH  21  22
HETATM   22  C   UNL     1       3.322  -3.974   0.830  1.00  0.00     0.025 A 
HETATM   23  C   UNL     1       4.084  -3.971   2.035  1.00  0.00     0.068 A 
HETATM   24  C   UNL     1       4.911  -2.890   2.625  1.00  0.00     0.073 C 
HETATM   25  N   UNL     1       3.969  -5.133   2.679  1.00  0.00    -0.133 NA
HETATM   26  O   UNL     1       3.199  -5.944   1.880  1.00  0.00    -0.217 OA
HETATM   27  C   UNL     1       2.826  -5.263   0.766  1.00  0.00     0.085 A 
HETATM   28  C   UNL     1       2.004  -6.025  -0.195  1.00  0.00     0.079 C 
ENDBRANCH  21  22
ENDBRANCH   1  21
TORSDOF 4
