REMARK  6 active torsions:
REMARK  status: ('A' for Active; 'I' for Inactive)
REMARK    1  A    between atoms: C_9  and  C_10 
REMARK    2  A    between atoms: C_10  and  N_11 
REMARK       I    between atoms: N_11  and  C_12 
REMARK    3  A    between atoms: N_11  and  C_22 
REMARK    4  A    between atoms: C_12  and  C_13 
REMARK    5  A    between atoms: C_16  and  O_17 
REMARK    6  A    between atoms: C_22  and  C_23 
ROOT
HETATM    1  N   UNL     1       9.005  -2.859  -0.018  1.00  0.00    -0.341 N 
HETATM    2  C   UNL     1       9.345  -1.660  -0.649  1.00  0.00     0.254 C 
HETATM    3  O   UNL     1       8.538  -0.966  -1.264  1.00  0.00    -0.267 OA
ENDROOT
BRANCH   1   4
HETATM    4  C   UNL     1       7.608  -3.308  -0.127  1.00  0.00     0.170 C 
BRANCH   4   5
HETATM    5  C   UNL     1       6.680  -2.702   0.894  1.00  0.00     0.029 A 
HETATM    6  C   UNL     1       5.374  -3.431   1.015  1.00  0.00     0.253 A 
HETATM    7  N   UNL     1       4.463  -2.950   1.916  1.00  0.00    -0.322 N 
HETATM    8  O   UNL     1       5.114  -4.418   0.333  1.00  0.00    -0.268 OA
HETATM    9  C   UNL     1       4.668  -1.804   2.690  1.00  0.00     0.045 A 
HETATM   10  H   UNL     1       3.592  -3.456   1.972  1.00  0.00     0.169 HD
HETATM   11  C   UNL     1       5.876  -1.111   2.574  1.00  0.00    -0.008 A 
HETATM   12  C   UNL     1       3.666  -1.359   3.550  1.00  0.00     0.031 A 
HETATM   13  C   UNL     1       6.069   0.056   3.321  1.00  0.00     0.020 A 
HETATM   14  C   UNL     1       6.899  -1.614   1.656  1.00  0.00     0.028 A 
HETATM   15  C   UNL     1       5.058   0.532   4.171  1.00  0.00    -0.061 A 
HETATM   16  C   UNL     1       5.263   1.781   4.978  1.00  0.00     0.048 C 
HETATM   17  C   UNL     1       3.865  -0.194   4.292  1.00  0.00     0.009 A 
ENDBRANCH   4   5
ENDBRANCH   1   4
BRANCH   1  18
HETATM   18  C   UNL     1       9.981  -3.873   0.427  1.00  0.00     0.158 C 
BRANCH  18  19
HETATM   19  C   UNL     1       9.956  -4.130   1.939  1.00  0.00     0.139 C 
HETATM   20  O   UNL     1       8.727  -4.750   2.355  1.00  0.00    -0.384 OA
HETATM   21  C   UNL     1       9.011  -5.662   3.426  1.00  0.00     0.168 C 
HETATM   22  C   UNL     1      10.499  -5.582   3.700  1.00  0.00     0.029 C 
HETATM   23  C   UNL     1      11.046  -5.092   2.383  1.00  0.00     0.035 C 
ENDBRANCH  18  19
ENDBRANCH   1  18
BRANCH   2  24
HETATM   24  C   UNL     1      10.738  -1.161  -0.582  1.00  0.00     0.032 A 
HETATM   25  C   UNL     1      11.377  -0.812  -1.774  1.00  0.00     0.020 A 
HETATM   26  C   UNL     1      12.679  -0.310  -1.740  1.00  0.00     0.038 A 
HETATM   27  C   UNL     1      13.346  -0.140  -0.524  1.00  0.00     0.068 A 
HETATM   28  C   UNL     1      12.693  -0.462   0.668  1.00  0.00     0.038 A 
HETATM   29  C   UNL     1      11.384  -0.960   0.641  1.00  0.00     0.020 A 
BRANCH  27  30
HETATM   30  O   UNL     1      14.616   0.356  -0.638  1.00  0.00    -0.356 OA
HETATM   31  C   UNL     1      15.353   0.533   0.564  1.00  0.00     0.210 C 
ENDBRANCH  27  30
ENDBRANCH   2  24
TORSDOF 6
