REMARK  5 active torsions:
REMARK  status: ('A' for Active; 'I' for Inactive)
REMARK    1  A    between atoms: C_2  and  C_3 
REMARK    2  A    between atoms: C_2  and  C_9 
REMARK    3  A    between atoms: C_9  and  C_10 
REMARK       I    between atoms: C_10  and  N_11 
REMARK    4  A    between atoms: N_11  and  C_12 
REMARK    5  A    between atoms: C_19  and  C_20 
REMARK       I    between atoms: C_20  and  N_21 
ROOT
HETATM    1  C   UNL     1       0.072  -0.253  -3.397  1.00  0.00     0.035 A 
HETATM    2  C   UNL     1       0.597  -1.129  -4.357  1.00  0.00     0.046 A 
HETATM    3  C   UNL     1      -0.275  -1.789  -5.251  1.00  0.00     0.030 A 
HETATM    4  C   UNL     1      -1.639  -1.545  -5.159  1.00  0.00     0.063 A 
HETATM    5  N   UNL     1      -2.212  -2.311  -6.136  1.00  0.00    -0.277 N 
HETATM    6  H   UNL     1      -3.197  -2.384  -6.360  1.00  0.00     0.189 HD
HETATM    7  N   UNL     1      -1.342  -3.039  -6.854  1.00  0.00    -0.168 NA
HETATM    8  C   UNL     1      -0.139  -2.729  -6.318  1.00  0.00     0.156 A 
HETATM    9  C   UNL     1      -2.197  -0.677  -4.220  1.00  0.00     0.034 A 
HETATM   10  C   UNL     1      -1.313  -0.040  -3.340  1.00  0.00     0.032 A 
ENDROOT
BRANCH   1  11
HETATM   11  N   UNL     1       0.857   0.424  -2.439  1.00  0.00    -0.327 N 
HETATM   12  C   UNL     1       2.235   0.408  -2.315  1.00  0.00     0.223 C 
HETATM   13  O   UNL     1       3.032  -0.116  -3.085  1.00  0.00    -0.273 OA
HETATM   14  H   UNL     1       0.348   0.988  -1.772  1.00  0.00     0.169 HD
BRANCH  12  15
HETATM   15  C   UNL     1       2.726   1.113  -1.059  1.00  0.00     0.116 C 
BRANCH  15  16
HETATM   16  C   UNL     1       2.794   0.207   0.202  1.00  0.00    -0.012 C 
HETATM   17  C   UNL     1       3.642  -1.051  -0.110  1.00  0.00     0.020 C 
HETATM   18  C   UNL     1       1.391  -0.297   0.616  1.00  0.00     0.020 C 
BRANCH  16  19
HETATM   19  C   UNL     1       3.379   1.052   1.359  1.00  0.00    -0.050 A 
HETATM   20  C   UNL     1       4.634   0.783   1.933  1.00  0.00     0.008 A 
HETATM   21  C   UNL     1       5.137   1.563   2.979  1.00  0.00     0.001 A 
HETATM   22  C   UNL     1       4.402   2.636   3.472  1.00  0.00     0.000 A 
HETATM   23  C   UNL     1       3.163   2.932   2.916  1.00  0.00     0.001 A 
HETATM   24  C   UNL     1       2.659   2.151   1.872  1.00  0.00     0.008 A 
ENDBRANCH  16  19
ENDBRANCH  15  16
ENDBRANCH  12  15
ENDBRANCH   1  11
BRANCH   8  25
HETATM   25  C   UNL     1       1.099  -3.334  -6.828  1.00  0.00     0.270 C 
HETATM   26  N   UNL     1       0.909  -4.202  -7.869  1.00  0.00    -0.365 N 
HETATM   27  H   UNL     1      -0.036  -4.363  -8.199  1.00  0.00     0.159 HD
HETATM   28  H   UNL     1       1.700  -4.670  -8.280  1.00  0.00     0.159 HD
HETATM   29  O   UNL     1       2.221  -3.113  -6.386  1.00  0.00    -0.266 OA
ENDBRANCH   8  25
TORSDOF 5
