REMARK  8 active torsions:
REMARK  status: ('A' for Active; 'I' for Inactive)
REMARK    1  A    between atoms: O_2  and  C_3 
REMARK    2  A    between atoms: C_4  and  O_5 
REMARK    3  A    between atoms: N_12  and  N_13 
REMARK    4  A    between atoms: N_13  and  C_14 
REMARK    5  A    between atoms: C_14  and  N_15 
REMARK    6  A    between atoms: N_15  and  C_16 
REMARK    7  A    between atoms: C_16  and  C_17 
REMARK    8  A    between atoms: C_17  and  C_18 
ROOT
HETATM    1  C   UNL     1       3.233   0.315  -1.138  1.00  0.00     0.102 A 
HETATM    2  C   UNL     1       3.973  -0.757  -1.683  1.00  0.00     0.103 A 
HETATM    3  C   UNL     1       4.969  -0.503  -2.634  1.00  0.00     0.070 A 
HETATM    4  C   UNL     1       5.224   0.808  -3.039  1.00  0.00     0.053 A 
HETATM    5  C   UNL     1       4.510   1.865  -2.486  1.00  0.00     0.063 A 
HETATM    6  C   UNL     1       4.820   3.241  -2.924  1.00  0.00     0.281 C 
HETATM    7  O   UNL     1       4.333   4.203  -2.332  1.00  0.00    -0.265 OA
HETATM    8  N   UNL     1       5.710   3.347  -3.999  1.00  0.00    -0.190 N 
HETATM    9  C   UNL     1       6.466   2.297  -4.523  1.00  0.00     0.201 C 
HETATM   10  S   UNL     1       7.658   2.411  -5.700  1.00  0.00    -0.039 SA
HETATM   11  N   UNL     1       6.203   1.052  -4.007  1.00  0.00    -0.331 N 
HETATM   12  C   UNL     1       3.516   1.627  -1.532  1.00  0.00     0.059 A 
HETATM   13  H   UNL     1       6.729   0.281  -4.404  1.00  0.00     0.168 HD
ENDROOT
BRANCH   8  14
HETATM   14  N   UNL     1       5.892   4.654  -4.527  1.00  0.00    -0.264 N 
HETATM   15  H   UNL     1       6.222   5.319  -3.836  1.00  0.00     0.190 HD
BRANCH  14  16
HETATM   16  C   UNL     1       5.007   5.150  -5.457  1.00  0.00     0.187 C 
HETATM   17  S   UNL     1       3.727   4.338  -6.166  1.00  0.00    -0.040 SA
BRANCH  16  18
HETATM   18  N   UNL     1       5.244   6.437  -5.866  1.00  0.00    -0.366 N 
HETATM   19  H   UNL     1       4.592   6.705  -6.597  1.00  0.00     0.161 HD
BRANCH  18  20
HETATM   20  C   UNL     1       6.569   7.042  -5.969  1.00  0.00     0.126 C 
BRANCH  20  21
HETATM   21  C   UNL     1       6.484   8.544  -6.242  1.00  0.00     0.058 C 
BRANCH  21  22
HETATM   22  C   UNL     1       7.786   9.092  -6.767  1.00  0.00    -0.057 A 
HETATM   23  C   UNL     1       7.985   9.226  -8.149  1.00  0.00     0.007 A 
HETATM   24  C   UNL     1       9.196   9.707  -8.648  1.00  0.00     0.001 A 
HETATM   25  C   UNL     1      10.222  10.053  -7.772  1.00  0.00     0.000 A 
HETATM   26  C   UNL     1      10.037   9.919  -6.397  1.00  0.00     0.001 A 
HETATM   27  C   UNL     1       8.825   9.439  -5.895  1.00  0.00     0.007 A 
ENDBRANCH  21  22
ENDBRANCH  20  21
ENDBRANCH  18  20
ENDBRANCH  16  18
ENDBRANCH  14  16
ENDBRANCH   8  14
BRANCH   1  28
HETATM   28  O   UNL     1       2.271  -0.019  -0.217  1.00  0.00    -0.353 OA
HETATM   29  C   UNL     1       1.294   0.967   0.089  1.00  0.00     0.210 C 
ENDBRANCH   1  28
BRANCH   2  30
HETATM   30  O   UNL     1       3.639  -2.009  -1.228  1.00  0.00    -0.353 OA
HETATM   31  C   UNL     1       4.330  -3.123  -1.774  1.00  0.00     0.210 C 
ENDBRANCH   2  30
TORSDOF 8
