REMARK  6 active torsions:
REMARK  status: ('A' for Active; 'I' for Inactive)
REMARK    1  A    between atoms: C_3  and  N_4 
REMARK    2  A    between atoms: N_4  and  C_5 
REMARK    3  A    between atoms: C_5  and  C_6 
REMARK    4  A    between atoms: N_8  and  C_10 
REMARK    5  A    between atoms: C_10  and  C_11 
REMARK    6  A    between atoms: C_12  and  O_13 
ROOT
HETATM    1  C   UNL     1       5.127  -0.615  -0.686  1.00  0.00     0.031 C 
HETATM    2  C   UNL     1       6.159  -1.536  -0.031  1.00  0.00     0.241 C 
HETATM    3  N   UNL     1       7.362  -0.665   0.225  1.00  0.00    -0.067 N 
HETATM    4  H   UNL     1       7.640  -0.783   1.219  1.00  0.00     0.280 HD
HETATM    5  C   UNL     1       6.954   0.777   0.050  1.00  0.00     0.235 C 
HETATM    6  C   UNL     1       5.437   0.727  -0.024  1.00  0.00     0.035 C 
ENDROOT
BRANCH   3   7
HETATM    7  C   UNL     1       8.613  -1.073  -0.513  1.00  0.00     0.276 C 
BRANCH   7   8
HETATM    8  C   UNL     1       9.821  -0.269  -0.127  1.00  0.00     0.002 A 
HETATM    9  C   UNL     1      10.252  -0.216   1.205  1.00  0.00     0.073 A 
HETATM   10  C   UNL     1      11.383   0.508   1.572  1.00  0.00     0.038 A 
HETATM   11  C   UNL     1      12.101   1.202   0.596  1.00  0.00     0.022 A 
HETATM   12  C   UNL     1      11.684   1.161  -0.732  1.00  0.00     0.011 A 
HETATM   13 BR   UNL     1      12.644   2.112  -2.052  1.00  0.00    -0.051 Br
HETATM   14  C   UNL     1      10.555   0.427  -1.099  1.00  0.00     0.030 A 
BRANCH   9  15
HETATM   15  O   UNL     1       9.510  -0.877   2.147  1.00  0.00    -0.360 OA
HETATM   16  H   UNL     1      10.035  -0.902   2.974  1.00  0.00     0.217 HD
ENDBRANCH   9  15
ENDBRANCH   7   8
ENDBRANCH   3   7
BRANCH   1  17
HETATM   17  C   UNL     1       5.261  -0.597  -2.220  1.00  0.00     0.127 C 
BRANCH  17  18
HETATM   18  N   UNL     1       4.184   0.191  -2.828  1.00  0.00    -0.376 N 
HETATM   19  H   UNL     1       4.446   1.152  -3.029  1.00  0.00     0.161 HD
BRANCH  18  20
HETATM   20  C   UNL     1       3.250  -0.396  -3.666  1.00  0.00     0.100 A 
HETATM   21  C   UNL     1       2.807  -1.720  -3.544  1.00  0.00     0.048 A 
HETATM   22  C   UNL     1       1.866  -2.234  -4.436  1.00  0.00     0.005 A 
HETATM   23  C   UNL     1       1.357  -1.421  -5.438  1.00  0.00     0.017 A 
HETATM   24  C   UNL     1       1.789  -0.108  -5.512  1.00  0.00     0.089 A 
HETATM   25  N   UNL     1       2.695   0.354  -4.636  1.00  0.00    -0.353 N 
HETATM   26  H   UNL     1       2.977   1.327  -4.714  1.00  0.00     0.166 HD
ENDBRANCH  18  20
ENDBRANCH  17  18
ENDBRANCH   1  17
TORSDOF 6
