REMARK  7 active torsions:
REMARK  status: ('A' for Active; 'I' for Inactive)
REMARK    1  A    between atoms: S_2  and  C_3 
REMARK    2  A    between atoms: C_3  and  C_4 
REMARK    3  A    between atoms: C_4  and  C_5 
REMARK    4  A    between atoms: C_5  and  N_6 
REMARK    5  A    between atoms: C_5  and  C_26 
REMARK       I    between atoms: N_6  and  C_7 
REMARK    6  A    between atoms: C_7  and  C_8 
REMARK    7  A    between atoms: C_8  and  N_9 
ROOT
HETATM    1  N   UNL     1       5.213   3.053   2.467  1.00  0.00    -0.348 N 
HETATM    2  C   UNL     1       3.841   3.055   2.610  1.00  0.00     0.236 C 
HETATM    3  O   UNL     1       3.264   3.306   3.660  1.00  0.00    -0.272 OA
HETATM    4  H   UNL     1       5.559   2.495   1.691  1.00  0.00     0.163 HD
ENDROOT
BRANCH   2   5
HETATM    5  C   UNL     1       3.115   2.639   1.329  1.00  0.00     0.239 C 
BRANCH   5   6
HETATM    6  N   UNL     1       3.095   1.195   1.212  1.00  0.00    -0.259 N 
HETATM    7  C   UNL     1       4.201   0.419   1.049  1.00  0.00     0.326 C 
HETATM    8  O   UNL     1       5.363   0.798   1.001  1.00  0.00    -0.247 OA
HETATM    9  N   UNL     1       3.809  -0.889   0.935  1.00  0.00    -0.320 N 
HETATM   10  C   UNL     1       2.378  -1.012   0.733  1.00  0.00     0.144 C 
HETATM   11  H   UNL     1       4.474  -1.638   0.796  1.00  0.00     0.165 HD
HETATM   12  C   UNL     1       1.777  -2.044   1.668  1.00  0.00    -0.014 A 
HETATM   13  C   UNL     1       2.087  -1.304  -0.752  1.00  0.00     0.047 C 
HETATM   14  C   UNL     1       1.960   0.451   1.016  1.00  0.00     0.261 C 
HETATM   15  C   UNL     1       1.394  -3.316   1.187  1.00  0.00    -0.049 A 
HETATM   16  C   UNL     1       1.615  -1.767   3.039  1.00  0.00     0.011 A 
HETATM   17  C   UNL     1       0.828  -4.252   2.067  1.00  0.00     0.007 A 
HETATM   18  C   UNL     1       1.496  -3.689  -0.274  1.00  0.00     0.039 C 
HETATM   19  C   UNL     1       0.657  -3.950   3.416  1.00  0.00     0.001 A 
HETATM   20  C   UNL     1       1.053  -2.710   3.902  1.00  0.00     0.001 A 
HETATM   21  C   UNL     1       2.394  -2.760  -1.083  1.00  0.00     0.008 C 
HETATM   22  O   UNL     1       0.818   0.889   0.978  1.00  0.00    -0.270 OA
ENDBRANCH   5   6
ENDBRANCH   2   5
BRANCH   1  23
HETATM   23  C   UNL     1       6.129   3.288   3.573  1.00  0.00     0.155 C 
BRANCH  23  24
HETATM   24  C   UNL     1       6.217   2.070   4.509  1.00  0.00     0.043 C 
BRANCH  24  25
HETATM   25  C   UNL     1       7.159   2.321   5.689  1.00  0.00     0.076 C 
BRANCH  25  26
HETATM   26  S   UNL     1       7.243   0.840   6.748  1.00  0.00    -0.173 SA
HETATM   27  C   UNL     1       8.605   1.361   7.820  1.00  0.00     0.089 C 
ENDBRANCH  25  26
ENDBRANCH  24  25
ENDBRANCH  23  24
BRANCH  23  28
HETATM   28  C   UNL     1       7.475   3.624   2.986  1.00  0.00     0.128 A 
HETATM   29  N   UNL     1       8.248   4.637   3.328  1.00  0.00    -0.231 NA
HETATM   30  C   UNL     1       9.384   4.516   2.567  1.00  0.00     0.085 A 
HETATM   31  C   UNL     1       9.311   3.401   1.741  1.00  0.00     0.062 A 
HETATM   32  C   UNL     1      10.531   5.322   2.529  1.00  0.00     0.034 A 
HETATM   33  N   UNL     1       8.096   2.842   2.036  1.00  0.00    -0.341 N 
HETATM   34  C   UNL     1      10.324   3.036   0.853  1.00  0.00     0.032 A 
HETATM   35  H   UNL     1       7.718   1.996   1.629  1.00  0.00     0.167 HD
HETATM   36  C   UNL     1      11.460   3.854   0.826  1.00  0.00     0.002 A 
HETATM   37  C   UNL     1      11.566   4.977   1.651  1.00  0.00     0.002 A 
ENDBRANCH  23  28
ENDBRANCH   1  23
TORSDOF 7
