REMARK  7 active torsions:
REMARK  status: ('A' for Active; 'I' for Inactive)
REMARK    1  A    between atoms: C_4  and  N_5 
REMARK       I    between atoms: N_5  and  C_6 
REMARK       I    between atoms: C_6  and  N_7 
REMARK    2  A    between atoms: N_7  and  N_8 
REMARK       I    between atoms: N_8  and  C_9 
REMARK    3  A    between atoms: C_9  and  C_10 
REMARK    4  A    between atoms: C_10  and  N_11 
REMARK    5  A    between atoms: C_10  and  C_19 
REMARK       I    between atoms: N_11  and  C_12 
REMARK    6  A    between atoms: C_12  and  C_13 
REMARK    7  A    between atoms: C_19  and  C_20 
ROOT
HETATM    1  C   UNL     1       1.697  -4.952   0.059  1.00  0.00     0.183 C 
ENDROOT
BRANCH   1   2
HETATM    2  C   UNL     1       1.235  -5.467   1.440  1.00  0.00     0.259 C 
HETATM    3  N   UNL     1       1.034  -6.831   1.536  1.00  0.00    -0.264 N 
HETATM    4  H   UNL     1       1.486  -7.436   0.841  1.00  0.00     0.190 HD
HETATM    5  O   UNL     1       1.197  -4.727   2.425  1.00  0.00    -0.269 OA
BRANCH   3   6
HETATM    6  N   UNL     1       0.857  -7.379   2.814  1.00  0.00    -0.249 N 
HETATM    7  C   UNL     1      -0.110  -8.326   3.089  1.00  0.00     0.339 C 
HETATM    8  N   UNL     1      -0.768  -8.772   1.967  1.00  0.00    -0.308 N 
HETATM    9  O   UNL     1      -0.300  -8.678   4.248  1.00  0.00    -0.245 OA
HETATM   10  H   UNL     1      -0.547  -8.245   1.136  1.00  0.00     0.170 HD
HETATM   11  H   UNL     1       1.232  -6.862   3.607  1.00  0.00     0.192 HD
BRANCH   8  12
HETATM   12  C   UNL     1      -1.774  -9.750   1.875  1.00  0.00     0.036 A 
HETATM   13  C   UNL     1      -2.175 -10.553   2.944  1.00  0.00     0.029 A 
HETATM   14  C   UNL     1      -3.185 -11.505   2.775  1.00  0.00     0.002 A 
HETATM   15  C   UNL     1      -3.803 -11.661   1.537  1.00  0.00     0.000 A 
HETATM   16  C   UNL     1      -3.406 -10.869   0.462  1.00  0.00     0.002 A 
HETATM   17  C   UNL     1      -2.393  -9.921   0.630  1.00  0.00     0.029 A 
ENDBRANCH   8  12
ENDBRANCH   3   6
ENDBRANCH   1   2
BRANCH   1  18
HETATM   18  N   UNL     1       0.989  -5.547  -1.086  1.00  0.00    -0.343 N 
HETATM   19  C   UNL     1       1.127  -6.846  -1.516  1.00  0.00     0.259 C 
HETATM   20  O   UNL     1       1.759  -7.662  -0.845  1.00  0.00    -0.267 OA
HETATM   21  H   UNL     1       0.578  -4.900  -1.751  1.00  0.00     0.163 HD
BRANCH  19  22
HETATM   22  C   UNL     1       0.450  -7.204  -2.752  1.00  0.00     0.072 A 
HETATM   23  S   UNL     1      -0.528  -6.097  -3.620  1.00  0.00    -0.097 SA
HETATM   24  C   UNL     1      -0.937  -7.269  -4.795  1.00  0.00     0.050 A 
HETATM   25  C   UNL     1      -0.331  -8.480  -4.548  1.00  0.00     0.009 A 
HETATM   26  C   UNL     1       0.471  -8.441  -3.371  1.00  0.00     0.025 A 
ENDBRANCH  19  22
ENDBRANCH   1  18
BRANCH   1  27
HETATM   27  C   UNL     1       3.231  -5.033  -0.022  1.00  0.00     0.076 C 
BRANCH  27  28
HETATM   28  C   UNL     1       3.802  -4.209  -1.138  1.00  0.00    -0.028 A 
HETATM   29  C   UNL     1       4.228  -4.670  -2.426  1.00  0.00    -0.002 A 
HETATM   30  C   UNL     1       4.696  -3.561  -3.132  1.00  0.00     0.042 A 
HETATM   31  C   UNL     1       4.269  -5.930  -3.057  1.00  0.00     0.014 A 
HETATM   32  C   UNL     1       5.192  -3.647  -4.439  1.00  0.00     0.030 A 
HETATM   33  N   UNL     1       4.574  -2.471  -2.304  1.00  0.00    -0.365 N 
HETATM   34  C   UNL     1       5.210  -4.906  -5.044  1.00  0.00     0.002 A 
HETATM   35  C   UNL     1       4.757  -6.034  -4.365  1.00  0.00     0.001 A 
HETATM   36  H   UNL     1       4.854  -1.531  -2.549  1.00  0.00     0.165 HD
HETATM   37  C   UNL     1       4.035  -2.847  -1.104  1.00  0.00     0.096 A 
ENDBRANCH  27  28
ENDBRANCH   1  27
TORSDOF 7
