REMARK  5 active torsions:
REMARK  status: ('A' for Active; 'I' for Inactive)
REMARK    1  A    between atoms: C_9  and  N_10 
REMARK       I    between atoms: N_10  and  C_11 
REMARK    2  A    between atoms: C_11  and  C_12 
REMARK    3  A    between atoms: C_15  and  O_16 
REMARK    4  A    between atoms: O_16  and  C_17 
REMARK    5  A    between atoms: C_17  and  C_18 
ROOT
HETATM    1  C   UNL     1       6.516   5.751   7.689  1.00  0.00    -0.013 A 
HETATM    2  C   UNL     1       7.359   5.895   8.809  1.00  0.00     0.053 A 
HETATM    3  C   UNL     1       7.783   4.761   9.583  1.00  0.00     0.100 C 
HETATM    4  N   UNL     1       8.119   3.848  10.217  1.00  0.00    -0.191 NA
HETATM    5  C   UNL     1       7.799   7.169   9.195  1.00  0.00     0.023 A 
HETATM    6  C   UNL     1       7.406   8.300   8.479  1.00  0.00     0.002 A 
HETATM    7  C   UNL     1       6.572   8.166   7.373  1.00  0.00     0.001 A 
HETATM    8  C   UNL     1       6.130   6.902   6.979  1.00  0.00     0.011 A 
ENDROOT
BRANCH   1   9
HETATM    9  C   UNL     1       6.005   4.398   7.241  1.00  0.00     0.216 C 
BRANCH   9  10
HETATM   10  O   UNL     1       7.121   3.585   6.881  1.00  0.00    -0.347 OA
BRANCH  10  11
HETATM   11  C   UNL     1       6.858   2.269   6.624  1.00  0.00     0.069 A 
HETATM   12  C   UNL     1       5.611   1.740   6.298  1.00  0.00     0.038 A 
HETATM   13  C   UNL     1       5.482   0.376   6.018  1.00  0.00     0.020 A 
HETATM   14  C   UNL     1       6.599  -0.469   6.051  1.00  0.00     0.032 A 
HETATM   15  C   UNL     1       7.847   0.057   6.404  1.00  0.00     0.020 A 
HETATM   16  C   UNL     1       7.971   1.424   6.678  1.00  0.00     0.038 A 
BRANCH  14  17
HETATM   17  C   UNL     1       6.399  -1.901   5.689  1.00  0.00     0.256 C 
HETATM   18  N   UNL     1       7.466  -2.509   5.045  1.00  0.00    -0.323 N 
HETATM   19  H   UNL     1       8.284  -1.939   4.872  1.00  0.00     0.169 HD
HETATM   20  O   UNL     1       5.311  -2.415   5.922  1.00  0.00    -0.267 OA
BRANCH  18  21
HETATM   21  C   UNL     1       7.483  -3.799   4.470  1.00  0.00     0.035 A 
HETATM   22  C   UNL     1       6.399  -4.679   4.516  1.00  0.00     0.039 A 
HETATM   23  C   UNL     1       6.490  -5.894   3.854  1.00  0.00    -0.022 A 
HETATM   24  C   UNL     1       5.433  -6.934   3.716  1.00  0.00     0.274 C 
HETATM   25  C   UNL     1       7.642  -6.258   3.158  1.00  0.00    -0.025 A 
HETATM   26  N   UNL     1       6.126  -8.103   3.024  1.00  0.00    -0.067 N 
HETATM   27  C   UNL     1       5.284  -8.798   2.015  1.00  0.00     0.270 C 
HETATM   28  H   UNL     1       6.366  -8.767   3.770  1.00  0.00     0.280 HD
HETATM   29  C   UNL     1       7.451  -7.574   2.486  1.00  0.00     0.273 C 
HETATM   30  C   UNL     1       8.738  -5.414   3.119  1.00  0.00     0.012 A 
HETATM   31  C   UNL     1       8.652  -4.183   3.782  1.00  0.00     0.030 A 
ENDBRANCH  18  21
ENDBRANCH  14  17
ENDBRANCH  10  11
ENDBRANCH   9  10
ENDBRANCH   1   9
TORSDOF 5
