REMARK  10 active torsions:
REMARK  status: ('A' for Active; 'I' for Inactive)
REMARK    1  A    between atoms: C_6  and  C_7 
REMARK    2  A    between atoms: C_7  and  C_8 
REMARK       I    between atoms: C_8  and  N_9 
REMARK    3  A    between atoms: N_9  and  C_10 
REMARK    4  A    between atoms: C_10  and  C_11 
REMARK    5  A    between atoms: C_11  and  N_12 
REMARK    6  A    between atoms: C_19  and  C_20 
REMARK    7  A    between atoms: C_29  and  C_30 
REMARK    8  A    between atoms: C_30  and  O_31 
REMARK    9  A    between atoms: O_31  and  C_32 
REMARK   10  A    between atoms: C_32  and  C_33 
ROOT
HETATM    1  C   UNL     1       1.423   1.189   0.141  1.00  0.00     0.071 C 
HETATM    2  C   UNL     1       2.720   0.420   0.120  1.00  0.00     0.048 C 
HETATM    3  N   UNL     1       3.741   1.007   0.878  1.00  0.00    -0.229 NA
HETATM    4  C   UNL     1       4.550   0.182   1.466  1.00  0.00     0.170 C 
HETATM    5  N   UNL     1       4.566  -1.348   1.134  1.00  0.00    -0.319 N 
HETATM    6  C   UNL     1       4.591  -2.003   2.250  1.00  0.00     0.011 C 
HETATM    7  C   UNL     1       4.201  -1.470  -0.289  1.00  0.00     0.166 C 
HETATM    8  S   UNL     1       5.481   0.504   2.877  1.00  0.00    -0.086 SA
HETATM    9  C   UNL     1       5.172  -1.223   3.427  1.00  0.00     0.135 C 
HETATM   10  C   UNL     1       2.852  -0.832  -0.385  1.00  0.00     0.069 C 
ENDROOT
BRANCH   6  11
HETATM   11  C   UNL     1       4.020  -3.387   2.362  1.00  0.00     0.156 C 
BRANCH  11  12
HETATM   12  C   UNL     1       3.385  -3.646   3.709  1.00  0.00     0.223 C 
HETATM   13  N   UNL     1       2.011  -3.753   3.760  1.00  0.00    -0.359 N 
HETATM   14  H   UNL     1       1.449  -3.616   2.920  1.00  0.00     0.162 HD
HETATM   15  O   UNL     1       4.082  -3.697   4.719  1.00  0.00    -0.273 OA
BRANCH  13  16
HETATM   16  C   UNL     1       1.388  -4.060   5.046  1.00  0.00     0.150 C 
BRANCH  16  17
HETATM   17  C   UNL     1      -0.141  -4.229   5.032  1.00  0.00     0.254 C 
BRANCH  17  18
HETATM   18  N   UNL     1      -0.632  -4.892   6.308  1.00  0.00    -0.070 N 
HETATM   19  H   UNL     1      -0.140  -4.471   7.110  1.00  0.00     0.279 HD
HETATM   20  C   UNL     1      -0.384  -6.396   6.367  1.00  0.00     0.235 C 
HETATM   21  C   UNL     1      -1.760  -7.009   6.223  1.00  0.00     0.029 C 
HETATM   22  C   UNL     1      -2.636  -6.047   6.996  1.00  0.00     0.029 C 
HETATM   23  C   UNL     1      -2.125  -4.687   6.561  1.00  0.00     0.235 C 
ENDBRANCH  17  18
ENDBRANCH  16  17
ENDBRANCH  13  16
ENDBRANCH  11  12
ENDBRANCH   6  11
BRANCH   7  24
HETATM   24  C   UNL     1       4.524  -2.730  -1.079  1.00  0.00    -0.030 A 
HETATM   25  C   UNL     1       5.412  -3.726  -0.643  1.00  0.00     0.011 A 
HETATM   26  C   UNL     1       5.769  -4.797  -1.477  1.00  0.00     0.024 A 
HETATM   27  C   UNL     1       5.289  -4.865  -2.780  1.00  0.00     0.034 A 
HETATM   28 CL   UNL     1       5.758  -6.160  -3.804  1.00  0.00    -0.084 Cl
HETATM   29  C   UNL     1       4.460  -3.863  -3.262  1.00  0.00     0.024 A 
HETATM   30  C   UNL     1       4.093  -2.805  -2.425  1.00  0.00     0.011 A 
ENDBRANCH   7  24
BRANCH  10  31
HETATM   31  C   UNL     1       1.693  -1.736  -0.329  1.00  0.00     0.294 C 
HETATM   32  O   UNL     1       1.357  -2.220   0.747  1.00  0.00    -0.259 OA
BRANCH  31  33
HETATM   33  O   UNL     1       1.258  -2.075  -1.553  1.00  0.00    -0.314 OA
BRANCH  33  34
HETATM   34  C   UNL     1       0.378  -3.208  -1.535  1.00  0.00     0.206 C 
BRANCH  34  35
HETATM   35  C   UNL     1       0.149  -3.659  -2.939  1.00  0.00    -0.011 C 
HETATM   36  C   UNL     1      -1.061  -3.900  -3.460  1.00  0.00     0.009 C 
ENDBRANCH  34  35
ENDBRANCH  33  34
ENDBRANCH  31  33
ENDBRANCH  10  31
TORSDOF 10
