REMARK  10 active torsions:
REMARK  status: ('A' for Active; 'I' for Inactive)
REMARK    1  A    between atoms: C_2  and  O_3 
REMARK    2  A    between atoms: O_3  and  C_4 
REMARK    3  A    between atoms: C_9  and  C_10 
REMARK    4  A    between atoms: C_10  and  O_11 
REMARK    5  A    between atoms: O_11  and  C_12 
REMARK    6  A    between atoms: C_12  and  C_13 
REMARK       I    between atoms: C_13  and  N_14 
REMARK    7  A    between atoms: N_14  and  C_15 
REMARK    8  A    between atoms: C_16  and  C_17 
REMARK       I    between atoms: C_17  and  N_18 
REMARK    9  A    between atoms: N_18  and  C_19 
REMARK   10  A    between atoms: C_19  and  C_20 
ROOT
HETATM    1  C   UNL     1       3.856  -6.588  -2.736  1.00  0.00     0.050 A 
HETATM    2  C   UNL     1       2.993  -7.703  -2.786  1.00  0.00     0.058 A 
HETATM    3  C   UNL     1       1.611  -7.550  -2.588  1.00  0.00     0.019 A 
HETATM    4  C   UNL     1       1.079  -6.297  -2.298  1.00  0.00     0.001 A 
HETATM    5  C   UNL     1       1.926  -5.198  -2.203  1.00  0.00     0.002 A 
HETATM    6  C   UNL     1       3.301  -5.341  -2.421  1.00  0.00     0.030 A 
ENDROOT
BRANCH   1   7
HETATM    7  N   UNL     1       5.225  -6.738  -3.082  1.00  0.00    -0.324 N 
HETATM    8  C   UNL     1       6.233  -5.799  -2.943  1.00  0.00     0.246 C 
HETATM    9  O   UNL     1       6.153  -4.750  -2.307  1.00  0.00    -0.271 OA
HETATM   10  H   UNL     1       5.453  -7.585  -3.600  1.00  0.00     0.169 HD
BRANCH   8  11
HETATM   11  C   UNL     1       7.531  -6.178  -3.669  1.00  0.00     0.282 C 
BRANCH  11  12
HETATM   12  O   UNL     1       7.819  -5.291  -4.749  1.00  0.00    -0.308 OA
BRANCH  12  13
HETATM   13  C   UNL     1       6.975  -5.404  -5.800  1.00  0.00     0.298 C 
HETATM   14  O   UNL     1       6.129  -6.279  -5.924  1.00  0.00    -0.259 OA
BRANCH  13  15
HETATM   15  C   UNL     1       7.227  -4.391  -6.847  1.00  0.00     0.092 A 
HETATM   16  C   UNL     1       7.800  -3.141  -6.625  1.00  0.00     0.180 A 
HETATM   17  N   UNL     1       7.995  -2.231  -7.616  1.00  0.00    -0.236 NA
HETATM   18  C   UNL     1       7.597  -2.568  -8.861  1.00  0.00     0.119 A 
HETATM   19  C   UNL     1       7.006  -3.777  -9.177  1.00  0.00     0.020 A 
HETATM   20  C   UNL     1       6.818  -4.699  -8.152  1.00  0.00     0.023 A 
BRANCH  16  21
HETATM   21  O   UNL     1       8.147  -2.778  -5.342  1.00  0.00    -0.334 OA
BRANCH  21  22
HETATM   22  C   UNL     1       8.758  -1.492  -5.238  1.00  0.00     0.173 C 
HETATM   23  C   UNL     1       9.124  -1.265  -3.782  1.00  0.00     0.034 C 
ENDBRANCH  21  22
ENDBRANCH  16  21
ENDBRANCH  13  15
ENDBRANCH  12  13
ENDBRANCH  11  12
ENDBRANCH   8  11
ENDBRANCH   1   7
BRANCH   2  24
HETATM   24  C   UNL     1       3.475  -9.097  -2.974  1.00  0.00     0.254 C 
HETATM   25  N   UNL     1       4.621  -9.420  -2.279  1.00  0.00    -0.349 N 
HETATM   26  H   UNL     1       5.065  -8.713  -1.706  1.00  0.00     0.163 HD
HETATM   27  O   UNL     1       2.841  -9.888  -3.660  1.00  0.00    -0.268 OA
BRANCH  25  28
HETATM   28  C   UNL     1       5.240 -10.731  -2.363  1.00  0.00     0.114 C 
HETATM   29  C   UNL     1       5.751 -11.158  -0.985  1.00  0.00     0.037 C 
BRANCH  28  30
HETATM   30  C   UNL     1       6.306 -10.722  -3.445  1.00  0.00    -0.036 A 
HETATM   31  C   UNL     1       7.634 -10.335  -3.207  1.00  0.00     0.009 A 
HETATM   32  C   UNL     1       8.574 -10.341  -4.242  1.00  0.00     0.001 A 
HETATM   33  C   UNL     1       8.198 -10.720  -5.529  1.00  0.00     0.000 A 
HETATM   34  C   UNL     1       6.881 -11.087  -5.787  1.00  0.00     0.001 A 
HETATM   35  C   UNL     1       5.942 -11.081  -4.755  1.00  0.00     0.009 A 
ENDBRANCH  28  30
ENDBRANCH  25  28
ENDBRANCH   2  24
TORSDOF 10
