REMARK  7 active torsions:
REMARK  status: ('A' for Active; 'I' for Inactive)
REMARK    1  A    between atoms: C_7  and  C_8 
REMARK    2  A    between atoms: C_8  and  C_9 
REMARK    3  A    between atoms: C_9  and  N_10 
REMARK    4  A    between atoms: N_10  and  C_11 
REMARK    5  A    between atoms: C_11  and  N_12 
REMARK    6  A    between atoms: N_12  and  C_13 
REMARK    7  A    between atoms: C_30  and  C_31 
ROOT
HETATM    1  C   UNL     1       4.251  -5.983  -0.065  1.00  0.00     0.123 C 
HETATM    2  C   UNL     1       3.626  -7.166  -0.356  1.00  0.00     0.144 C 
HETATM    3  C   UNL     1       2.170  -7.344  -0.118  1.00  0.00     0.270 C 
HETATM    4  O   UNL     1       1.516  -6.556   0.566  1.00  0.00    -0.267 OA
HETATM    5  N   UNL     1       1.601  -8.464  -0.696  1.00  0.00    -0.270 N 
HETATM    6  C   UNL     1       0.155  -8.585  -0.637  1.00  0.00     0.164 C 
HETATM    7  C   UNL     1       2.307  -9.585  -1.096  1.00  0.00     0.333 C 
HETATM    8  O   UNL     1       1.732 -10.617  -1.448  1.00  0.00    -0.246 OA
HETATM    9  N   UNL     1       3.687  -9.490  -1.079  1.00  0.00    -0.270 N 
HETATM   10  C   UNL     1       4.440 -10.649  -1.528  1.00  0.00     0.164 C 
HETATM   11  C   UNL     1       4.389  -8.309  -0.924  1.00  0.00     0.270 C 
HETATM   12  O   UNL     1       5.568  -8.198  -1.269  1.00  0.00    -0.267 OA
ENDROOT
BRANCH   1  13
HETATM   13  N   UNL     1       3.525  -4.870   0.375  1.00  0.00    -0.375 N 
HETATM   14  H   UNL     1       2.514  -5.035   0.419  1.00  0.00     0.161 HD
BRANCH  13  15
HETATM   15  C   UNL     1       3.889  -3.490   0.047  1.00  0.00     0.126 C 
BRANCH  15  16
HETATM   16  C   UNL     1       2.672  -2.554   0.054  1.00  0.00     0.061 C 
BRANCH  16  17
HETATM   17  C   UNL     1       1.782  -2.714  -1.148  1.00  0.00    -0.022 A 
HETATM   18  C   UNL     1       2.019  -2.215  -2.420  1.00  0.00     0.013 A 
HETATM   19  C   UNL     1       3.151  -1.416  -2.958  1.00  0.00     0.068 C 
HETATM   20  N   UNL     1       0.969  -2.590  -3.219  1.00  0.00    -0.358 N 
HETATM   21  H   UNL     1       0.878  -2.362  -4.202  1.00  0.00     0.166 HD
HETATM   22  C   UNL     1       0.036  -3.303  -2.499  1.00  0.00     0.058 A 
HETATM   23  C   UNL     1       0.515  -3.386  -1.192  1.00  0.00    -0.000 A 
HETATM   24  C   UNL     1      -1.189  -3.868  -2.913  1.00  0.00     0.075 A 
HETATM   25  C   UNL     1      -0.267  -4.059  -0.233  1.00  0.00     0.014 A 
HETATM   26  C   UNL     1      -1.485  -4.631  -0.607  1.00  0.00     0.002 A 
HETATM   27  C   UNL     1      -1.933  -4.540  -1.922  1.00  0.00     0.018 A 
BRANCH  24  28
HETATM   28  C   UNL     1      -1.713  -3.805  -4.325  1.00  0.00     0.419 C 
HETATM   29  F   UNL     1      -0.968  -3.005  -5.143  1.00  0.00    -0.166 F 
HETATM   30  F   UNL     1      -1.738  -5.026  -4.927  1.00  0.00    -0.166 F 
HETATM   31  F   UNL     1      -2.986  -3.326  -4.397  1.00  0.00    -0.166 F 
ENDBRANCH  24  28
ENDBRANCH  16  17
ENDBRANCH  15  16
ENDBRANCH  13  15
ENDBRANCH   1  13
BRANCH   1  32
HETATM   32  N   UNL     1       5.629  -5.824  -0.255  1.00  0.00    -0.342 N 
HETATM   33  H   UNL     1       6.038  -6.590  -0.805  1.00  0.00     0.167 HD
BRANCH  32  34
HETATM   34  C   UNL     1       6.563  -5.466   0.755  1.00  0.00     0.033 A 
HETATM   35  C   UNL     1       6.209  -5.168   2.076  1.00  0.00     0.029 A 
HETATM   36  C   UNL     1       7.177  -4.792   3.013  1.00  0.00     0.002 A 
HETATM   37  C   UNL     1       8.514  -4.696   2.637  1.00  0.00     0.000 A 
HETATM   38  C   UNL     1       8.884  -4.971   1.324  1.00  0.00     0.002 A 
HETATM   39  C   UNL     1       7.914  -5.347   0.390  1.00  0.00     0.029 A 
ENDBRANCH  32  34
ENDBRANCH   1  32
TORSDOF 7
