REMARK  5 active torsions:
REMARK  status: ('A' for Active; 'I' for Inactive)
REMARK    1  A    between atoms: C_5  and  C_6 
REMARK    2  A    between atoms: N_9  and  C_11 
REMARK    3  A    between atoms: C_11  and  C_12 
REMARK    4  A    between atoms: C_13  and  N_14 
REMARK    5  A    between atoms: N_14  and  C_15 
ROOT
HETATM    1  C   UNL     1       5.759   0.631  -5.203  1.00  0.00    -0.006 A 
HETATM    2  C   UNL     1       6.036   1.755  -6.015  1.00  0.00     0.038 A 
HETATM    3  C   UNL     1       6.472   1.529  -7.336  1.00  0.00     0.030 A 
HETATM    4  C   UNL     1       6.635   0.240  -7.845  1.00  0.00     0.002 A 
HETATM    5  C   UNL     1       6.339  -0.858  -7.054  1.00  0.00     0.001 A 
HETATM    6  C   UNL     1       5.894  -0.665  -5.750  1.00  0.00     0.011 A 
ENDROOT
BRANCH   1   7
HETATM    7  C   UNL     1       5.257   0.755  -3.787  1.00  0.00     0.275 C 
BRANCH   7   8
HETATM    8  N   UNL     1       6.339   0.604  -2.715  1.00  0.00    -0.067 N 
HETATM    9  C   UNL     1       5.830   1.131  -1.394  1.00  0.00     0.236 C 
HETATM   10  C   UNL     1       6.914   1.024  -0.331  1.00  0.00     0.037 C 
HETATM   11  C   UNL     1       7.383  -0.428  -0.143  1.00  0.00     0.025 C 
HETATM   12  C   UNL     1       7.903  -0.927  -1.496  1.00  0.00     0.037 C 
HETATM   13  C   UNL     1       6.867  -0.810  -2.609  1.00  0.00     0.236 C 
HETATM   14  H   UNL     1       7.119   1.192  -3.025  1.00  0.00     0.280 HD
BRANCH  11  15
HETATM   15  C   UNL     1       6.313  -1.298   0.460  1.00  0.00    -0.018 A 
HETATM   16  C   UNL     1       5.490  -0.991   1.575  1.00  0.00     0.147 A 
HETATM   17  N   UNL     1       4.581  -1.932   1.818  1.00  0.00    -0.185 NA
HETATM   18  N   UNL     1       4.883  -2.909   0.951  1.00  0.00    -0.285 N 
HETATM   19  C   UNL     1       4.121  -4.136   0.963  1.00  0.00     0.179 C 
HETATM   20  C   UNL     1       5.909  -2.574   0.110  1.00  0.00     0.120 A 
ENDBRANCH  11  15
ENDBRANCH   7   8
ENDBRANCH   1   7
BRANCH   2  21
HETATM   21  N   UNL     1       5.774   3.067  -5.552  1.00  0.00    -0.380 N 
HETATM   22  C   UNL     1       4.833   3.774  -6.434  1.00  0.00     0.150 C 
BRANCH  21  23
HETATM   23  C   UNL     1       6.910   3.788  -4.926  1.00  0.00     0.087 C 
HETATM   24  C   UNL     1       6.431   4.934  -4.018  1.00  0.00     0.053 C 
HETATM   25  C   UNL     1       6.327   6.294  -4.696  1.00  0.00     0.236 C 
HETATM   26  N   UNL     1       7.600   6.603  -5.430  1.00  0.00    -0.075 N 
HETATM   27  H   UNL     1       8.379   6.597  -4.756  1.00  0.00     0.279 HD
HETATM   28  C   UNL     1       7.590   8.004  -5.999  1.00  0.00     0.269 C 
HETATM   29  C   UNL     1       7.885   5.580  -6.497  1.00  0.00     0.236 C 
HETATM   30  C   UNL     1       8.048   4.211  -5.860  1.00  0.00     0.053 C 
ENDBRANCH  21  23
ENDBRANCH   2  21
TORSDOF 5
