REMARK  5 active torsions:
REMARK  status: ('A' for Active; 'I' for Inactive)
REMARK    1  A    between atoms: O_2  and  C_3 
REMARK    2  A    between atoms: C_4  and  C_5 
REMARK       I    between atoms: C_5  and  N_6 
REMARK    3  A    between atoms: N_6  and  C_7 
REMARK    4  A    between atoms: C_7  and  C_8 
REMARK    5  A    between atoms: C_8  and  C_9 
ROOT
HETATM    1  C   UNL     1      -1.364   1.311   0.957  1.00  0.00     0.256 C 
HETATM    2  N   UNL     1      -0.057   0.874   1.007  1.00  0.00    -0.356 N 
HETATM    3  O   UNL     1      -2.326   0.590   1.193  1.00  0.00    -0.268 OA
HETATM    4  H   UNL     1       0.690   1.477   0.685  1.00  0.00     0.162 HD
ENDROOT
BRANCH   2   5
HETATM    5  C   UNL     1       0.264  -0.516   1.281  1.00  0.00     0.130 C 
BRANCH   5   6
HETATM    6  C   UNL     1      -0.072  -1.439   0.109  1.00  0.00     0.098 C 
BRANCH   6   7
HETATM    7  C   UNL     1       0.285  -2.848   0.425  1.00  0.00     0.106 A 
HETATM    8  N   UNL     1       1.476  -3.399   0.313  1.00  0.00    -0.233 NA
HETATM    9  C   UNL     1       1.317  -4.703   0.714  1.00  0.00     0.085 A 
HETATM   10  C   UNL     1       0.002  -4.951   1.090  1.00  0.00     0.062 A 
HETATM   11  C   UNL     1       2.259  -5.740   0.786  1.00  0.00     0.034 A 
HETATM   12  N   UNL     1      -0.636  -3.753   0.896  1.00  0.00    -0.343 N 
HETATM   13  C   UNL     1      -0.443  -6.194   1.545  1.00  0.00     0.032 A 
HETATM   14  H   UNL     1      -1.614  -3.565   1.067  1.00  0.00     0.167 HD
HETATM   15  C   UNL     1       0.510  -7.217   1.610  1.00  0.00     0.002 A 
HETATM   16  C   UNL     1       1.839  -6.998   1.237  1.00  0.00     0.002 A 
ENDBRANCH   6   7
ENDBRANCH   5   6
ENDBRANCH   2   5
BRANCH   1  17
HETATM   17  C   UNL     1      -1.552   2.739   0.613  1.00  0.00     0.088 A 
HETATM   18  C   UNL     1      -2.285   3.566   1.484  1.00  0.00     0.107 A 
HETATM   19  C   UNL     1      -2.517   4.907   1.144  1.00  0.00     0.068 A 
HETATM   20  C   UNL     1      -1.995   5.435  -0.037  1.00  0.00     0.028 A 
HETATM   21 CL   UNL     1      -3.436   5.953   2.166  1.00  0.00    -0.081 Cl
HETATM   22  C   UNL     1      -1.257   4.621  -0.896  1.00  0.00     0.027 A 
HETATM   23  C   UNL     1      -1.041   3.275  -0.580  1.00  0.00     0.052 A 
HETATM   24 CL   UNL     1      -0.162   2.335  -1.736  1.00  0.00    -0.083 Cl
BRANCH  18  25
HETATM   25  O   UNL     1      -2.845   3.075   2.639  1.00  0.00    -0.353 OA
HETATM   26  C   UNL     1      -1.899   3.052   3.708  1.00  0.00     0.210 C 
ENDBRANCH  18  25
ENDBRANCH   1  17
TORSDOF 5
