REMARK  7 active torsions:
REMARK  status: ('A' for Active; 'I' for Inactive)
REMARK    1  A    between atoms: C_3  and  N_4 
REMARK       I    between atoms: N_4  and  C_5 
REMARK    2  A    between atoms: C_5  and  C_6 
REMARK    3  A    between atoms: C_7  and  C_8 
REMARK    4  A    between atoms: C_19  and  C_20 
REMARK    5  A    between atoms: C_20  and  C_21 
REMARK    6  A    between atoms: C_21  and  C_22 
REMARK    7  A    between atoms: C_22  and  O_23 
ROOT
HETATM    1  C   UNL     1       4.494   3.456   0.175  1.00  0.00     0.062 C 
HETATM    2  C   UNL     1       5.128   4.817  -0.139  1.00  0.00     0.202 C 
HETATM    3  N   UNL     1       6.589   4.759  -0.007  1.00  0.00    -0.083 N 
HETATM    4  C   UNL     1       7.257   3.733   0.603  1.00  0.00     0.726 A 
HETATM    5  N   UNL     1       6.572   2.648   1.006  1.00  0.00    -0.192 N 
HETATM    6  N   UNL     1       7.431   5.754  -0.357  1.00  0.00    -0.140 NA
HETATM    7  C   UNL     1       8.584   5.295   0.151  1.00  0.00     0.166 A 
HETATM    8  N   UNL     1       8.523   4.041   0.716  1.00  0.00    -0.046 NA
HETATM    9  C   UNL     1       5.212   2.473   0.780  1.00  0.00     0.037 C 
HETATM   10  C   UNL     1       4.642   1.174   1.298  1.00  0.00     0.070 C 
HETATM   11  H   UNL     1       7.081   1.900   1.468  1.00  0.00     0.184 HD
ENDROOT
BRANCH   1  12
HETATM   12  C   UNL     1       3.055   3.333  -0.217  1.00  0.00     0.256 C 
HETATM   13  N   UNL     1       2.720   2.109  -0.748  1.00  0.00    -0.323 N 
HETATM   14  H   UNL     1       3.490   1.557  -1.104  1.00  0.00     0.169 HD
HETATM   15  O   UNL     1       2.328   4.317  -0.185  1.00  0.00    -0.267 OA
BRANCH  13  16
HETATM   16  C   UNL     1       1.431   1.582  -0.998  1.00  0.00     0.041 A 
HETATM   17  C   UNL     1       0.239   1.946  -0.342  1.00  0.00    -0.035 A 
HETATM   18  C   UNL     1       0.137   2.939   0.783  1.00  0.00     0.050 C 
HETATM   19  C   UNL     1      -0.964   1.315  -0.724  1.00  0.00     0.009 A 
HETATM   20  C   UNL     1      -0.987   0.307  -1.684  1.00  0.00     0.001 A 
HETATM   21  C   UNL     1       0.197  -0.090  -2.288  1.00  0.00     0.002 A 
HETATM   22  C   UNL     1       1.393   0.539  -1.943  1.00  0.00     0.030 A 
ENDBRANCH  13  16
ENDBRANCH   1  12
BRANCH   2  23
HETATM   23  C   UNL     1       4.603   5.953   0.744  1.00  0.00    -0.028 A 
HETATM   24  C   UNL     1       4.720   5.912   2.146  1.00  0.00     0.011 A 
HETATM   25  C   UNL     1       4.243   6.964   2.932  1.00  0.00     0.024 A 
HETATM   26  C   UNL     1       3.641   8.064   2.326  1.00  0.00     0.034 A 
HETATM   27 CL   UNL     1       3.050   9.357   3.295  1.00  0.00    -0.084 Cl
HETATM   28  C   UNL     1       3.517   8.125   0.940  1.00  0.00     0.024 A 
HETATM   29  C   UNL     1       3.997   7.076   0.152  1.00  0.00     0.011 A 
ENDBRANCH   2  23
BRANCH   7  30
HETATM   30  C   UNL     1       9.819   6.115   0.210  1.00  0.00     0.085 C 
BRANCH  30  31
HETATM   31  C   UNL     1       9.839   7.065   1.409  1.00  0.00     0.034 C 
BRANCH  31  32
HETATM   32  C   UNL     1       9.798   6.339   2.750  1.00  0.00     0.164 C 
BRANCH  32  33
HETATM   33  O   UNL     1       9.916   7.279   3.813  1.00  0.00    -0.401 OA
HETATM   34  H   UNL     1      10.765   7.740   3.706  1.00  0.00     0.209 HD
ENDBRANCH  32  33
ENDBRANCH  31  32
ENDBRANCH  30  31
ENDBRANCH   7  30
TORSDOF 7
