REMARK  7 active torsions:
REMARK  status: ('A' for Active; 'I' for Inactive)
REMARK    1  A    between atoms: C_7  and  C_8 
REMARK    2  A    between atoms: C_8  and  N_9 
REMARK       I    between atoms: N_9  and  C_10 
REMARK       I    between atoms: C_10  and  N_11 
REMARK    3  A    between atoms: N_11  and  C_12 
REMARK    4  A    between atoms: C_12  and  C_13 
REMARK    5  A    between atoms: C_13  and  C_14 
REMARK    6  A    between atoms: C_14  and  O_15 
REMARK    7  A    between atoms: C_14  and  C_16 
ROOT
HETATM    1  N   UNL     1       4.197   2.884  -0.748  1.00  0.00    -0.337 N 
HETATM    2  C   UNL     1       2.878   3.041  -0.406  1.00  0.00     0.316 C 
HETATM    3  N   UNL     1       2.606   4.303   0.025  1.00  0.00    -0.339 N 
HETATM    4  O   UNL     1       2.052   2.140  -0.509  1.00  0.00    -0.247 OA
HETATM    5  H   UNL     1       4.796   3.642  -0.451  1.00  0.00     0.164 HD
HETATM    6  H   UNL     1       3.380   4.927   0.240  1.00  0.00     0.164 HD
ENDROOT
BRANCH   1   7
HETATM    7  C   UNL     1       4.806   1.570  -0.804  1.00  0.00     0.183 C 
BRANCH   7   8
HETATM    8  C   UNL     1       4.356   0.777  -1.975  1.00  0.00     0.044 A 
HETATM    9  N   UNL     1       3.023   0.622  -2.328  1.00  0.00    -0.343 N 
HETATM   10  C   UNL     1       2.894  -0.172  -3.380  1.00  0.00     0.112 A 
HETATM   11  H   UNL     1       2.259   1.074  -1.810  1.00  0.00     0.167 HD
HETATM   12  N   UNL     1       4.129  -0.585  -3.733  1.00  0.00    -0.311 N 
HETATM   13  C   UNL     1       1.686  -0.618  -4.110  1.00  0.00     0.049 A 
HETATM   14  C   UNL     1       4.351  -1.472  -4.785  1.00  0.00     0.014 A 
HETATM   15  C   UNL     1       5.053   0.007  -2.883  1.00  0.00     0.125 A 
HETATM   16  C   UNL     1       5.736  -1.935  -5.127  1.00  0.00     0.068 C 
HETATM   17  C   UNL     1       3.254  -1.889  -5.456  1.00  0.00     0.025 A 
HETATM   18  C   UNL     1       1.896  -1.463  -5.134  1.00  0.00     0.006 A 
ENDBRANCH   7   8
ENDBRANCH   1   7
BRANCH   3  19
HETATM   19  C   UNL     1       1.349   4.687   0.658  1.00  0.00     0.085 C 
HETATM   20  C   UNL     1       1.183   4.004   2.015  1.00  0.00     0.032 C 
BRANCH  19  21
HETATM   21  C   UNL     1       1.223   6.224   0.729  1.00  0.00     0.063 C 
BRANCH  21  22
HETATM   22  C   UNL     1       2.320   6.994   1.482  1.00  0.00     0.177 C 
BRANCH  22  23
HETATM   23  O   UNL     1       3.621   6.541   1.073  1.00  0.00    -0.389 OA
HETATM   24  H   UNL     1       4.224   6.840   1.783  1.00  0.00     0.210 HD
ENDBRANCH  22  23
BRANCH  22  25
HETATM   25  C   UNL     1       2.232   6.903   2.970  1.00  0.00     0.081 A 
HETATM   26  O   UNL     1       3.332   6.423   3.627  1.00  0.00    -0.324 OA
HETATM   27  C   UNL     1       3.049   6.452   4.954  1.00  0.00     0.142 A 
HETATM   28  C   UNL     1       1.789   6.958   5.166  1.00  0.00     0.027 A 
HETATM   29  C   UNL     1       1.262   7.258   3.886  1.00  0.00     0.037 A 
ENDBRANCH  22  25
ENDBRANCH  21  22
ENDBRANCH  19  21
ENDBRANCH   3  19
TORSDOF 7
