REMARK  9 active torsions:
REMARK  status: ('A' for Active; 'I' for Inactive)
REMARK    1  A    between atoms: C_6  and  N_7 
REMARK    2  A    between atoms: C_6  and  C_31 
REMARK       I    between atoms: N_7  and  C_8 
REMARK    3  A    between atoms: N_7  and  C_23 
REMARK    4  A    between atoms: C_8  and  C_9 
REMARK    5  A    between atoms: C_9  and  N_10 
REMARK    6  A    between atoms: C_14  and  C_15 
REMARK    7  A    between atoms: C_23  and  C_24 
REMARK       I    between atoms: C_31  and  N_32 
REMARK    8  A    between atoms: N_32  and  C_33 
REMARK    9  A    between atoms: C_36  and  O_37 
ROOT
HETATM    1  N   UNL     1       6.459  -0.235   2.168  1.00  0.00    -0.328 N 
HETATM    2  C   UNL     1       6.898   0.269   3.407  1.00  0.00     0.239 C 
HETATM    3  O   UNL     1       6.173   0.995   4.095  1.00  0.00    -0.271 OA
ENDROOT
BRANCH   1   4
HETATM    4  C   UNL     1       5.040   0.062   1.698  1.00  0.00     0.120 C 
HETATM    5  C   UNL     1       3.992  -0.424   2.741  1.00  0.00     0.069 C 
HETATM    6  C   UNL     1       2.574  -0.016   2.370  1.00  0.00     0.237 C 
HETATM    7  N   UNL     1       2.507   1.481   2.254  1.00  0.00    -0.075 N 
HETATM    8  C   UNL     1       1.090   1.949   2.041  1.00  0.00     0.269 C 
HETATM    9  H   UNL     1       2.813   1.882   3.155  1.00  0.00     0.279 HD
HETATM   10  C   UNL     1       3.429   2.020   1.188  1.00  0.00     0.237 C 
HETATM   11  C   UNL     1       4.868   1.594   1.473  1.00  0.00     0.069 C 
BRANCH   4  12
HETATM   12  C   UNL     1       4.698  -0.656   0.330  1.00  0.00     0.251 C 
HETATM   13  N   UNL     1       4.640  -2.034   0.383  1.00  0.00    -0.325 N 
HETATM   14  H   UNL     1       4.854  -2.491   1.262  1.00  0.00     0.169 HD
HETATM   15  O   UNL     1       4.429   0.014  -0.665  1.00  0.00    -0.270 OA
BRANCH  13  16
HETATM   16  C   UNL     1       4.497  -2.927  -0.703  1.00  0.00     0.035 A 
HETATM   17  C   UNL     1       4.541  -2.542  -2.044  1.00  0.00     0.032 A 
HETATM   18  C   UNL     1       4.506  -3.505  -3.061  1.00  0.00     0.039 A 
HETATM   19  C   UNL     1       4.417  -4.859  -2.743  1.00  0.00     0.068 A 
HETATM   20  C   UNL     1       4.315  -5.243  -1.409  1.00  0.00     0.039 A 
HETATM   21  C   UNL     1       4.372  -4.287  -0.394  1.00  0.00     0.032 A 
BRANCH  19  22
HETATM   22  O   UNL     1       4.392  -5.876  -3.654  1.00  0.00    -0.356 OA
HETATM   23  C   UNL     1       5.179  -5.655  -4.821  1.00  0.00     0.210 C 
ENDBRANCH  19  22
ENDBRANCH  13  16
ENDBRANCH   4  12
ENDBRANCH   1   4
BRANCH   1  24
HETATM   24  C   UNL     1       7.461  -0.652   1.160  1.00  0.00     0.169 C 
BRANCH  24  25
HETATM   25  C   UNL     1       7.613  -2.141   0.988  1.00  0.00    -0.002 A 
HETATM   26  C   UNL     1       8.068  -2.618  -0.249  1.00  0.00     0.124 A 
HETATM   27  F   UNL     1       8.324  -1.749  -1.237  1.00  0.00    -0.205 F 
HETATM   28  C   UNL     1       8.244  -3.976  -0.490  1.00  0.00     0.043 A 
HETATM   29  C   UNL     1       7.982  -4.893   0.524  1.00  0.00     0.003 A 
HETATM   30  C   UNL     1       7.551  -4.444   1.771  1.00  0.00     0.001 A 
HETATM   31  C   UNL     1       7.370  -3.077   2.005  1.00  0.00     0.012 A 
ENDBRANCH  24  25
ENDBRANCH   1  24
BRANCH   2  32
HETATM   32  C   UNL     1       8.296  -0.109   3.937  1.00  0.00     0.228 C 
BRANCH  32  33
HETATM   33  N   UNL     1       9.416   0.678   3.433  1.00  0.00    -0.347 N 
HETATM   34  C   UNL     1      10.690   0.189   3.142  1.00  0.00     0.171 A 
HETATM   35  S   UNL     1      11.204  -1.378   3.023  1.00  0.00    -0.041 SA
HETATM   36  N   UNL     1      11.534   1.261   2.949  1.00  0.00    -0.357 N 
HETATM   37  C   UNL     1      10.898   2.524   3.231  1.00  0.00     0.135 A 
HETATM   38  H   UNL     1      12.523   1.144   2.766  1.00  0.00     0.162 HD
HETATM   39  C   UNL     1       9.441   2.134   3.547  1.00  0.00     0.155 A 
BRANCH  37  40
HETATM   40  C   UNL     1      11.074   3.495   2.089  1.00  0.00    -0.034 A 
HETATM   41  C   UNL     1      10.689   3.166   0.779  1.00  0.00     0.009 A 
HETATM   42  C   UNL     1      10.887   4.067  -0.270  1.00  0.00     0.001 A 
HETATM   43  C   UNL     1      11.472   5.306  -0.023  1.00  0.00     0.000 A 
HETATM   44  C   UNL     1      11.861   5.647   1.270  1.00  0.00     0.001 A 
HETATM   45  C   UNL     1      11.663   4.748   2.320  1.00  0.00     0.009 A 
ENDBRANCH  37  40
ENDBRANCH  32  33
ENDBRANCH   2  32
TORSDOF 9
