REMARK  3 active torsions:
REMARK  status: ('A' for Active; 'I' for Inactive)
REMARK    1  A    between atoms: C_3  and  N_4 
REMARK       I    between atoms: N_4  and  C_5 
REMARK       I    between atoms: C_5  and  N_6 
REMARK    2  A    between atoms: N_6  and  C_7 
REMARK    3  A    between atoms: C_7  and  C_8 
ROOT
HETATM    1  C   UNL     1       5.395   3.609   0.640  1.00  0.00    -0.036 A 
HETATM    2  C   UNL     1       4.385   4.573   0.771  1.00  0.00     0.011 A 
HETATM    3  C   UNL     1       4.677   5.856   1.247  1.00  0.00     0.023 A 
HETATM    4  C   UNL     1       5.984   6.196   1.606  1.00  0.00     0.044 A 
HETATM    5  C   UNL     1       6.283   7.512   2.087  1.00  0.00     0.099 C 
HETATM    6  N   UNL     1       6.526   8.580   2.472  1.00  0.00    -0.191 NA
HETATM    7  C   UNL     1       6.998   5.244   1.494  1.00  0.00     0.023 A 
HETATM    8  C   UNL     1       6.705   3.963   1.018  1.00  0.00     0.011 A 
ENDROOT
BRANCH   1   9
HETATM    9  C   UNL     1       5.152   2.204   0.115  1.00  0.00     0.115 C 
HETATM   10  C   UNL     1       3.802   1.970  -0.570  1.00  0.00     0.037 C 
BRANCH   9  11
HETATM   11  N   UNL     1       5.314   1.246   1.205  1.00  0.00    -0.335 N 
HETATM   12  C   UNL     1       5.765  -0.039   1.099  1.00  0.00     0.321 C 
HETATM   13  N   UNL     1       6.714  -0.237   0.135  1.00  0.00    -0.307 N 
HETATM   14  O   UNL     1       5.326  -0.882   1.872  1.00  0.00    -0.247 OA
HETATM   15  H   UNL     1       7.231   0.587  -0.119  1.00  0.00     0.170 HD
HETATM   16  H   UNL     1       4.646   1.332   1.962  1.00  0.00     0.165 HD
BRANCH  13  17
HETATM   17  C   UNL     1       7.240  -1.475  -0.298  1.00  0.00     0.059 A 
HETATM   18  C   UNL     1       8.394  -1.493  -1.103  1.00  0.00    -0.032 A 
HETATM   19  C   UNL     1       9.134  -0.242  -1.488  1.00  0.00     0.050 C 
HETATM   20  C   UNL     1       8.891  -2.729  -1.541  1.00  0.00     0.028 A 
HETATM   21  C   UNL     1       8.225  -3.889  -1.182  1.00  0.00     0.117 A 
HETATM   22  N   UNL     1       7.113  -3.906  -0.425  1.00  0.00    -0.271 NA
HETATM   23  C   UNL     1       6.648  -2.704   0.002  1.00  0.00     0.146 A 
ENDBRANCH  13  17
ENDBRANCH   9  11
ENDBRANCH   1   9
TORSDOF 3
