REMARK  5 active torsions:
REMARK  status: ('A' for Active; 'I' for Inactive)
REMARK    1  A    between atoms: C_2  and  O_3 
REMARK    2  A    between atoms: C_2  and  C_4 
REMARK    3  A    between atoms: C_7  and  N_8 
REMARK    4  A    between atoms: N_12  and  C_13 
REMARK    5  A    between atoms: C_13  and  C_14 
ROOT
HETATM    1  N   UNL     1       1.635   4.290   0.674  1.00  0.00    -0.367 N 
HETATM    2  C   UNL     1       2.575   4.241   1.819  1.00  0.00     0.127 C 
HETATM    3  C   UNL     1       2.277   5.324   2.862  1.00  0.00     0.068 C 
HETATM    4  C   UNL     1       0.766   5.562   3.109  1.00  0.00     0.206 C 
HETATM    5  N   UNL     1       0.496   6.709   4.079  1.00  0.00     0.105 N 
HETATM    6  C   UNL     1       0.629   6.316   5.526  1.00  0.00     0.280 C 
HETATM    7  C   UNL     1      -0.354   5.221   5.981  1.00  0.00     0.089 C 
HETATM    8  C   UNL     1      -0.333   4.156   4.978  1.00  0.00     0.037 A 
HETATM    9  C   UNL     1       0.161   4.288   3.702  1.00  0.00     0.072 A 
HETATM   10  N   UNL     1      -0.075   3.067   3.084  1.00  0.00    -0.352 N 
HETATM   11  H   UNL     1       0.127   2.860   2.108  1.00  0.00     0.166 HD
HETATM   12  C   UNL     1      -0.682   2.222   3.927  1.00  0.00     0.181 A 
HETATM   13  N   UNL     1      -0.821   2.871   5.086  1.00  0.00    -0.354 N 
HETATM   14  H   UNL     1      -1.267   2.480   5.915  1.00  0.00     0.166 HD
HETATM   15  C   UNL     1       0.020   5.797   1.760  1.00  0.00     0.068 C 
HETATM   16  C   UNL     1       0.891   5.548   0.527  1.00  0.00     0.127 C 
ENDROOT
BRANCH   5  17
HETATM   17  C   UNL     1       1.312   7.946   3.907  1.00  0.00     0.277 C 
BRANCH  17  18
HETATM   18  C   UNL     1       1.035   8.826   2.672  1.00  0.00     0.006 C 
HETATM   19  C   UNL     1      -0.385   9.399   2.694  1.00  0.00     0.011 C 
HETATM   20  C   UNL     1       2.044   9.979   2.619  1.00  0.00     0.011 C 
ENDBRANCH  17  18
ENDBRANCH   5  17
BRANCH   1  21
HETATM   21  C   UNL     1       2.186   3.722  -0.493  1.00  0.00     0.103 A 
HETATM   22  N   UNL     1       2.241   4.387  -1.656  1.00  0.00    -0.344 N 
HETATM   23  C   UNL     1       2.763   3.898  -2.799  1.00  0.00     0.039 A 
HETATM   24  H   UNL     1       1.918   5.353  -1.743  1.00  0.00     0.167 HD
HETATM   25  C   UNL     1       3.280   2.608  -2.819  1.00  0.00     0.028 A 
HETATM   26  C   UNL     1       3.239   1.856  -1.653  1.00  0.00     0.006 A 
HETATM   27  C   UNL     1       2.695   2.409  -0.493  1.00  0.00     0.048 A 
BRANCH  23  28
HETATM   28  C   UNL     1       2.756   4.845  -3.963  1.00  0.00     0.163 C 
HETATM   29  C   UNL     1       1.879   4.370  -5.111  1.00  0.00     0.046 C 
BRANCH  28  30
HETATM   30  O   UNL     1       2.217   6.074  -3.437  1.00  0.00    -0.390 OA
HETATM   31  H   UNL     1       2.241   6.722  -4.174  1.00  0.00     0.210 HD
ENDBRANCH  28  30
ENDBRANCH  23  28
ENDBRANCH   1  21
TORSDOF 5
