REMARK  6 active torsions:
REMARK  status: ('A' for Active; 'I' for Inactive)
REMARK    1  A    between atoms: C_4  and  C_5 
REMARK    2  A    between atoms: C_5  and  C_6 
REMARK    3  A    between atoms: C_6  and  C_7 
REMARK    4  A    between atoms: C_7  and  N_8 
REMARK    5  A    between atoms: C_11  and  O_12 
REMARK    6  A    between atoms: C_11  and  C_13 
ROOT
HETATM    1  N   UNL     1       5.548  -2.564  -0.338  1.00  0.00    -0.314 N 
HETATM    2  C   UNL     1       6.893  -2.965  -0.327  1.00  0.00     0.269 A 
HETATM    3  O   UNL     1       7.871  -2.234  -0.417  1.00  0.00    -0.269 OA
HETATM    4  C   UNL     1       6.911  -4.522  -0.243  1.00  0.00     0.198 A 
HETATM    5  C   UNL     1       5.442  -4.856  -0.286  1.00  0.00     0.017 A 
HETATM    6  C   UNL     1       4.693  -3.676  -0.348  1.00  0.00     0.047 A 
HETATM    7  C   UNL     1       4.815  -6.095  -0.333  1.00  0.00     0.013 A 
HETATM    8  C   UNL     1       3.421  -6.131  -0.420  1.00  0.00     0.001 A 
HETATM    9  C   UNL     1       2.676  -4.942  -0.469  1.00  0.00     0.002 A 
HETATM   10  C   UNL     1       3.312  -3.698  -0.436  1.00  0.00     0.030 A 
ENDROOT
BRANCH   4  11
HETATM   11  O   UNL     1       7.570  -5.073  -1.379  1.00  0.00    -0.371 OA
HETATM   12  H   UNL     1       8.465  -4.690  -1.347  1.00  0.00     0.212 HD
ENDBRANCH   4  11
BRANCH   4  13
HETATM   13  C   UNL     1       7.460  -5.065   1.054  1.00  0.00     0.018 A 
HETATM   14  C   UNL     1       7.424  -4.485   2.376  1.00  0.00     0.002 A 
HETATM   15  C   UNL     1       8.097  -5.357   3.236  1.00  0.00     0.043 A 
HETATM   16  C   UNL     1       6.894  -3.299   2.933  1.00  0.00     0.014 A 
HETATM   17  C   UNL     1       8.275  -5.102   4.602  1.00  0.00     0.030 A 
HETATM   18  N   UNL     1       8.510  -6.432   2.489  1.00  0.00    -0.365 N 
HETATM   19  C   UNL     1       7.749  -3.916   5.117  1.00  0.00     0.002 A 
HETATM   20  C   UNL     1       7.066  -3.026   4.296  1.00  0.00     0.001 A 
HETATM   21  H   UNL     1       9.020  -7.223   2.857  1.00  0.00     0.165 HD
HETATM   22  C   UNL     1       8.140  -6.270   1.186  1.00  0.00     0.100 A 
ENDBRANCH   4  13
BRANCH   1  23
HETATM   23  C   UNL     1       5.129  -1.192  -0.504  1.00  0.00     0.133 C 
BRANCH  23  24
HETATM   24  C   UNL     1       5.021  -0.807  -1.978  1.00  0.00     0.025 C 
BRANCH  24  25
HETATM   25  C   UNL     1       4.617   0.658  -2.138  1.00  0.00     0.040 C 
BRANCH  25  26
HETATM   26  C   UNL     1       4.506   1.037  -3.593  1.00  0.00    -0.058 A 
HETATM   27  C   UNL     1       3.300   0.858  -4.284  1.00  0.00     0.007 A 
HETATM   28  C   UNL     1       3.209   1.176  -5.640  1.00  0.00     0.001 A 
HETATM   29  C   UNL     1       4.322   1.672  -6.317  1.00  0.00     0.000 A 
HETATM   30  C   UNL     1       5.526   1.850  -5.640  1.00  0.00     0.001 A 
HETATM   31  C   UNL     1       5.620   1.532  -4.284  1.00  0.00     0.007 A 
ENDBRANCH  25  26
ENDBRANCH  24  25
ENDBRANCH  23  24
ENDBRANCH   1  23
TORSDOF 6
