REMARK  5 active torsions:
REMARK  status: ('A' for Active; 'I' for Inactive)
REMARK    1  A    between atoms: O_2  and  C_3 
REMARK    2  A    between atoms: C_4  and  C_5 
REMARK    3  A    between atoms: C_9  and  N_10 
REMARK       I    between atoms: N_10  and  C_11 
REMARK    4  A    between atoms: C_11  and  C_12 
REMARK    5  A    between atoms: C_12  and  C_13 
ROOT
HETATM    1  C   UNL     1       1.836   2.622   0.522  1.00  0.00     0.093 A 
HETATM    2  N   UNL     1       1.212   1.621   1.163  1.00  0.00    -0.172 NA
HETATM    3  N   UNL     1       0.352   2.241   1.991  1.00  0.00    -0.262 N 
HETATM    4  H   UNL     1      -0.251   1.689   2.596  1.00  0.00     0.191 HD
HETATM    5  C   UNL     1       0.361   3.605   1.870  1.00  0.00     0.126 A 
HETATM    6  C   UNL     1       1.338   3.886   0.949  1.00  0.00     0.084 A 
ENDROOT
BRANCH   5   7
HETATM    7  N   UNL     1      -0.491   4.457   2.539  1.00  0.00    -0.311 N 
HETATM    8  C   UNL     1      -1.490   3.985   3.367  1.00  0.00     0.236 C 
HETATM    9  O   UNL     1      -1.658   2.815   3.695  1.00  0.00    -0.272 OA
HETATM   10  H   UNL     1      -0.447   5.446   2.331  1.00  0.00     0.170 HD
BRANCH   8  11
HETATM   11  C   UNL     1      -2.449   5.057   3.822  1.00  0.00     0.068 A 
HETATM   12  C   UNL     1      -2.820   5.086   5.303  1.00  0.00     0.026 A 
HETATM   13  C   UNL     1      -1.922   6.147   4.752  1.00  0.00     0.026 A 
BRANCH  11  14
HETATM   14  C   UNL     1      -3.547   5.405   2.819  1.00  0.00    -0.040 A 
HETATM   15  C   UNL     1      -4.675   4.576   2.675  1.00  0.00     0.010 A 
HETATM   16  C   UNL     1      -5.666   4.848   1.726  1.00  0.00     0.024 A 
HETATM   17  C   UNL     1      -5.541   5.960   0.900  1.00  0.00     0.034 A 
HETATM   18 CL   UNL     1      -6.750   6.294  -0.277  1.00  0.00    -0.084 Cl
HETATM   19  C   UNL     1      -4.438   6.800   1.018  1.00  0.00     0.024 A 
HETATM   20  C   UNL     1      -3.452   6.522   1.969  1.00  0.00     0.010 A 
ENDBRANCH  11  14
ENDBRANCH   8  11
ENDBRANCH   5   7
BRANCH   1  21
HETATM   21  C   UNL     1       2.822   2.382  -0.530  1.00  0.00     0.029 A 
HETATM   22  C   UNL     1       3.926   1.532  -0.357  1.00  0.00     0.081 A 
HETATM   23  C   UNL     1       4.857   1.352  -1.387  1.00  0.00     0.039 A 
HETATM   24  C   UNL     1       4.676   1.995  -2.612  1.00  0.00     0.026 A 
HETATM   25  C   UNL     1       3.574   2.826  -2.796  1.00  0.00     0.035 A 
HETATM   26  C   UNL     1       2.653   3.025  -1.768  1.00  0.00     0.040 A 
HETATM   27 CL   UNL     1       3.352   3.626  -4.304  1.00  0.00    -0.084 Cl
BRANCH  22  28
HETATM   28  O   UNL     1       4.179   0.936   0.852  1.00  0.00    -0.355 OA
HETATM   29  C   UNL     1       3.807  -0.443   0.811  1.00  0.00     0.210 C 
ENDBRANCH  22  28
ENDBRANCH   1  21
TORSDOF 5
