REMARK  3 active torsions:
REMARK  status: ('A' for Active; 'I' for Inactive)
REMARK    1  A    between atoms: O_2  and  C_3 
REMARK    2  A    between atoms: C_9  and  C_10 
REMARK       I    between atoms: C_10  and  N_11 
REMARK    3  A    between atoms: N_11  and  C_12 
ROOT
HETATM    1  C   UNL     1       2.881   1.303   0.261  1.00  0.00     0.068 A 
HETATM    2  C   UNL     1       4.162   1.160   0.800  1.00  0.00     0.044 A 
HETATM    3  C   UNL     1       4.867   2.273   1.277  1.00  0.00    -0.043 A 
HETATM    4  C   UNL     1       4.261   3.550   1.233  1.00  0.00    -0.001 A 
HETATM    5  C   UNL     1       5.054   4.659   1.734  1.00  0.00     0.069 A 
HETATM    6  C   UNL     1       6.395   4.578   2.034  1.00  0.00     0.007 A 
HETATM    7  C   UNL     1       6.775   5.874   2.456  1.00  0.00     0.153 A 
HETATM    8  N   UNL     1       5.710   6.711   2.450  1.00  0.00    -0.168 NA
HETATM    9  N   UNL     1       4.689   5.941   2.009  1.00  0.00    -0.276 N 
HETATM   10  H   UNL     1       3.770   6.361   1.923  1.00  0.00     0.189 HD
HETATM   11  C   UNL     1       7.164   3.318   1.851  1.00  0.00     0.048 C 
HETATM   12  C   UNL     1       6.233   2.086   1.929  1.00  0.00     0.044 C 
HETATM   13  C   UNL     1       2.983   3.692   0.690  1.00  0.00     0.017 A 
HETATM   14  C   UNL     1       2.297   2.571   0.204  1.00  0.00     0.037 A 
ENDROOT
BRANCH   7  15
HETATM   15  C   UNL     1       8.126   6.336   2.827  1.00  0.00     0.277 C 
HETATM   16  N   UNL     1       8.116   7.633   3.309  1.00  0.00    -0.320 N 
HETATM   17  H   UNL     1       7.242   8.110   3.100  1.00  0.00     0.169 HD
HETATM   18  O   UNL     1       9.118   5.646   2.627  1.00  0.00    -0.266 OA
BRANCH  16  19
HETATM   19  C   UNL     1       9.248   8.400   3.654  1.00  0.00     0.057 A 
HETATM   20  C   UNL     1      10.398   7.922   4.314  1.00  0.00     0.063 A 
HETATM   21 CL   UNL     1      10.484   6.376   5.087  1.00  0.00    -0.082 Cl
HETATM   22  C   UNL     1      11.491   8.770   4.525  1.00  0.00     0.068 A 
HETATM   23  C   UNL     1      11.424  10.095   4.120  1.00  0.00     0.118 A 
HETATM   24  F   UNL     1      12.472  10.903   4.328  1.00  0.00    -0.206 F 
HETATM   25  C   UNL     1      10.276  10.604   3.531  1.00  0.00     0.044 A 
HETATM   26  C   UNL     1       9.185   9.761   3.310  1.00  0.00     0.034 A 
ENDBRANCH  16  19
ENDBRANCH   7  15
BRANCH   1  27
HETATM   27  O   UNL     1       2.315   0.136  -0.171  1.00  0.00    -0.356 OA
HETATM   28  C   UNL     1       0.982   0.206  -0.660  1.00  0.00     0.210 C 
ENDBRANCH   1  27
TORSDOF 3
