REMARK  6 active torsions:
REMARK  status: ('A' for Active; 'I' for Inactive)
REMARK    1  A    between atoms: C_4  and  C_5 
REMARK    2  A    between atoms: C_5  and  O_6 
REMARK    3  A    between atoms: O_6  and  C_7 
REMARK    4  A    between atoms: C_10  and  C_11 
REMARK    5  A    between atoms: C_17  and  C_18 
REMARK    6  A    between atoms: C_27  and  N_28 
ROOT
HETATM    1  C   UNL     1       8.850  -1.937  -1.697  1.00  0.00     0.072 A 
HETATM    2  N   UNL     1       9.732  -1.032  -2.254  1.00  0.00    -0.274 N 
HETATM    3  H   UNL     1       9.600  -0.033  -2.367  1.00  0.00     0.189 HD
HETATM    4  N   UNL     1      10.875  -1.581  -2.710  1.00  0.00    -0.148 NA
HETATM    5  C   UNL     1      10.698  -2.867  -2.442  1.00  0.00     0.199 A 
HETATM    6  C   UNL     1       9.494  -3.160  -1.796  1.00  0.00     0.040 A 
HETATM    7  C   UNL     1       9.171  -4.560  -1.406  1.00  0.00     0.106 A 
HETATM    8  C   UNL     1      10.224  -5.530  -1.930  1.00  0.00     0.081 A 
HETATM    9  C   UNL     1       9.949  -6.919  -1.760  1.00  0.00     0.100 C 
HETATM   10  N   UNL     1       9.720  -8.047  -1.615  1.00  0.00    -0.191 NA
HETATM   11  C   UNL     1      11.352  -5.122  -2.569  1.00  0.00     0.140 A 
HETATM   12  O   UNL     1      11.634  -3.767  -2.791  1.00  0.00    -0.277 OA
ENDROOT
BRANCH   7  13
HETATM   13  C   UNL     1       9.068  -4.562   0.113  1.00  0.00    -0.041 A 
HETATM   14  C   UNL     1       7.856  -4.901   0.728  1.00  0.00     0.027 A 
HETATM   15  C   UNL     1       7.786  -4.918   2.113  1.00  0.00     0.116 A 
HETATM   16  N   UNL     1       8.827  -4.631   2.921  1.00  0.00    -0.273 NA
HETATM   17  C   UNL     1       9.990  -4.311   2.318  1.00  0.00     0.116 A 
HETATM   18  C   UNL     1      10.160  -4.265   0.943  1.00  0.00     0.027 A 
ENDBRANCH   7  13
BRANCH  11  19
HETATM   19  N   UNL     1      12.331  -5.956  -3.064  1.00  0.00    -0.282 NA
HETATM   20  H   UNL     1      12.416  -6.863  -2.614  1.00  0.00     0.126 HD
HETATM   21  H   UNL     1      13.222  -5.477  -3.179  1.00  0.00     0.126 HD
ENDBRANCH  11  19
BRANCH   1  22
HETATM   22  C   UNL     1       7.551  -1.547  -1.162  1.00  0.00    -0.007 A 
HETATM   23  C   UNL     1       6.403  -2.283  -1.469  1.00  0.00     0.016 A 
HETATM   24  C   UNL     1       5.163  -1.918  -0.936  1.00  0.00     0.037 A 
HETATM   25  C   UNL     1       5.047  -0.812  -0.092  1.00  0.00     0.069 A 
HETATM   26  C   UNL     1       6.183  -0.059   0.199  1.00  0.00     0.037 A 
HETATM   27  C   UNL     1       7.428  -0.428  -0.328  1.00  0.00     0.016 A 
BRANCH  25  28
HETATM   28  O   UNL     1       3.784  -0.581   0.375  1.00  0.00    -0.347 OA
BRANCH  28  29
HETATM   29  C   UNL     1       3.626   0.459   1.342  1.00  0.00     0.214 C 
BRANCH  29  30
HETATM   30  C   UNL     1       2.221   0.433   1.901  1.00  0.00    -0.034 A 
HETATM   31  C   UNL     1       2.004   0.694   3.263  1.00  0.00     0.009 A 
HETATM   32  C   UNL     1       0.711   0.696   3.789  1.00  0.00     0.001 A 
HETATM   33  C   UNL     1      -0.381   0.447   2.960  1.00  0.00     0.000 A 
HETATM   34  C   UNL     1      -0.181   0.203   1.603  1.00  0.00     0.001 A 
HETATM   35  C   UNL     1       1.112   0.202   1.074  1.00  0.00     0.009 A 
ENDBRANCH  29  30
ENDBRANCH  28  29
ENDBRANCH  25  28
ENDBRANCH   1  22
TORSDOF 6
