REMARK  10 active torsions:
REMARK  status: ('A' for Active; 'I' for Inactive)
REMARK    1  A    between atoms: C_2  and  O_3 
REMARK    2  A    between atoms: O_3  and  C_4 
REMARK    3  A    between atoms: C_7  and  C_8 
REMARK    4  A    between atoms: C_8  and  C_9 
REMARK    5  A    between atoms: C_10  and  C_11 
REMARK    6  A    between atoms: C_13  and  N_14 
REMARK    7  A    between atoms: N_20  and  C_21 
REMARK    8  A    between atoms: C_21  and  C_22 
REMARK    9  A    between atoms: C_22  and  N_23 
REMARK   10  A    between atoms: C_34  and  O_35 
ROOT
HETATM    1  C   UNL     1       2.201  -1.243  -6.734  1.00  0.00     0.059 C 
HETATM    2  C   UNL     1       3.272  -2.174  -6.259  1.00  0.00     0.161 C 
HETATM    3  N   UNL     1       2.936  -3.387  -7.004  1.00  0.00    -0.332 N 
HETATM    4  C   UNL     1       1.712  -3.268  -7.628  1.00  0.00     0.278 C 
HETATM    5  O   UNL     1       1.137  -4.169  -8.214  1.00  0.00    -0.265 OA
HETATM    6  C   UNL     1       1.287  -1.863  -7.498  1.00  0.00     0.146 C 
ENDROOT
BRANCH   1   7
HETATM    7  C   UNL     1       2.027   0.187  -6.412  1.00  0.00     0.193 C 
HETATM    8  O   UNL     1       1.009   0.761  -6.796  1.00  0.00    -0.287 OA
BRANCH   7   9
HETATM    9  C   UNL     1       3.012   0.928  -5.595  1.00  0.00     0.015 A 
HETATM   10  C   UNL     1       4.391   0.861  -5.813  1.00  0.00     0.018 A 
HETATM   11  C   UNL     1       5.269   1.615  -5.018  1.00  0.00     0.038 A 
HETATM   12  C   UNL     1       4.771   2.475  -4.040  1.00  0.00     0.069 A 
HETATM   13  C   UNL     1       3.390   2.554  -3.844  1.00  0.00     0.038 A 
HETATM   14  C   UNL     1       2.512   1.791  -4.616  1.00  0.00     0.018 A 
BRANCH  12  15
HETATM   15  O   UNL     1       5.490   3.297  -3.226  1.00  0.00    -0.347 OA
BRANCH  15  16
HETATM   16  C   UNL     1       6.902   3.442  -3.402  1.00  0.00     0.120 C 
HETATM   17  C   UNL     1       7.614   2.557  -2.385  1.00  0.00     0.040 C 
HETATM   18  C   UNL     1       7.235   4.912  -3.160  1.00  0.00     0.040 C 
ENDBRANCH  15  16
ENDBRANCH  12  15
ENDBRANCH   7   9
ENDBRANCH   1   7
BRANCH   2  19
HETATM   19  C   UNL     1       3.305  -2.416  -4.761  1.00  0.00    -0.028 A 
HETATM   20  C   UNL     1       4.546  -2.507  -4.108  1.00  0.00     0.045 A 
HETATM   21  C   UNL     1       4.608  -2.744  -2.724  1.00  0.00     0.103 A 
HETATM   22  C   UNL     1       3.440  -2.883  -1.971  1.00  0.00     0.036 A 
HETATM   23  C   UNL     1       2.205  -2.796  -2.613  1.00  0.00     0.003 A 
HETATM   24  C   UNL     1       2.137  -2.576  -3.994  1.00  0.00     0.010 A 
BRANCH  21  25
HETATM   25  N   UNL     1       5.919  -2.884  -2.077  1.00  0.00    -0.116 N 
HETATM   26  O   UNL     1       6.905  -2.979  -2.823  1.00  0.00    -0.532 OA
HETATM   27  O   UNL     1       5.953  -2.938  -0.843  1.00  0.00    -0.532 OA
ENDBRANCH  21  25
ENDBRANCH   2  19
BRANCH   6  28
HETATM   28  O   UNL     1       0.160  -1.364  -8.080  1.00  0.00    -0.355 OA
HETATM   29  H   UNL     1       0.080  -0.418  -7.812  1.00  0.00     0.218 HD
ENDBRANCH   6  28
BRANCH   3  30
HETATM   30  C   UNL     1       3.686  -4.634  -6.921  1.00  0.00     0.155 C 
BRANCH  30  31
HETATM   31  C   UNL     1       3.850  -5.348  -8.294  1.00  0.00     0.254 C 
BRANCH  31  32
HETATM   32  N   UNL     1       3.386  -6.813  -8.279  1.00  0.00    -0.066 N 
HETATM   33  H   UNL     1       3.826  -7.218  -7.436  1.00  0.00     0.280 HD
HETATM   34  C   UNL     1       3.935  -7.625  -9.461  1.00  0.00     0.262 C 
HETATM   35  C   UNL     1       3.120  -7.406 -10.760  1.00  0.00     0.260 C 
HETATM   36  N   UNL     1       1.654  -7.664 -10.531  1.00  0.00    -0.072 N 
HETATM   37  H   UNL     1       1.463  -8.667 -10.379  1.00  0.00     0.277 HD
HETATM   38  H   UNL     1       1.135  -7.438 -11.398  1.00  0.00     0.277 HD
HETATM   39  C   UNL     1       1.071  -6.828  -9.414  1.00  0.00     0.260 C 
HETATM   40  C   UNL     1       1.871  -7.022  -8.100  1.00  0.00     0.262 C 
ENDBRANCH  31  32
ENDBRANCH  30  31
ENDBRANCH   3  30
TORSDOF 10
