REMARK  6 active torsions:
REMARK  status: ('A' for Active; 'I' for Inactive)
REMARK    1  A    between atoms: O_2  and  C_3 
REMARK    2  A    between atoms: C_4  and  O_5 
REMARK    3  A    between atoms: O_5  and  C_6 
REMARK    4  A    between atoms: C_9  and  N_10 
REMARK       I    between atoms: N_10  and  C_11 
REMARK    5  A    between atoms: C_11  and  C_12 
REMARK    6  A    between atoms: C_12  and  C_13 
ROOT
HETATM    1  C   UNL     1       3.013  -1.308  -0.275  1.00  0.00     0.103 A 
HETATM    2  C   UNL     1       4.069  -0.555  -0.815  1.00  0.00     0.109 A 
HETATM    3  C   UNL     1       4.216  -0.426  -2.201  1.00  0.00     0.041 A 
HETATM    4  C   UNL     1       3.341  -1.094  -3.057  1.00  0.00     0.025 A 
HETATM    5  C   UNL     1       2.307  -1.874  -2.529  1.00  0.00     0.047 A 
HETATM    6  C   UNL     1       1.406  -2.561  -3.408  1.00  0.00     0.099 C 
HETATM    7  N   UNL     1       0.674  -3.120  -4.115  1.00  0.00    -0.191 NA
HETATM    8  C   UNL     1       2.142  -1.979  -1.140  1.00  0.00     0.062 A 
ENDROOT
BRANCH   1   9
HETATM    9  O   UNL     1       2.933  -1.344   1.092  1.00  0.00    -0.353 OA
HETATM   10  C   UNL     1       1.714  -1.805   1.662  1.00  0.00     0.210 C 
ENDBRANCH   1   9
BRANCH   2  11
HETATM   11  O   UNL     1       4.872   0.143   0.061  1.00  0.00    -0.308 OA
BRANCH  11  12
HETATM   12  C   UNL     1       6.237   0.086  -0.091  1.00  0.00     0.076 A 
HETATM   13  C   UNL     1       6.937   1.223   0.308  1.00  0.00     0.039 A 
HETATM   14  C   UNL     1       8.334   1.254   0.251  1.00  0.00     0.032 A 
HETATM   15  C   UNL     1       9.049   0.143  -0.200  1.00  0.00     0.034 A 
HETATM   16  C   UNL     1       8.339  -0.999  -0.596  1.00  0.00     0.032 A 
HETATM   17  C   UNL     1       6.940  -1.036  -0.527  1.00  0.00     0.039 A 
BRANCH  15  18
HETATM   18  N   UNL     1      10.457   0.094  -0.282  1.00  0.00    -0.327 N 
HETATM   19  C   UNL     1      11.359   1.046   0.174  1.00  0.00     0.227 C 
HETATM   20  O   UNL     1      11.067   2.070   0.790  1.00  0.00    -0.273 OA
HETATM   21  H   UNL     1      10.846  -0.754  -0.676  1.00  0.00     0.169 HD
BRANCH  19  22
HETATM   22  C   UNL     1      12.813   0.653  -0.107  1.00  0.00     0.159 C 
BRANCH  22  23
HETATM   23  C   UNL     1      13.736   1.822  -0.284  1.00  0.00     0.017 A 
HETATM   24  N   UNL     1      13.506   3.052   0.293  1.00  0.00    -0.369 N 
HETATM   25  H   UNL     1      12.681   3.279   0.844  1.00  0.00     0.165 HD
HETATM   26  C   UNL     1      14.522   3.912  -0.022  1.00  0.00     0.088 A 
HETATM   27  C   UNL     1      15.425   3.233  -0.806  1.00  0.00     0.019 A 
HETATM   28  C   UNL     1      14.933   1.916  -0.971  1.00  0.00     0.027 A 
ENDBRANCH  22  23
ENDBRANCH  19  22
ENDBRANCH  15  18
ENDBRANCH  11  12
ENDBRANCH   2  11
TORSDOF 6
