REMARK  7 active torsions:
REMARK  status: ('A' for Active; 'I' for Inactive)
REMARK       I    between atoms: C_2  and  N_3 
REMARK    1  A    between atoms: N_3  and  C_4 
REMARK    2  A    between atoms: C_7  and  C_8 
REMARK    3  A    between atoms: C_8  and  N_9 
REMARK    4  A    between atoms: C_18  and  C_19 
REMARK    5  A    between atoms: C_19  and  N_20 
REMARK    6  A    between atoms: C_24  and  O_25 
REMARK    7  A    between atoms: O_25  and  C_26 
ROOT
HETATM    1  N   UNL     1       0.565   0.618  -6.858  1.00  0.00    -0.061 N 
HETATM    2  H   UNL     1       1.048   1.436  -7.245  1.00  0.00     0.280 HD
HETATM    3  C   UNL     1      -0.035  -0.067  -8.066  1.00  0.00     0.276 C 
HETATM    4  C   UNL     1      -0.682  -1.399  -7.813  1.00  0.00     0.002 A 
HETATM    5  C   UNL     1      -1.789  -1.498  -6.969  1.00  0.00     0.076 A 
HETATM    6  O   UNL     1      -2.316  -0.390  -6.367  1.00  0.00    -0.349 OA
HETATM    7  C   UNL     1      -1.448   0.138  -5.356  1.00  0.00     0.203 C 
HETATM    8  C   UNL     1      -0.495   1.195  -5.926  1.00  0.00     0.262 C 
HETATM    9  C   UNL     1      -0.230  -2.562  -8.466  1.00  0.00     0.020 A 
HETATM   10  C   UNL     1      -0.864  -3.805  -8.271  1.00  0.00    -0.032 A 
HETATM   11  C   UNL     1      -1.981  -3.864  -7.426  1.00  0.00     0.011 A 
HETATM   12  C   UNL     1      -2.447  -2.712  -6.788  1.00  0.00     0.038 A 
ENDROOT
BRANCH  10  13
HETATM   13  C   UNL     1      -0.360  -5.046  -8.972  1.00  0.00     0.273 C 
BRANCH  13  14
HETATM   14  N   UNL     1      -1.224  -5.500 -10.136  1.00  0.00    -0.067 N 
HETATM   15  H   UNL     1      -2.176  -5.621  -9.766  1.00  0.00     0.280 HD
HETATM   16  C   UNL     1      -1.287  -4.475 -11.246  1.00  0.00     0.237 C 
HETATM   17  C   UNL     1      -2.160  -4.981 -12.386  1.00  0.00     0.060 C 
HETATM   18  C   UNL     1      -1.646  -6.315 -12.928  1.00  0.00     0.132 C 
HETATM   19  C   UNL     1      -1.621  -7.331 -11.785  1.00  0.00     0.060 C 
HETATM   20  C   UNL     1      -0.749  -6.853 -10.634  1.00  0.00     0.237 C 
BRANCH  18  21
HETATM   21  O   UNL     1      -0.296  -6.183 -13.391  1.00  0.00    -0.344 OA
BRANCH  21  22
HETATM   22  C   UNL     1      -0.084  -5.524 -14.567  1.00  0.00     0.086 A 
HETATM   23  C   UNL     1       1.123  -4.843 -14.684  1.00  0.00     0.152 A 
HETATM   24  N   UNL     1       1.487  -4.108 -15.757  1.00  0.00    -0.270 NA
HETATM   25  C   UNL     1       0.628  -4.097 -16.798  1.00  0.00     0.116 A 
HETATM   26  C   UNL     1      -0.583  -4.772 -16.795  1.00  0.00     0.022 A 
HETATM   27  C   UNL     1      -0.945  -5.495 -15.658  1.00  0.00     0.039 A 
ENDBRANCH  21  22
ENDBRANCH  18  21
ENDBRANCH  13  14
ENDBRANCH  10  13
BRANCH   1  28
HETATM   28  C   UNL     1       1.644  -0.147  -6.119  1.00  0.00     0.273 C 
BRANCH  28  29
HETATM   29  C   UNL     1       2.677  -0.802  -6.997  1.00  0.00    -0.032 A 
HETATM   30  C   UNL     1       3.522  -0.060  -7.833  1.00  0.00     0.011 A 
HETATM   31  C   UNL     1       4.442  -0.709  -8.668  1.00  0.00     0.030 A 
HETATM   32  C   UNL     1       4.524  -2.104  -8.692  1.00  0.00     0.034 A 
HETATM   33  C   UNL     1       3.712  -2.840  -7.829  1.00  0.00     0.030 A 
HETATM   34  C   UNL     1       2.806  -2.198  -6.983  1.00  0.00     0.011 A 
BRANCH  32  35
HETATM   35  N   UNL     1       5.457  -2.704  -9.558  1.00  0.00    -0.328 N 
HETATM   36  C   UNL     1       5.484  -4.039  -9.927  1.00  0.00     0.218 C 
HETATM   37  C   UNL     1       6.724  -4.419 -10.697  1.00  0.00     0.117 C 
HETATM   38  O   UNL     1       4.587  -4.853  -9.714  1.00  0.00    -0.274 OA
HETATM   39  H   UNL     1       6.124  -2.091 -10.015  1.00  0.00     0.169 HD
ENDBRANCH  32  35
ENDBRANCH  28  29
ENDBRANCH   1  28
TORSDOF 7
