REMARK  4 active torsions:
REMARK  status: ('A' for Active; 'I' for Inactive)
REMARK    1  A    between atoms: C_5  and  C_6 
REMARK       I    between atoms: C_6  and  N_7 
REMARK    2  A    between atoms: N_7  and  N_8 
REMARK       I    between atoms: N_8  and  C_9 
REMARK    3  A    between atoms: C_9  and  C_10 
REMARK    4  A    between atoms: C_13  and  C_14 
ROOT
HETATM    1  N   UNL     1       4.901   2.380  -0.283  1.00  0.00    -0.263 N 
HETATM    2  C   UNL     1       4.928   1.086   0.195  1.00  0.00     0.270 C 
HETATM    3  O   UNL     1       3.977   0.576   0.785  1.00  0.00    -0.266 OA
HETATM    4  H   UNL     1       5.573   2.748  -0.954  1.00  0.00     0.190 HD
ENDROOT
BRANCH   2   5
HETATM    5  C   UNL     1       6.169   0.309  -0.063  1.00  0.00     0.033 A 
HETATM    6  C   UNL     1       7.410   0.923  -0.242  1.00  0.00     0.017 A 
HETATM    7  C   UNL     1       8.549   0.142  -0.473  1.00  0.00     0.010 A 
HETATM    8  C   UNL     1       8.491  -1.269  -0.515  1.00  0.00    -0.035 A 
HETATM    9  C   UNL     1       7.228  -1.861  -0.348  1.00  0.00     0.010 A 
HETATM   10  C   UNL     1       6.086  -1.085  -0.109  1.00  0.00     0.017 A 
BRANCH   8  11
HETATM   11  C   UNL     1       9.774  -2.049  -0.803  1.00  0.00     0.141 C 
HETATM   12  S   UNL     1      11.162  -1.614   0.306  1.00  0.00    -0.149 SA
HETATM   13  C   UNL     1      10.605  -2.418   1.830  1.00  0.00     0.076 C 
HETATM   14  C   UNL     1      10.528  -3.928   1.674  1.00  0.00     0.020 C 
HETATM   15  C   UNL     1       9.424  -4.382   0.732  1.00  0.00     0.076 C 
HETATM   16  S   UNL     1       9.656  -3.858  -0.993  1.00  0.00    -0.149 SA
ENDBRANCH   8  11
ENDBRANCH   2   5
BRANCH   1  17
HETATM   17  N   UNL     1       3.709   3.102  -0.151  1.00  0.00    -0.262 N 
HETATM   18  C   UNL     1       3.535   4.249  -0.895  1.00  0.00     0.286 C 
HETATM   19  O   UNL     1       4.417   4.674  -1.643  1.00  0.00    -0.264 OA
HETATM   20  H   UNL     1       2.973   2.670   0.401  1.00  0.00     0.190 HD
BRANCH  18  21
HETATM   21  C   UNL     1       2.259   4.910  -0.739  1.00  0.00     0.102 A 
HETATM   22  N   UNL     1       1.955   6.058  -1.441  1.00  0.00    -0.361 N 
HETATM   23  C   UNL     1       0.701   6.498  -1.114  1.00  0.00     0.088 A 
HETATM   24  H   UNL     1       2.589   6.499  -2.097  1.00  0.00     0.165 HD
HETATM   25  C   UNL     1       0.176   5.626  -0.190  1.00  0.00     0.019 A 
HETATM   26  C   UNL     1       1.153   4.627   0.048  1.00  0.00     0.036 A 
ENDBRANCH  18  21
ENDBRANCH   1  17
TORSDOF 4
