REMARK  7 active torsions:
REMARK  status: ('A' for Active; 'I' for Inactive)
REMARK    1  A    between atoms: C_3  and  C_4 
REMARK    2  A    between atoms: C_4  and  N_5 
REMARK       I    between atoms: N_5  and  C_6 
REMARK    3  A    between atoms: C_6  and  C_7 
REMARK    4  A    between atoms: C_7  and  N_8 
REMARK    5  A    between atoms: C_10  and  C_11 
REMARK    6  A    between atoms: C_11  and  N_12 
REMARK       I    between atoms: N_12  and  C_13 
REMARK       I    between atoms: C_13  and  N_14 
REMARK    7  A    between atoms: N_14  and  C_15 
ROOT
HETATM    1  N   UNL     1       1.334   4.253  -0.063  1.00  0.00    -0.057 N 
HETATM    2  H   UNL     1       0.693   4.588  -0.813  1.00  0.00     0.281 HD
HETATM    3  C   UNL     1       1.480   2.758  -0.330  1.00  0.00     0.206 C 
HETATM    4  C   UNL     1       0.096   2.093  -0.228  1.00  0.00     0.035 C 
HETATM    5  C   UNL     1      -0.596   2.399   1.095  1.00  0.00     0.004 C 
HETATM    6  C   UNL     1      -0.688   3.901   1.324  1.00  0.00     0.028 C 
HETATM    7  C   UNL     1       0.683   4.554   1.260  1.00  0.00     0.236 C 
ENDROOT
BRANCH   1   8
HETATM    8  C   UNL     1       2.587   5.108  -0.275  1.00  0.00     0.337 C 
BRANCH   8   9
HETATM    9  C   UNL     1       3.783   4.778   0.624  1.00  0.00     0.243 C 
HETATM   10  N   UNL     1       4.839   5.649   0.503  1.00  0.00    -0.355 N 
HETATM   11  H   UNL     1       4.745   6.516  -0.014  1.00  0.00     0.162 HD
HETATM   12  O   UNL     1       3.796   3.807   1.376  1.00  0.00    -0.272 OA
BRANCH  10  13
HETATM   13  C   UNL     1       5.988   5.558   1.384  1.00  0.00     0.169 C 
BRANCH  13  14
HETATM   14  C   UNL     1       7.025   6.550   0.949  1.00  0.00     0.006 A 
HETATM   15  C   UNL     1       8.365   6.333   0.654  1.00  0.00    -0.047 A 
HETATM   16  C   UNL     1       9.064   5.013   0.721  1.00  0.00     0.049 C 
HETATM   17  C   UNL     1       9.017   7.555   0.280  1.00  0.00     0.015 A 
HETATM   18  C   UNL     1       8.175   8.642   0.317  1.00  0.00     0.051 A 
HETATM   19  S   UNL     1       6.603   8.213   0.812  1.00  0.00    -0.104 SA
ENDBRANCH  13  14
ENDBRANCH  10  13
ENDBRANCH   8   9
ENDBRANCH   1   8
BRANCH   3  20
HETATM   20  C   UNL     1       2.153   2.432  -1.695  1.00  0.00     0.157 C 
BRANCH  20  21
HETATM   21  N   UNL     1       1.461   2.756  -2.942  1.00  0.00    -0.341 N 
HETATM   22  C   UNL     1       0.718   3.877  -3.216  1.00  0.00     0.320 C 
HETATM   23  N   UNL     1       0.418   3.983  -4.549  1.00  0.00    -0.309 N 
HETATM   24  O   UNL     1       0.400   4.668  -2.334  1.00  0.00    -0.247 OA
HETATM   25  H   UNL     1       1.009   3.475  -5.192  1.00  0.00     0.170 HD
HETATM   26  H   UNL     1       1.614   2.121  -3.716  1.00  0.00     0.164 HD
BRANCH  23  27
HETATM   27  C   UNL     1      -0.451   4.925  -5.141  1.00  0.00     0.036 A 
HETATM   28  C   UNL     1      -0.354   5.115  -6.525  1.00  0.00     0.029 A 
HETATM   29  C   UNL     1      -1.189   6.025  -7.177  1.00  0.00     0.002 A 
HETATM   30  C   UNL     1      -2.141   6.739  -6.454  1.00  0.00     0.000 A 
HETATM   31  C   UNL     1      -2.257   6.542  -5.080  1.00  0.00     0.002 A 
HETATM   32  C   UNL     1      -1.414   5.639  -4.425  1.00  0.00     0.029 A 
ENDBRANCH  23  27
ENDBRANCH  20  21
ENDBRANCH   3  20
TORSDOF 7
