REMARK  5 active torsions:
REMARK  status: ('A' for Active; 'I' for Inactive)
REMARK    1  A    between atoms: C_2  and  C_3 
REMARK    2  A    between atoms: C_7  and  C_8 
REMARK       I    between atoms: C_8  and  N_9 
REMARK    3  A    between atoms: N_9  and  C_10 
REMARK    4  A    between atoms: C_13  and  C_14 
REMARK       I    between atoms: C_14  and  N_15 
REMARK    5  A    between atoms: N_15  and  C_16 
ROOT
HETATM    1  C   UNL     1       5.329   0.986   4.225  1.00  0.00     0.035 A 
HETATM    2  C   UNL     1       4.312   0.300   4.891  1.00  0.00     0.030 A 
HETATM    3  C   UNL     1       4.271  -1.101   4.887  1.00  0.00     0.019 A 
HETATM    4  C   UNL     1       5.245  -1.836   4.202  1.00  0.00     0.032 A 
HETATM    5  C   UNL     1       6.282  -1.151   3.559  1.00  0.00     0.019 A 
HETATM    6  C   UNL     1       6.322   0.247   3.570  1.00  0.00     0.030 A 
ENDROOT
BRANCH   1   7
HETATM    7  N   UNL     1       5.426   2.391   4.157  1.00  0.00    -0.322 N 
HETATM    8  C   UNL     1       4.565   3.328   4.696  1.00  0.00     0.274 C 
HETATM    9  O   UNL     1       3.578   3.076   5.378  1.00  0.00    -0.266 OA
HETATM   10  H   UNL     1       6.211   2.750   3.634  1.00  0.00     0.169 HD
BRANCH   8  11
HETATM   11  C   UNL     1       4.907   4.698   4.390  1.00  0.00     0.120 A 
HETATM   12  N   UNL     1       4.152   5.737   4.868  1.00  0.00    -0.273 N 
HETATM   13  N   UNL     1       4.580   6.950   4.486  1.00  0.00    -0.179 NA
HETATM   14  H   UNL     1       3.327   5.667   5.458  1.00  0.00     0.189 HD
HETATM   15  C   UNL     1       5.652   6.692   3.731  1.00  0.00     0.056 A 
HETATM   16  C   UNL     1       5.903   5.301   3.645  1.00  0.00     0.065 A 
BRANCH  15  17
HETATM   17  C   UNL     1       6.416   7.804   3.097  1.00  0.00     0.056 C 
HETATM   18  C   UNL     1       5.911   8.126   1.698  1.00  0.00     0.011 C 
ENDBRANCH  15  17
ENDBRANCH   8  11
ENDBRANCH   1   7
BRANCH   4  19
HETATM   19  C   UNL     1       5.234  -3.326   4.135  1.00  0.00     0.252 C 
HETATM   20  N   UNL     1       4.022  -3.947   4.366  1.00  0.00    -0.352 N 
HETATM   21  H   UNL     1       3.187  -3.381   4.366  1.00  0.00     0.163 HD
HETATM   22  O   UNL     1       6.260  -3.933   3.848  1.00  0.00    -0.268 OA
BRANCH  20  23
HETATM   23  C   UNL     1       3.851  -5.384   4.172  1.00  0.00     0.084 C 
HETATM   24  C   UNL     1       2.792  -5.938   5.133  1.00  0.00     0.025 C 
HETATM   25  C   UNL     1       1.370  -5.517   4.762  1.00  0.00     0.002 C 
HETATM   26  C   UNL     1       1.044  -5.848   3.309  1.00  0.00     0.000 C 
HETATM   27  C   UNL     1       2.075  -5.264   2.349  1.00  0.00     0.002 C 
HETATM   28  C   UNL     1       3.495  -5.699   2.712  1.00  0.00     0.025 C 
ENDBRANCH  20  23
ENDBRANCH   4  19
TORSDOF 5
