REMARK  8 active torsions:
REMARK  status: ('A' for Active; 'I' for Inactive)
REMARK    1  A    between atoms: C_2  and  O_3 
REMARK    2  A    between atoms: O_3  and  C_4 
REMARK    3  A    between atoms: C_6  and  O_7 
REMARK    4  A    between atoms: O_7  and  C_8 
REMARK    5  A    between atoms: C_11  and  C_12 
REMARK       I    between atoms: C_12  and  N_13 
REMARK    6  A    between atoms: N_13  and  C_14 
REMARK    7  A    between atoms: C_14  and  N_15 
REMARK    8  A    between atoms: N_15  and  C_16 
ROOT
HETATM    1  C   UNL     1       6.489  -3.767  -2.202  1.00  0.00     0.237 C 
HETATM    2  N   UNL     1       6.365  -4.782  -1.270  1.00  0.00    -0.201 NA
HETATM    3  O   UNL     1       7.193  -3.881  -3.199  1.00  0.00    -0.274 OA
HETATM    4  H   UNL     1       7.199  -5.357  -1.342  1.00  0.00     0.139 HD
ENDROOT
BRANCH   2   5
HETATM    5  C   UNL     1       5.317  -5.668  -1.154  1.00  0.00     0.157 C 
HETATM    6  S   UNL     1       3.985  -5.769  -2.159  1.00  0.00    -0.047 SA
BRANCH   5   7
HETATM    7  N   UNL     1       5.438  -6.613  -0.165  1.00  0.00    -0.337 N 
HETATM    8  H   UNL     1       4.776  -7.377  -0.267  1.00  0.00     0.168 HD
BRANCH   7   9
HETATM    9  C   UNL     1       6.240  -6.646   1.000  1.00  0.00     0.036 A 
HETATM   10  C   UNL     1       6.273  -7.863   1.703  1.00  0.00     0.061 A 
HETATM   11  C   UNL     1       7.008  -7.902   2.867  1.00  0.00     0.065 A 
HETATM   12  C   UNL     1       7.691  -6.792   3.352  1.00  0.00     0.063 A 
HETATM   13  N   UNL     1       7.209  -8.950   3.759  1.00  0.00    -0.306 N 
HETATM   14  N   UNL     1       8.309  -7.152   4.543  1.00  0.00    -0.307 N 
HETATM   15  C   UNL     1       7.675  -5.586   2.700  1.00  0.00     0.034 A 
HETATM   16  C   UNL     1       8.015  -8.496   4.814  1.00  0.00     0.325 A 
HETATM   17  H   UNL     1       8.867  -6.570   5.146  1.00  0.00     0.170 HD
HETATM   18  O   UNL     1       8.382  -9.142   5.778  1.00  0.00    -0.247 OA
HETATM   19  C   UNL     1       6.931  -5.520   1.511  1.00  0.00     0.032 A 
HETATM   20  H   UNL     1       6.842  -9.886   3.702  1.00  0.00     0.170 HD
ENDBRANCH   7   9
ENDBRANCH   5   7
ENDBRANCH   2   5
BRANCH   1  21
HETATM   21  C   UNL     1       6.044  -2.429  -1.743  1.00  0.00     0.032 A 
HETATM   22  C   UNL     1       7.044  -1.459  -1.601  1.00  0.00     0.053 A 
HETATM   23  C   UNL     1       6.719  -0.200  -1.111  1.00  0.00     0.072 A 
HETATM   24  C   UNL     1       5.400   0.086  -0.763  1.00  0.00     0.073 A 
HETATM   25  C   UNL     1       4.390  -0.865  -0.939  1.00  0.00     0.072 A 
HETATM   26  C   UNL     1       4.716  -2.136  -1.417  1.00  0.00     0.053 A 
BRANCH  23  27
HETATM   27  O   UNL     1       7.646   0.771  -0.861  1.00  0.00    -0.351 OA
BRANCH  27  28
HETATM   28  C   UNL     1       8.544   1.035  -1.944  1.00  0.00     0.171 C 
HETATM   29  C   UNL     1       9.948   0.590  -1.574  1.00  0.00     0.034 C 
ENDBRANCH  27  28
ENDBRANCH  23  27
BRANCH  25  30
HETATM   30  O   UNL     1       3.140  -0.425  -0.603  1.00  0.00    -0.351 OA
BRANCH  30  31
HETATM   31  C   UNL     1       2.040  -1.295  -0.866  1.00  0.00     0.171 C 
HETATM   32  C   UNL     1       0.762  -0.516  -0.607  1.00  0.00     0.034 C 
ENDBRANCH  30  31
ENDBRANCH  25  30
ENDBRANCH   1  21
TORSDOF 8
