REMARK  3 active torsions:
REMARK  status: ('A' for Active; 'I' for Inactive)
REMARK    1  A    between atoms: C_3  and  C_4 
REMARK       I    between atoms: C_4  and  N_5 
REMARK    2  A    between atoms: N_5  and  C_6 
REMARK    3  A    between atoms: C_13  and  C_14 
REMARK       I    between atoms: C_14  and  N_15 
ROOT
HETATM    1  C   UNL     1       0.463   3.175   2.712  1.00  0.00     0.035 A 
HETATM    2  C   UNL     1      -0.595   2.737   3.524  1.00  0.00     0.046 A 
HETATM    3  C   UNL     1      -1.524   3.671   4.025  1.00  0.00     0.030 A 
HETATM    4  C   UNL     1      -1.348   5.015   3.727  1.00  0.00     0.063 A 
HETATM    5  N   UNL     1      -2.378   5.662   4.350  1.00  0.00    -0.277 N 
HETATM    6  H   UNL     1      -2.563   6.659   4.355  1.00  0.00     0.189 HD
HETATM    7  N   UNL     1      -3.228   4.852   5.007  1.00  0.00    -0.168 NA
HETATM    8  C   UNL     1      -2.712   3.618   4.813  1.00  0.00     0.156 A 
HETATM    9  C   UNL     1      -0.296   5.487   2.940  1.00  0.00     0.034 A 
HETATM   10  C   UNL     1       0.601   4.536   2.430  1.00  0.00     0.032 A 
ENDROOT
BRANCH   1  11
HETATM   11  N   UNL     1       1.335   2.185   2.223  1.00  0.00    -0.325 N 
HETATM   12  C   UNL     1       2.333   2.320   1.272  1.00  0.00     0.252 C 
HETATM   13  O   UNL     1       2.623   3.344   0.658  1.00  0.00    -0.270 OA
HETATM   14  H   UNL     1       1.208   1.244   2.585  1.00  0.00     0.169 HD
BRANCH  12  15
HETATM   15  C   UNL     1       3.026   0.992   0.950  1.00  0.00     0.229 C 
HETATM   16  C   UNL     1       2.409   0.244  -0.253  1.00  0.00     0.056 C 
HETATM   17  C   UNL     1       0.903   0.407  -0.447  1.00  0.00     0.018 C 
HETATM   18  C   UNL     1       2.735  -1.144   0.179  1.00  0.00    -0.018 A 
HETATM   19  C   UNL     1       3.055  -1.143   1.529  1.00  0.00     0.076 A 
HETATM   20  C   UNL     1       2.707  -2.327  -0.539  1.00  0.00     0.010 A 
HETATM   21  O   UNL     1       3.018   0.103   2.098  1.00  0.00    -0.335 OA
HETATM   22  C   UNL     1       3.349  -2.302   2.215  1.00  0.00     0.037 A 
HETATM   23  C   UNL     1       3.333  -3.502   1.502  1.00  0.00     0.003 A 
HETATM   24  C   UNL     1       3.014  -3.514   0.133  1.00  0.00     0.001 A 
ENDBRANCH  12  15
ENDBRANCH   1  11
BRANCH   8  25
HETATM   25  C   UNL     1      -3.362   2.419   5.359  1.00  0.00     0.270 C 
HETATM   26  N   UNL     1      -4.517   2.672   6.046  1.00  0.00    -0.365 N 
HETATM   27  H   UNL     1      -4.840   3.630   6.114  1.00  0.00     0.159 HD
HETATM   28  H   UNL     1      -5.050   1.908   6.431  1.00  0.00     0.159 HD
HETATM   29  O   UNL     1      -2.938   1.276   5.220  1.00  0.00    -0.266 OA
ENDBRANCH   8  25
TORSDOF 3
