REMARK  6 active torsions:
REMARK  status: ('A' for Active; 'I' for Inactive)
REMARK    1  A    between atoms: C_2  and  C_3 
REMARK    2  A    between atoms: C_3  and  O_4 
REMARK    3  A    between atoms: O_4  and  C_5 
REMARK    4  A    between atoms: C_6  and  O_7 
REMARK    5  A    between atoms: C_10  and  C_11 
REMARK    6  A    between atoms: C_25  and  O_26 
ROOT
HETATM    1  C   UNL     1       7.205  -6.444  -0.498  1.00  0.00     0.269 C 
HETATM    2  N   UNL     1       7.154  -6.843  -1.952  1.00  0.00    -0.061 N 
HETATM    3  H   UNL     1       8.094  -7.151  -2.223  1.00  0.00     0.278 HD
HETATM    4  H   UNL     1       6.951  -6.008  -2.511  1.00  0.00     0.278 HD
HETATM    5  C   UNL     1       6.169  -7.947  -2.254  1.00  0.00     0.238 C 
HETATM    6  C   UNL     1       6.560  -9.247  -1.525  1.00  0.00     0.069 C 
HETATM    7  C   UNL     1       6.916  -8.959  -0.106  1.00  0.00    -0.019 A 
HETATM    8  C   UNL     1       7.217  -7.682   0.332  1.00  0.00     0.052 A 
HETATM    9  N   UNL     1       7.489  -7.747   1.675  1.00  0.00    -0.356 N 
HETATM   10  H   UNL     1       7.746  -6.974   2.278  1.00  0.00     0.166 HD
HETATM   11  C   UNL     1       7.392  -9.053   2.103  1.00  0.00     0.043 A 
HETATM   12  C   UNL     1       7.033  -9.835   1.004  1.00  0.00     0.002 A 
HETATM   13  C   UNL     1       7.594  -9.597   3.376  1.00  0.00     0.033 A 
HETATM   14  C   UNL     1       7.424 -10.979   3.532  1.00  0.00     0.039 A 
HETATM   15  C   UNL     1       7.065 -11.788   2.455  1.00  0.00     0.069 A 
HETATM   16  C   UNL     1       6.868 -11.221   1.188  1.00  0.00     0.051 A 
ENDROOT
BRANCH   1  17
HETATM   17  C   UNL     1       8.380  -5.521  -0.247  1.00  0.00    -0.019 A 
HETATM   18  C   UNL     1       9.706  -5.990  -0.316  1.00  0.00     0.049 A 
HETATM   19  C   UNL     1      10.786  -5.126  -0.103  1.00  0.00     0.102 A 
HETATM   20  C   UNL     1      10.551  -3.767   0.174  1.00  0.00     0.102 A 
HETATM   21  C   UNL     1       9.237  -3.297   0.241  1.00  0.00     0.040 A 
HETATM   22  C   UNL     1       8.161  -4.165   0.033  1.00  0.00     0.012 A 
BRANCH  19  23
HETATM   23  O   UNL     1      12.099  -5.514  -0.183  1.00  0.00    -0.353 OA
HETATM   24  C   UNL     1      12.392  -6.890   0.015  1.00  0.00     0.210 C 
ENDBRANCH  19  23
BRANCH  20  25
HETATM   25  O   UNL     1      11.664  -2.989   0.356  1.00  0.00    -0.348 OA
BRANCH  25  26
HETATM   26  C   UNL     1      11.485  -1.658   0.838  1.00  0.00     0.175 C 
BRANCH  26  27
HETATM   27  C   UNL     1      12.867  -1.063   1.087  1.00  0.00     0.022 C 
HETATM   28  C   UNL     1      12.784   0.359   1.614  1.00  0.00     0.007 C 
ENDBRANCH  26  27
ENDBRANCH  25  26
ENDBRANCH  20  25
ENDBRANCH   1  17
BRANCH  15  29
HETATM   29  O   UNL     1       6.874 -13.143   2.497  1.00  0.00    -0.356 OA
HETATM   30  C   UNL     1       7.056 -13.783   3.755  1.00  0.00     0.210 C 
ENDBRANCH  15  29
TORSDOF 6
