REMARK  4 active torsions:
REMARK  status: ('A' for Active; 'I' for Inactive)
REMARK    1  A    between atoms: C_4  and  N_5 
REMARK    2  A    between atoms: N_5  and  C_6 
REMARK    3  A    between atoms: C_8  and  C_9 
REMARK    4  A    between atoms: C_23  and  O_24 
ROOT
HETATM    1  C   UNL     1       4.128   3.670  -0.107  1.00  0.00     0.722 A 
HETATM    2  N   UNL     1       4.848   4.753  -0.154  1.00  0.00    -0.063 NA
HETATM    3  C   UNL     1       4.204   5.971  -0.191  1.00  0.00     0.091 A 
HETATM    4  C   UNL     1       2.871   6.108  -0.149  1.00  0.00     0.108 A 
HETATM    5  C   UNL     1       2.056   4.891  -0.099  1.00  0.00     0.261 A 
HETATM    6  O   UNL     1       0.832   4.944  -0.070  1.00  0.00    -0.268 OA
HETATM    7  N   UNL     1       2.761   3.731  -0.088  1.00  0.00    -0.154 N 
HETATM    8  H   UNL     1       2.243   2.860  -0.054  1.00  0.00     0.187 HD
ENDROOT
BRANCH   1   9
HETATM    9  N   UNL     1       4.745   2.460  -0.071  1.00  0.00    -0.017 N 
HETATM   10  H   UNL     1       5.752   2.442  -0.080  1.00  0.00     0.203 HD
BRANCH   9  11
HETATM   11  C   UNL     1       4.188   1.193  -0.039  1.00  0.00     0.742 A 
HETATM   12  N   UNL     1       2.856   1.040  -0.057  1.00  0.00    -0.066 NA
HETATM   13  C   UNL     1       2.366  -0.218  -0.037  1.00  0.00     0.062 A 
HETATM   14  C   UNL     1       0.867  -0.319  -0.065  1.00  0.00     0.072 C 
HETATM   15  C   UNL     1       3.187  -1.350   0.007  1.00  0.00     0.021 A 
HETATM   16  C   UNL     1       4.565  -1.092   0.036  1.00  0.00     0.121 A 
HETATM   17  C   UNL     1       2.710  -2.682   0.025  1.00  0.00     0.016 A 
HETATM   18  N   UNL     1       5.043   0.169   0.011  1.00  0.00    -0.059 NA
HETATM   19  C   UNL     1       5.442  -2.191   0.101  1.00  0.00     0.098 A 
HETATM   20  C   UNL     1       4.962  -3.509   0.104  1.00  0.00     0.039 A 
HETATM   21  C   UNL     1       3.595  -3.753   0.068  1.00  0.00     0.004 A 
BRANCH  19  22
HETATM   22  O   UNL     1       6.787  -1.887   0.125  1.00  0.00    -0.354 OA
HETATM   23  C   UNL     1       7.658  -2.872   0.666  1.00  0.00     0.210 C 
ENDBRANCH  19  22
ENDBRANCH   9  11
ENDBRANCH   1   9
BRANCH   3  24
HETATM   24  C   UNL     1       5.055   7.187  -0.239  1.00  0.00    -0.006 A 
HETATM   25  C   UNL     1       6.251   7.229   0.500  1.00  0.00     0.017 A 
HETATM   26  C   UNL     1       7.074   8.358   0.470  1.00  0.00     0.043 A 
HETATM   27  C   UNL     1       6.709   9.450  -0.306  1.00  0.00     0.116 A 
HETATM   28  F   UNL     1       7.496  10.534  -0.335  1.00  0.00    -0.206 F 
HETATM   29  C   UNL     1       5.542   9.432  -1.059  1.00  0.00     0.043 A 
HETATM   30  C   UNL     1       4.720   8.301  -1.031  1.00  0.00     0.017 A 
ENDBRANCH   3  24
TORSDOF 4
