REMARK  3 active torsions:
REMARK  status: ('A' for Active; 'I' for Inactive)
REMARK    1  A    between atoms: C_9  and  C_10 
REMARK       I    between atoms: C_10  and  N_11 
REMARK    2  A    between atoms: N_11  and  C_12 
REMARK    3  A    between atoms: C_19  and  C_20 
REMARK       I    between atoms: C_20  and  N_21 
ROOT
HETATM    1  C   UNL     1       1.240  -2.799  -3.238  1.00  0.00     0.035 A 
HETATM    2  C   UNL     1       0.532  -3.957  -2.895  1.00  0.00     0.046 A 
HETATM    3  C   UNL     1      -0.858  -4.014  -3.137  1.00  0.00     0.030 A 
HETATM    4  C   UNL     1      -1.482  -2.926  -3.735  1.00  0.00     0.063 A 
HETATM    5  N   UNL     1      -2.801  -3.270  -3.826  1.00  0.00    -0.277 N 
HETATM    6  H   UNL     1      -3.555  -2.710  -4.208  1.00  0.00     0.189 HD
HETATM    7  N   UNL     1      -3.097  -4.482  -3.330  1.00  0.00    -0.168 NA
HETATM    8  C   UNL     1      -1.905  -4.955  -2.899  1.00  0.00     0.156 A 
HETATM    9  C   UNL     1      -0.801  -1.769  -4.114  1.00  0.00     0.034 A 
HETATM   10  C   UNL     1       0.572  -1.726  -3.845  1.00  0.00     0.032 A 
ENDROOT
BRANCH   1  11
HETATM   11  N   UNL     1       2.595  -2.597  -2.924  1.00  0.00    -0.325 N 
HETATM   12  C   UNL     1       3.457  -3.464  -2.276  1.00  0.00     0.252 C 
HETATM   13  O   UNL     1       3.318  -4.680  -2.174  1.00  0.00    -0.270 OA
HETATM   14  H   UNL     1       2.963  -1.664  -3.076  1.00  0.00     0.169 HD
BRANCH  12  15
HETATM   15  C   UNL     1       4.620  -2.738  -1.562  1.00  0.00     0.225 C 
HETATM   16  C   UNL     1       4.349  -2.741  -0.049  1.00  0.00     0.083 C 
HETATM   17  C   UNL     1       3.742  -1.394   0.070  1.00  0.00    -0.021 A 
HETATM   18  C   UNL     1       4.083  -0.645  -1.041  1.00  0.00     0.076 A 
HETATM   19  C   UNL     1       2.942  -0.864   1.063  1.00  0.00     0.017 A 
HETATM   20  C   UNL     1       3.668   0.659  -1.203  1.00  0.00     0.044 A 
HETATM   21  O   UNL     1       4.776  -1.359  -1.990  1.00  0.00    -0.336 OA
HETATM   22  C   UNL     1       2.839   1.222  -0.219  1.00  0.00    -0.053 A 
HETATM   23  C   UNL     1       2.463   0.451   0.915  1.00  0.00    -0.055 A 
HETATM   24  C   UNL     1       2.329   2.625  -0.412  1.00  0.00     0.049 C 
HETATM   25  C   UNL     1       1.523   1.003   1.954  1.00  0.00     0.049 C 
ENDBRANCH  12  15
ENDBRANCH   1  11
BRANCH   8  26
HETATM   26  C   UNL     1      -1.797  -6.274  -2.260  1.00  0.00     0.270 C 
HETATM   27  N   UNL     1      -2.985  -6.945  -2.162  1.00  0.00    -0.365 N 
HETATM   28  H   UNL     1      -3.824  -6.498  -2.513  1.00  0.00     0.159 HD
HETATM   29  H   UNL     1      -3.010  -7.851  -1.723  1.00  0.00     0.159 HD
HETATM   30  O   UNL     1      -0.756  -6.760  -1.830  1.00  0.00    -0.266 OA
ENDBRANCH   8  26
TORSDOF 3
