REMARK  6 active torsions:
REMARK  status: ('A' for Active; 'I' for Inactive)
REMARK    1  A    between atoms: O_2  and  C_3 
REMARK    2  A    between atoms: C_6  and  C_7 
REMARK    3  A    between atoms: C_7  and  C_8 
REMARK       I    between atoms: C_8  and  N_9 
REMARK    4  A    between atoms: N_9  and  C_10 
REMARK    5  A    between atoms: C_10  and  C_11 
REMARK       I    between atoms: C_11  and  N_12 
REMARK    6  A    between atoms: N_12  and  N_13 
ROOT
HETATM    1  C   UNL     1       2.786  -4.900  -0.986  1.00  0.00     0.255 C 
HETATM    2  N   UNL     1       2.623  -6.270  -1.066  1.00  0.00    -0.245 N 
HETATM    3  O   UNL     1       2.755  -4.248   0.059  1.00  0.00    -0.270 OA
HETATM    4  H   UNL     1       2.556  -6.709  -1.985  1.00  0.00     0.192 HD
ENDROOT
BRANCH   1   5
HETATM    5  C   UNL     1       2.951  -4.197  -2.340  1.00  0.00     0.227 C 
BRANCH   5   6
HETATM    6  N   UNL     1       3.247  -5.030  -3.502  1.00  0.00    -0.352 N 
HETATM    7  C   UNL     1       2.229  -5.641  -4.203  1.00  0.00     0.222 C 
HETATM    8  O   UNL     1       1.085  -5.714  -3.764  1.00  0.00    -0.273 OA
HETATM    9  H   UNL     1       4.102  -4.827  -4.006  1.00  0.00     0.162 HD
BRANCH   7  10
HETATM   10  C   UNL     1       2.633  -6.211  -5.552  1.00  0.00     0.141 C 
BRANCH  10  11
HETATM   11  C   UNL     1       2.541  -5.220  -6.691  1.00  0.00    -0.049 A 
HETATM   12  C   UNL     1       1.555  -4.225  -6.733  1.00  0.00     0.010 A 
HETATM   13  C   UNL     1       1.464  -3.343  -7.816  1.00  0.00     0.037 A 
HETATM   14  C   UNL     1       2.346  -3.455  -8.889  1.00  0.00     0.068 A 
HETATM   15  C   UNL     1       3.313  -4.461  -8.868  1.00  0.00     0.037 A 
HETATM   16  C   UNL     1       3.411  -5.338  -7.784  1.00  0.00     0.010 A 
BRANCH  14  17
HETATM   17  O   UNL     1       2.360  -2.666 -10.006  1.00  0.00    -0.356 OA
HETATM   18  C   UNL     1       1.431  -1.589 -10.041  1.00  0.00     0.210 C 
ENDBRANCH  14  17
ENDBRANCH  10  11
ENDBRANCH   7  10
ENDBRANCH   5   6
ENDBRANCH   1   5
BRANCH   2  19
HETATM   19  N   UNL     1       2.354  -7.004   0.052  1.00  0.00    -0.166 NA
HETATM   20  C   UNL     1       2.163  -8.271  -0.121  1.00  0.00     0.157 A 
HETATM   21  C   UNL     1       2.246  -9.089  -1.416  1.00  0.00     0.277 A 
HETATM   22  C   UNL     1       1.820  -9.221   0.931  1.00  0.00     0.028 A 
HETATM   23  O   UNL     1       2.535  -8.646  -2.507  1.00  0.00    -0.266 OA
HETATM   24  N   UNL     1       1.950 -10.386  -1.050  1.00  0.00    -0.321 N 
HETATM   25  C   UNL     1       1.702 -10.469   0.318  1.00  0.00     0.048 A 
HETATM   26  H   UNL     1       1.928 -11.154  -1.705  1.00  0.00     0.169 HD
HETATM   27  C   UNL     1       1.377 -11.594   1.044  1.00  0.00     0.032 A 
HETATM   28  C   UNL     1       1.168 -11.432   2.420  1.00  0.00     0.021 A 
HETATM   29  C   UNL     1       1.288 -10.163   3.027  1.00  0.00     0.012 A 
HETATM   30 BR   UNL     1       0.992  -9.998   4.888  1.00  0.00    -0.051 Br
HETATM   31  C   UNL     1       1.618  -9.031   2.282  1.00  0.00     0.035 A 
ENDBRANCH   2  19
TORSDOF 6
