REMARK  8 active torsions:
REMARK  status: ('A' for Active; 'I' for Inactive)
REMARK    1  A    between atoms: C_2  and  C_3 
REMARK    2  A    between atoms: C_3  and  C_4 
REMARK    3  A    between atoms: C_4  and  O_5 
REMARK    4  A    between atoms: O_5  and  C_6 
REMARK    5  A    between atoms: C_9  and  C_10 
REMARK    6  A    between atoms: C_10  and  N_11 
REMARK    7  A    between atoms: N_11  and  C_12 
REMARK    8  A    between atoms: C_19  and  C_20 
REMARK       I    between atoms: C_20  and  N_21 
ROOT
HETATM    1  C   UNL     1       0.886  -0.925 -10.749  1.00  0.00     0.009 A 
HETATM    2  C   UNL     1      -0.462  -1.136 -11.095  1.00  0.00     0.039 A 
HETATM    3  C   UNL     1      -0.816  -1.487 -12.415  1.00  0.00     0.030 A 
HETATM    4  C   UNL     1       0.193  -1.657 -13.352  1.00  0.00     0.063 A 
HETATM    5  N   UNL     1      -0.442  -1.996 -14.514  1.00  0.00    -0.277 N 
HETATM    6  H   UNL     1      -0.014  -2.201 -15.409  1.00  0.00     0.189 HD
HETATM    7  N   UNL     1      -1.781  -2.057 -14.418  1.00  0.00    -0.168 NA
HETATM    8  C   UNL     1      -2.026  -1.747 -13.124  1.00  0.00     0.156 A 
HETATM    9  C   UNL     1       1.545  -1.503 -13.046  1.00  0.00     0.034 A 
HETATM   10  C   UNL     1       1.864  -1.148 -11.727  1.00  0.00     0.026 A 
ENDROOT
BRANCH   1  11
HETATM   11  N   UNL     1       1.192  -0.643  -9.409  1.00  0.00    -0.289 NA
HETATM   12  H   UNL     1       0.404  -0.223  -8.920  1.00  0.00     0.128 HD
BRANCH  11  13
HETATM   13  C   UNL     1       2.444   0.037  -9.106  1.00  0.00     0.131 C 
BRANCH  13  14
HETATM   14  C   UNL     1       2.532   0.333  -7.627  1.00  0.00    -0.045 A 
HETATM   15  C   UNL     1       2.647  -0.715  -6.701  1.00  0.00     0.011 A 
HETATM   16  C   UNL     1       2.806  -0.449  -5.337  1.00  0.00     0.037 A 
HETATM   17  C   UNL     1       2.859   0.870  -4.887  1.00  0.00     0.068 A 
HETATM   18  C   UNL     1       2.688   1.915  -5.794  1.00  0.00     0.037 A 
HETATM   19  C   UNL     1       2.531   1.652  -7.157  1.00  0.00     0.011 A 
BRANCH  17  20
HETATM   20  O   UNL     1       3.053   1.245  -3.585  1.00  0.00    -0.351 OA
BRANCH  20  21
HETATM   21  C   UNL     1       3.863   0.355  -2.809  1.00  0.00     0.176 C 
BRANCH  21  22
HETATM   22  C   UNL     1       4.477   1.163  -1.666  1.00  0.00     0.030 C 
BRANCH  22  23
HETATM   23  C   UNL     1       5.500   0.372  -0.835  1.00  0.00    -0.021 C 
HETATM   24  C   UNL     1       4.853  -0.780  -0.065  1.00  0.00     0.009 C 
HETATM   25  C   UNL     1       6.219   1.308   0.138  1.00  0.00     0.009 C 
ENDBRANCH  22  23
ENDBRANCH  21  22
ENDBRANCH  20  21
ENDBRANCH  17  20
ENDBRANCH  13  14
ENDBRANCH  11  13
ENDBRANCH   1  11
BRANCH   8  26
HETATM   26  C   UNL     1      -3.397  -1.701 -12.598  1.00  0.00     0.270 C 
HETATM   27  N   UNL     1      -4.359  -2.010 -13.520  1.00  0.00    -0.365 N 
HETATM   28  H   UNL     1      -4.069  -2.237 -14.464  1.00  0.00     0.159 HD
HETATM   29  H   UNL     1      -5.331  -2.002 -13.254  1.00  0.00     0.159 HD
HETATM   30  O   UNL     1      -3.691  -1.413 -11.442  1.00  0.00    -0.266 OA
ENDBRANCH   8  26
TORSDOF 8
