REMARK  6 active torsions:
REMARK  status: ('A' for Active; 'I' for Inactive)
REMARK    1  A    between atoms: C_4  and  C_5 
REMARK    2  A    between atoms: C_5  and  O_6 
REMARK    3  A    between atoms: O_6  and  C_7 
REMARK    4  A    between atoms: C_10  and  C_11 
REMARK    5  A    between atoms: C_17  and  C_18 
REMARK    6  A    between atoms: C_27  and  N_28 
ROOT
HETATM    1  C   UNL     1       8.908  -1.971  -0.997  1.00  0.00     0.072 A 
HETATM    2  N   UNL     1       9.894  -1.014  -1.108  1.00  0.00    -0.274 N 
HETATM    3  H   UNL     1       9.828  -0.028  -0.877  1.00  0.00     0.189 HD
HETATM    4  N   UNL     1      11.064  -1.485  -1.588  1.00  0.00    -0.148 NA
HETATM    5  C   UNL     1      10.797  -2.772  -1.774  1.00  0.00     0.199 A 
HETATM    6  C   UNL     1       9.494  -3.145  -1.440  1.00  0.00     0.040 A 
HETATM    7  C   UNL     1       9.033  -4.549  -1.620  1.00  0.00     0.107 A 
HETATM    8  C   UNL     1      10.154  -5.422  -2.174  1.00  0.00     0.081 A 
HETATM    9  C   UNL     1       9.864  -6.810  -2.331  1.00  0.00     0.100 C 
HETATM   10  N   UNL     1       9.623  -7.937  -2.461  1.00  0.00    -0.191 NA
HETATM   11  C   UNL     1      11.393  -4.941  -2.461  1.00  0.00     0.140 A 
HETATM   12  O   UNL     1      11.734  -3.594  -2.278  1.00  0.00    -0.277 OA
ENDROOT
BRANCH   7  13
HETATM   13  C   UNL     1       7.811  -4.487  -2.516  1.00  0.00    -0.027 A 
HETATM   14  C   UNL     1       6.579  -4.937  -2.040  1.00  0.00     0.124 A 
HETATM   15  N   UNL     1       5.428  -4.916  -2.748  1.00  0.00    -0.273 NA
HETATM   16  C   UNL     1       5.498  -4.428  -4.003  1.00  0.00     0.116 A 
HETATM   17  C   UNL     1       6.667  -3.965  -4.583  1.00  0.00     0.020 A 
HETATM   18  C   UNL     1       7.838  -3.999  -3.830  1.00  0.00     0.011 A 
ENDBRANCH   7  13
BRANCH  11  19
HETATM   19  N   UNL     1      12.441  -5.692  -2.949  1.00  0.00    -0.282 NA
HETATM   20  H   UNL     1      12.188  -6.526  -3.473  1.00  0.00     0.126 HD
HETATM   21  H   UNL     1      13.136  -5.117  -3.420  1.00  0.00     0.126 HD
ENDBRANCH  11  19
BRANCH   1  22
HETATM   22  C   UNL     1       7.546  -1.681  -0.578  1.00  0.00    -0.007 A 
HETATM   23  C   UNL     1       6.784  -0.732  -1.271  1.00  0.00     0.016 A 
HETATM   24  C   UNL     1       5.433  -0.562  -0.971  1.00  0.00     0.037 A 
HETATM   25  C   UNL     1       4.834  -1.354   0.006  1.00  0.00     0.069 A 
HETATM   26  C   UNL     1       5.599  -2.248   0.754  1.00  0.00     0.037 A 
HETATM   27  C   UNL     1       6.954  -2.413   0.458  1.00  0.00     0.016 A 
BRANCH  25  28
HETATM   28  O   UNL     1       3.488  -1.193   0.185  1.00  0.00    -0.347 OA
BRANCH  28  29
HETATM   29  C   UNL     1       2.777  -2.439   0.164  1.00  0.00     0.214 C 
BRANCH  29  30
HETATM   30  C   UNL     1       1.434  -2.238  -0.497  1.00  0.00    -0.034 A 
HETATM   31  C   UNL     1       1.357  -1.692  -1.788  1.00  0.00     0.009 A 
HETATM   32  C   UNL     1       0.124  -1.546  -2.425  1.00  0.00     0.001 A 
HETATM   33  C   UNL     1      -1.044  -1.951  -1.782  1.00  0.00     0.000 A 
HETATM   34  C   UNL     1      -0.980  -2.502  -0.503  1.00  0.00     0.001 A 
HETATM   35  C   UNL     1       0.253  -2.647   0.137  1.00  0.00     0.009 A 
ENDBRANCH  29  30
ENDBRANCH  28  29
ENDBRANCH  25  28
ENDBRANCH   1  22
TORSDOF 6
