REMARK  5 active torsions:
REMARK  status: ('A' for Active; 'I' for Inactive)
REMARK    1  A    between atoms: C_5  and  C_6 
REMARK    2  A    between atoms: C_10  and  C_11 
REMARK       I    between atoms: C_11  and  N_12 
REMARK    3  A    between atoms: N_12  and  C_13 
REMARK    4  A    between atoms: C_13  and  C_14 
REMARK    5  A    between atoms: C_14  and  O_15 
ROOT
HETATM    1  C   UNL     1      15.230  -5.434   2.984  1.00  0.00     0.068 A 
HETATM    2  N   UNL     1      14.554  -6.312   2.201  1.00  0.00    -0.248 NA
HETATM    3  C   UNL     1      13.873  -5.877   1.127  1.00  0.00     0.068 A 
HETATM    4  C   UNL     1      13.838  -4.527   0.736  1.00  0.00     0.008 A 
HETATM    5  C   UNL     1      14.593  -3.640   1.532  1.00  0.00     0.046 A 
HETATM    6  C   UNL     1      15.275  -4.088   2.665  1.00  0.00     0.050 A 
HETATM    7  C   UNL     1      13.164  -6.809   0.381  1.00  0.00     0.032 A 
HETATM    8  C   UNL     1      12.405  -6.445  -0.733  1.00  0.00     0.002 A 
HETATM    9  C   UNL     1      12.342  -5.113  -1.114  1.00  0.00     0.001 A 
HETATM   10  C   UNL     1      13.048  -4.158  -0.384  1.00  0.00     0.015 A 
ENDROOT
BRANCH   5  11
HETATM   11  C   UNL     1      14.702  -2.191   1.251  1.00  0.00     0.252 C 
HETATM   12  N   UNL     1      15.159  -1.857   0.000  1.00  0.00    -0.354 N 
HETATM   13  H   UNL     1      15.378  -2.575  -0.683  1.00  0.00     0.162 HD
HETATM   14  O   UNL     1      14.446  -1.382   2.133  1.00  0.00    -0.268 OA
BRANCH  12  15
HETATM   15  C   UNL     1      15.284  -0.481  -0.446  1.00  0.00     0.154 C 
BRANCH  15  16
HETATM   16  C   UNL     1      16.583  -0.249  -1.230  1.00  0.00     0.132 C 
HETATM   17  C   UNL     1      17.826  -0.455  -0.373  1.00  0.00     0.041 C 
BRANCH  16  18
HETATM   18  O   UNL     1      16.625  -1.150  -2.342  1.00  0.00    -0.394 OA
HETATM   19  H   UNL     1      17.440  -0.957  -2.837  1.00  0.00     0.210 HD
ENDBRANCH  16  18
ENDBRANCH  15  16
ENDBRANCH  12  15
ENDBRANCH   5  11
BRANCH   1  20
HETATM   20  C   UNL     1      15.901  -6.014   4.171  1.00  0.00    -0.007 A 
HETATM   21  C   UNL     1      16.265  -7.373   4.200  1.00  0.00     0.014 A 
HETATM   22  C   UNL     1      16.893  -7.946   5.312  1.00  0.00     0.007 A 
HETATM   23  C   UNL     1      17.169  -7.175   6.443  1.00  0.00    -0.062 A 
HETATM   24  C   UNL     1      17.854  -7.770   7.636  1.00  0.00     0.048 C 
HETATM   25  C   UNL     1      16.820  -5.822   6.435  1.00  0.00     0.007 A 
HETATM   26  C   UNL     1      16.190  -5.255   5.319  1.00  0.00     0.014 A 
ENDBRANCH   1  20
TORSDOF 5
