REMARK  6 active torsions:
REMARK  status: ('A' for Active; 'I' for Inactive)
REMARK    1  A    between atoms: O_2  and  C_3 
REMARK    2  A    between atoms: C_6  and  C_7 
REMARK    3  A    between atoms: C_13  and  C_14 
REMARK       I    between atoms: C_14  and  N_15 
REMARK    4  A    between atoms: N_15  and  C_16 
REMARK    5  A    between atoms: C_16  and  C_17 
REMARK    6  A    between atoms: C_24  and  C_25 
ROOT
HETATM    1  C   UNL     1       4.259   4.220  -3.509  1.00  0.00     0.118 C 
HETATM    2  N   UNL     1       3.585   3.928  -4.779  1.00  0.00    -0.365 N 
HETATM    3  C   UNL     1       3.533   4.895  -5.738  1.00  0.00     0.138 A 
HETATM    4  N   UNL     1       3.881   6.196  -5.436  1.00  0.00    -0.240 N 
HETATM    5  N   UNL     1       3.853   7.024  -6.486  1.00  0.00    -0.181 NA
HETATM    6  C   UNL     1       3.367   6.258  -7.465  1.00  0.00     0.160 A 
HETATM    7  C   UNL     1       3.150   4.913  -7.068  1.00  0.00     0.096 A 
HETATM    8  C   UNL     1       4.289   6.657  -4.120  1.00  0.00     0.221 C 
HETATM    9  C   UNL     1       3.871   5.631  -3.051  1.00  0.00     0.066 C 
HETATM   10  H   UNL     1       2.826   3.248  -4.708  1.00  0.00     0.161 HD
ENDROOT
BRANCH   7  11
HETATM   11  C   UNL     1       2.675   3.863  -7.947  1.00  0.00     0.257 C 
HETATM   12  N   UNL     1       2.742   2.583  -7.445  1.00  0.00    -0.352 N 
HETATM   13  H   UNL     1       3.293   2.442  -6.607  1.00  0.00     0.163 HD
HETATM   14  O   UNL     1       2.273   4.111  -9.079  1.00  0.00    -0.267 OA
BRANCH  12  15
HETATM   15  C   UNL     1       2.472   1.451  -8.300  1.00  0.00     0.161 C 
BRANCH  15  16
HETATM   16  C   UNL     1       1.860   0.281  -7.572  1.00  0.00    -0.041 A 
HETATM   17  C   UNL     1       0.919   0.460  -6.548  1.00  0.00     0.009 A 
HETATM   18  C   UNL     1       0.300  -0.640  -5.951  1.00  0.00     0.001 A 
HETATM   19  C   UNL     1       0.598  -1.930  -6.383  1.00  0.00     0.000 A 
HETATM   20  C   UNL     1       1.517  -2.123  -7.411  1.00  0.00     0.001 A 
HETATM   21  C   UNL     1       2.142  -1.025  -8.004  1.00  0.00     0.009 A 
ENDBRANCH  15  16
ENDBRANCH  12  15
ENDBRANCH   7  11
BRANCH   1  22
HETATM   22  C   UNL     1       4.002   3.107  -2.510  1.00  0.00    -0.035 A 
HETATM   23  C   UNL     1       4.635   1.866  -2.703  1.00  0.00     0.012 A 
HETATM   24  C   UNL     1       4.494   0.825  -1.777  1.00  0.00     0.037 A 
HETATM   25  C   UNL     1       3.712   1.004  -0.639  1.00  0.00     0.068 A 
HETATM   26  C   UNL     1       3.045   2.215  -0.458  1.00  0.00     0.037 A 
HETATM   27  C   UNL     1       3.184   3.257  -1.382  1.00  0.00     0.012 A 
BRANCH  25  28
HETATM   28  O   UNL     1       3.514   0.085   0.353  1.00  0.00    -0.356 OA
HETATM   29  C   UNL     1       4.378  -1.045   0.355  1.00  0.00     0.210 C 
ENDBRANCH  25  28
ENDBRANCH   1  22
BRANCH   8  30
HETATM   30  C   UNL     1       3.701   8.009  -3.772  1.00  0.00     0.409 C 
HETATM   31  F   UNL     1       2.350   8.012  -3.812  1.00  0.00    -0.169 F 
HETATM   32  F   UNL     1       4.047   8.334  -2.495  1.00  0.00    -0.169 F 
HETATM   33  F   UNL     1       4.157   9.015  -4.546  1.00  0.00    -0.169 F 
ENDBRANCH   8  30
TORSDOF 6
