REMARK  5 active torsions:
REMARK  status: ('A' for Active; 'I' for Inactive)
REMARK    1  A    between atoms: C_2  and  C_3 
REMARK    2  A    between atoms: C_7  and  N_8 
REMARK    3  A    between atoms: C_13  and  N_14 
REMARK       I    between atoms: N_14  and  C_15 
REMARK    4  A    between atoms: C_15  and  C_16 
REMARK       I    between atoms: C_16  and  N_17 
REMARK    5  A    between atoms: N_17  and  C_18 
ROOT
HETATM    1  N   UNL     1       3.438   2.801  -4.979  1.00  0.00    -0.045 N 
HETATM    2  N   UNL     1       3.102   4.116  -5.025  1.00  0.00    -0.156 NA
HETATM    3  C   UNL     1       2.806   4.330  -6.312  1.00  0.00     0.055 A 
HETATM    4  C   UNL     1       2.394   5.679  -6.777  1.00  0.00     0.072 C 
HETATM    5  C   UNL     1       2.938   3.151  -7.093  1.00  0.00     0.079 A 
HETATM    6  C   UNL     1       3.363   2.180  -6.219  1.00  0.00     0.152 A 
ENDROOT
BRANCH   6   7
HETATM    7  N   UNL     1       3.630   0.832  -6.408  1.00  0.00    -0.303 N 
HETATM    8  C   UNL     1       3.647   0.054  -7.596  1.00  0.00     0.315 C 
HETATM    9  O   UNL     1       3.680  -1.159  -7.456  1.00  0.00    -0.262 OA
HETATM   10  H   UNL     1       3.829   0.295  -5.558  1.00  0.00     0.171 HD
BRANCH   8  11
HETATM   11  C   UNL     1       3.606   0.661  -9.003  1.00  0.00     0.310 C 
HETATM   12  N   UNL     1       2.787  -0.029  -9.882  1.00  0.00    -0.348 N 
HETATM   13  H   UNL     1       2.402  -0.905  -9.546  1.00  0.00     0.163 HD
HETATM   14  O   UNL     1       4.294   1.630  -9.283  1.00  0.00    -0.262 OA
BRANCH  12  15
HETATM   15  C   UNL     1       2.829   0.200 -11.317  1.00  0.00     0.085 C 
HETATM   16  C   UNL     1       4.106  -0.349 -11.973  1.00  0.00     0.034 C 
HETATM   17  C   UNL     1       4.148  -1.880 -12.181  1.00  0.00    -0.045 C 
HETATM   18  C   UNL     1       4.443  -2.627 -10.868  1.00  0.00     0.015 C 
HETATM   19  C   UNL     1       5.326  -2.202 -13.132  1.00  0.00     0.015 C 
HETATM   20  C   UNL     1       2.844  -2.375 -12.848  1.00  0.00     0.013 C 
HETATM   21  C   UNL     1       1.520  -1.828 -12.289  1.00  0.00    -0.016 C 
HETATM   22  C   UNL     1       1.568  -0.316 -12.017  1.00  0.00     0.029 C 
HETATM   23  C   UNL     1       0.968  -2.643 -11.119  1.00  0.00     0.010 C 
ENDBRANCH  12  15
ENDBRANCH   8  11
ENDBRANCH   6   7
BRANCH   1  24
HETATM   24  C   UNL     1       3.790   2.182  -3.770  1.00  0.00     0.732 A 
HETATM   25  N   UNL     1       3.738   3.033  -2.711  1.00  0.00    -0.152 N 
HETATM   26  C   UNL     1       3.991   2.597  -1.449  1.00  0.00     0.268 A 
HETATM   27  H   UNL     1       3.455   3.999  -2.843  1.00  0.00     0.188 HD
HETATM   28  C   UNL     1       4.399   1.166  -1.334  1.00  0.00     0.035 A 
HETATM   29  O   UNL     1       3.881   3.334  -0.477  1.00  0.00    -0.267 OA
HETATM   30  C   UNL     1       4.437   0.432  -2.468  1.00  0.00     0.061 A 
HETATM   31  N   UNL     1       4.109   0.927  -3.715  1.00  0.00    -0.067 NA
HETATM   32  C   UNL     1       4.823  -1.027  -2.495  1.00  0.00     0.072 C 
BRANCH  28  33
HETATM   33  C   UNL     1       4.768   0.694   0.049  1.00  0.00     0.042 C 
HETATM   34  C   UNL     1       3.560   0.168   0.811  1.00  0.00     0.010 C 
ENDBRANCH  28  33
ENDBRANCH   1  24
TORSDOF 5
