REMARK  8 active torsions:
REMARK  status: ('A' for Active; 'I' for Inactive)
REMARK    1  A    between atoms: C_4  and  N_5 
REMARK    2  A    between atoms: C_8  and  C_9 
REMARK    3  A    between atoms: C_9  and  N_10 
REMARK       I    between atoms: N_10  and  C_11 
REMARK       I    between atoms: C_11  and  N_12 
REMARK    4  A    between atoms: N_12  and  C_13 
REMARK    5  A    between atoms: C_13  and  C_14 
REMARK    6  A    between atoms: C_14  and  N_15 
REMARK       I    between atoms: N_15  and  C_16 
REMARK    7  A    between atoms: C_16  and  C_17 
REMARK    8  A    between atoms: C_18  and  O_19 
ROOT
HETATM    1  N   UNL     1       7.343  -0.354  -0.655  1.00  0.00    -0.339 N 
HETATM    2  C   UNL     1       8.504  -1.061  -0.800  1.00  0.00     0.316 C 
HETATM    3  N   UNL     1       8.283  -2.405  -0.891  1.00  0.00    -0.342 N 
HETATM    4  O   UNL     1       9.609  -0.541  -0.887  1.00  0.00    -0.248 OA
HETATM    5  H   UNL     1       6.544  -0.837  -0.278  1.00  0.00     0.164 HD
HETATM    6  H   UNL     1       7.401  -2.781  -0.580  1.00  0.00     0.164 HD
ENDROOT
BRANCH   1   7
HETATM    7  C   UNL     1       7.394   1.082  -0.530  1.00  0.00     0.166 C 
BRANCH   7   8
HETATM    8  C   UNL     1       6.013   1.621  -0.554  1.00  0.00    -0.004 A 
HETATM    9  C   UNL     1       5.391   2.428   0.417  1.00  0.00     0.149 A 
HETATM   10  N   UNL     1       4.142   2.760   0.095  1.00  0.00    -0.180 NA
HETATM   11  N   UNL     1       3.929   2.181  -1.117  1.00  0.00    -0.245 N 
HETATM   12  C   UNL     1       5.044   1.482  -1.529  1.00  0.00     0.129 A 
BRANCH  11  13
HETATM   13  C   UNL     1       2.685   2.333  -1.792  1.00  0.00     0.058 A 
HETATM   14  C   UNL     1       1.677   3.119  -1.211  1.00  0.00     0.031 A 
HETATM   15  C   UNL     1       0.450   3.284  -1.857  1.00  0.00     0.002 A 
HETATM   16  C   UNL     1       0.219   2.666  -3.084  1.00  0.00     0.000 A 
HETATM   17  C   UNL     1       1.214   1.883  -3.667  1.00  0.00     0.002 A 
HETATM   18  C   UNL     1       2.446   1.715  -3.027  1.00  0.00     0.031 A 
ENDBRANCH  11  13
ENDBRANCH   7   8
ENDBRANCH   1   7
BRANCH   3  19
HETATM   19  C   UNL     1       9.380  -3.347  -1.037  1.00  0.00     0.144 C 
BRANCH  19  20
HETATM   20  C   UNL     1      10.045  -3.686   0.303  1.00  0.00     0.142 C 
BRANCH  20  21
HETATM   21  N   UNL     1       9.140  -4.306   1.256  1.00  0.00    -0.355 N 
HETATM   22  C   UNL     1       8.669  -5.588   1.097  1.00  0.00     0.254 C 
HETATM   23  O   UNL     1       8.875  -6.242   0.079  1.00  0.00    -0.268 OA
HETATM   24  H   UNL     1       9.011  -3.870   2.166  1.00  0.00     0.162 HD
BRANCH  22  25
HETATM   25  C   UNL     1       7.874  -6.174   2.223  1.00  0.00     0.065 A 
HETATM   26  C   UNL     1       7.715  -5.578   3.484  1.00  0.00     0.081 A 
HETATM   27  C   UNL     1       6.958  -6.207   4.478  1.00  0.00     0.037 A 
HETATM   28  C   UNL     1       6.352  -7.438   4.222  1.00  0.00     0.003 A 
HETATM   29  C   UNL     1       6.502  -8.043   2.977  1.00  0.00     0.001 A 
HETATM   30  C   UNL     1       7.259  -7.416   1.986  1.00  0.00     0.020 A 
BRANCH  26  31
HETATM   31  O   UNL     1       8.300  -4.371   3.773  1.00  0.00    -0.360 OA
HETATM   32  H   UNL     1       8.152  -4.170   4.714  1.00  0.00     0.217 HD
ENDBRANCH  26  31
ENDBRANCH  22  25
ENDBRANCH  20  21
ENDBRANCH  19  20
ENDBRANCH   3  19
TORSDOF 8
