REMARK  8 active torsions:
REMARK  status: ('A' for Active; 'I' for Inactive)
REMARK    1  A    between atoms: O_2  and  C_3 
REMARK    2  A    between atoms: C_5  and  O_6 
REMARK    3  A    between atoms: C_9  and  N_10 
REMARK       I    between atoms: N_10  and  C_11 
REMARK       I    between atoms: C_11  and  N_12 
REMARK    4  A    between atoms: N_12  and  C_13 
REMARK    5  A    between atoms: C_16  and  N_17 
REMARK    6  A    between atoms: N_20  and  C_22 
REMARK    7  A    between atoms: C_22  and  C_23 
REMARK    8  A    between atoms: C_25  and  C_26 
ROOT
HETATM    1  C   UNL     1       5.040  -2.268   0.273  1.00  0.00     0.054 A 
HETATM    2  C   UNL     1       5.321  -0.909   0.257  1.00  0.00     0.148 A 
HETATM    3  N   UNL     1       4.687   0.000  -0.539  1.00  0.00    -0.241 NA
HETATM    4  C   UNL     1       3.726  -0.432  -1.381  1.00  0.00     0.125 A 
HETATM    5  C   UNL     1       3.351  -1.774  -1.381  1.00  0.00     0.052 A 
HETATM    6  C   UNL     1       4.005  -2.692  -0.552  1.00  0.00     0.035 A 
ENDROOT
BRANCH   4   7
HETATM    7  N   UNL     1       3.197   0.475  -2.295  1.00  0.00    -0.364 N 
HETATM    8  C   UNL     1       4.058   1.616  -2.627  1.00  0.00     0.152 C 
HETATM    9  C   UNL     1       3.538   2.965  -2.099  1.00  0.00     0.255 C 
HETATM   10  N   UNL     1       2.266   3.348  -2.859  1.00  0.00    -0.066 N 
HETATM   11  H   UNL     1       2.313   2.819  -3.737  1.00  0.00     0.280 HD
HETATM   12  C   UNL     1       0.998   2.900  -2.187  1.00  0.00     0.237 C 
HETATM   13  C   UNL     1       1.020   1.452  -1.703  1.00  0.00     0.047 C 
HETATM   14  C   UNL     1       1.770   0.475  -2.603  1.00  0.00     0.126 C 
BRANCH  10  15
HETATM   15  C   UNL     1       2.238   4.784  -3.341  1.00  0.00     0.273 C 
BRANCH  15  16
HETATM   16  C   UNL     1       2.045   5.850  -2.296  1.00  0.00    -0.032 A 
HETATM   17  C   UNL     1       0.759   6.350  -2.019  1.00  0.00     0.025 A 
HETATM   18  C   UNL     1       0.560   7.363  -1.064  1.00  0.00     0.048 A 
HETATM   19  C   UNL     1       1.671   7.878  -0.385  1.00  0.00     0.016 A 
HETATM   20  C   UNL     1       2.951   7.395  -0.654  1.00  0.00     0.001 A 
HETATM   21  C   UNL     1       3.137   6.389  -1.603  1.00  0.00     0.009 A 
BRANCH  18  22
HETATM   22  C   UNL     1      -0.821   7.909  -0.774  1.00  0.00     0.417 C 
HETATM   23  F   UNL     1      -1.797   7.262  -1.472  1.00  0.00    -0.166 F 
HETATM   24  F   UNL     1      -1.159   7.792   0.537  1.00  0.00    -0.166 F 
HETATM   25  F   UNL     1      -0.939   9.225  -1.090  1.00  0.00    -0.166 F 
ENDBRANCH  18  22
ENDBRANCH  15  16
ENDBRANCH  10  15
ENDBRANCH   4   7
BRANCH   1  26
HETATM   26  N   UNL     1       5.727  -3.247   1.023  1.00  0.00    -0.307 N 
HETATM   27  C   UNL     1       6.893  -3.064   1.753  1.00  0.00     0.325 C 
HETATM   28  N   UNL     1       7.308  -4.261   2.316  1.00  0.00    -0.309 N 
HETATM   29  O   UNL     1       7.474  -1.991   1.856  1.00  0.00    -0.247 OA
HETATM   30  H   UNL     1       6.652  -5.028   2.285  1.00  0.00     0.170 HD
HETATM   31  H   UNL     1       5.424  -4.201   0.896  1.00  0.00     0.170 HD
BRANCH  28  32
HETATM   32  C   UNL     1       8.502  -4.520   3.028  1.00  0.00     0.041 A 
HETATM   33  C   UNL     1       9.528  -3.583   3.206  1.00  0.00     0.066 A 
HETATM   34  C   UNL     1      10.680  -3.913   3.932  1.00  0.00     0.073 A 
HETATM   35  C   UNL     1      10.817  -5.195   4.463  1.00  0.00     0.073 A 
HETATM   36  C   UNL     1       9.814  -6.137   4.261  1.00  0.00     0.073 A 
HETATM   37  C   UNL     1       8.653  -5.803   3.567  1.00  0.00     0.066 A 
BRANCH  34  38
HETATM   38  O   UNL     1      11.736  -3.079   4.185  1.00  0.00    -0.356 OA
HETATM   39  C   UNL     1      11.597  -1.723   3.776  1.00  0.00     0.210 C 
ENDBRANCH  34  38
BRANCH  36  40
HETATM   40  O   UNL     1       9.928  -7.382   4.818  1.00  0.00    -0.356 OA
HETATM   41  C   UNL     1      10.584  -8.269   3.910  1.00  0.00     0.210 C 
ENDBRANCH  36  40
ENDBRANCH  28  32
ENDBRANCH   1  26
TORSDOF 8
