REMARK  9 active torsions:
REMARK  status: ('A' for Active; 'I' for Inactive)
REMARK    1  A    between atoms: C_2  and  O_3 
REMARK    2  A    between atoms: O_3  and  C_4 
REMARK    3  A    between atoms: C_7  and  N_8 
REMARK    4  A    between atoms: C_12  and  N_13 
REMARK       I    between atoms: N_13  and  C_14 
REMARK       I    between atoms: C_14  and  N_15 
REMARK    5  A    between atoms: N_15  and  C_16 
REMARK    6  A    between atoms: C_16  and  C_17 
REMARK    7  A    between atoms: C_17  and  C_18 
REMARK    8  A    between atoms: C_21  and  S_22 
REMARK    9  A    between atoms: S_22  and  N_23 
ROOT
HETATM    1  N   UNL     1      11.389  -2.697  -2.645  1.00  0.00    -0.336 N 
HETATM    2  C   UNL     1      11.575  -2.557  -1.312  1.00  0.00     0.316 C 
HETATM    3  N   UNL     1      10.849  -1.600  -0.682  1.00  0.00    -0.343 N 
HETATM    4  O   UNL     1      12.400  -3.271  -0.751  1.00  0.00    -0.248 OA
HETATM    5  H   UNL     1      12.025  -3.396  -3.015  1.00  0.00     0.164 HD
HETATM    6  H   UNL     1       9.935  -1.404  -1.060  1.00  0.00     0.164 HD
ENDROOT
BRANCH   1   7
HETATM    7  C   UNL     1      10.579  -1.963  -3.619  1.00  0.00     0.113 C 
HETATM    8  C   UNL     1      10.893  -0.479  -3.713  1.00  0.00     0.130 C 
HETATM    9  C   UNL     1       9.717   0.205  -3.059  1.00  0.00     0.226 C 
HETATM   10  N   UNL     1       8.711  -0.745  -2.825  1.00  0.00    -0.316 N 
HETATM   11  O   UNL     1       9.705   1.405  -2.825  1.00  0.00    -0.273 OA
HETATM   12  C   UNL     1       9.078  -2.035  -3.369  1.00  0.00     0.157 C 
BRANCH  10  13
HETATM   13  C   UNL     1       7.397  -0.480  -2.335  1.00  0.00     0.037 A 
HETATM   14  C   UNL     1       6.997   0.799  -1.927  1.00  0.00     0.032 A 
HETATM   15  C   UNL     1       5.687   1.057  -1.495  1.00  0.00     0.039 A 
HETATM   16  C   UNL     1       4.748   0.032  -1.457  1.00  0.00     0.068 A 
HETATM   17  C   UNL     1       5.140  -1.255  -1.809  1.00  0.00     0.039 A 
HETATM   18  C   UNL     1       6.444  -1.507  -2.252  1.00  0.00     0.032 A 
BRANCH  16  19
HETATM   19  O   UNL     1       3.445   0.167  -1.069  1.00  0.00    -0.352 OA
BRANCH  19  20
HETATM   20  C   UNL     1       2.862   1.449  -1.315  1.00  0.00     0.171 C 
HETATM   21  C   UNL     1       1.356   1.308  -1.185  1.00  0.00     0.034 C 
ENDBRANCH  19  20
ENDBRANCH  16  19
ENDBRANCH  10  13
ENDBRANCH   1   7
BRANCH   3  22
HETATM   22  C   UNL     1      10.999  -1.360   0.745  1.00  0.00     0.129 C 
BRANCH  22  23
HETATM   23  C   UNL     1      12.351  -0.751   1.152  1.00  0.00     0.058 C 
BRANCH  23  24
HETATM   24  C   UNL     1      12.683   0.652   0.682  1.00  0.00    -0.057 A 
HETATM   25  C   UNL     1      11.807   1.455  -0.059  1.00  0.00     0.009 A 
HETATM   26  C   UNL     1      12.183   2.735  -0.472  1.00  0.00     0.025 A 
HETATM   27  C   UNL     1      13.439   3.234  -0.123  1.00  0.00     0.074 A 
HETATM   28  C   UNL     1      14.326   2.459   0.623  1.00  0.00     0.025 A 
HETATM   29  C   UNL     1      13.946   1.175   1.020  1.00  0.00     0.009 A 
BRANCH  27  30
HETATM   30  S   UNL     1      13.903   4.853  -0.650  1.00  0.00     0.239 S 
HETATM   31  O   UNL     1      15.174   5.207  -0.060  1.00  0.00    -0.206 OA
HETATM   32  O   UNL     1      13.641   4.982  -2.063  1.00  0.00    -0.206 OA
BRANCH  30  33
HETATM   33  N   UNL     1      12.772   5.824   0.128  1.00  0.00    -0.225 NA
HETATM   34  H   UNL     1      13.247   6.440   0.788  1.00  0.00     0.136 HD
HETATM   35  H   UNL     1      12.206   6.314  -0.565  1.00  0.00     0.136 HD
ENDBRANCH  30  33
ENDBRANCH  27  30
ENDBRANCH  23  24
ENDBRANCH  22  23
ENDBRANCH   3  22
TORSDOF 9
