REMARK  3 active torsions:
REMARK  status: ('A' for Active; 'I' for Inactive)
REMARK       I    between atoms: C_2  and  N_3 
REMARK    1  A    between atoms: N_3  and  N_4 
REMARK       I    between atoms: N_4  and  C_5 
REMARK    2  A    between atoms: C_5  and  C_6 
REMARK    3  A    between atoms: C_11  and  C_12 
ROOT
HETATM    1  C   UNL     1       4.793  -3.240  -1.592  1.00  0.00     0.115 A 
HETATM    2  N   UNL     1       5.638  -4.330  -1.510  1.00  0.00    -0.350 N 
HETATM    3  H   UNL     1       5.342  -5.269  -1.282  1.00  0.00     0.166 HD
HETATM    4  C   UNL     1       6.946  -3.972  -1.721  1.00  0.00     0.044 A 
HETATM    5  C   UNL     1       6.961  -2.597  -1.936  1.00  0.00     0.005 A 
HETATM    6  C   UNL     1       5.605  -2.138  -1.845  1.00  0.00     0.019 A 
HETATM    7  C   UNL     1       8.105  -4.757  -1.727  1.00  0.00     0.032 A 
HETATM    8  C   UNL     1       9.322  -4.112  -1.970  1.00  0.00     0.021 A 
HETATM    9  C   UNL     1       9.364  -2.739  -2.196  1.00  0.00     0.012 A 
HETATM   10 BR   UNL     1      11.029  -1.900  -2.522  1.00  0.00    -0.051 Br
HETATM   11  C   UNL     1       8.199  -1.967  -2.186  1.00  0.00     0.033 A 
ENDROOT
BRANCH   1  12
HETATM   12  C   UNL     1       3.362  -3.322  -1.375  1.00  0.00     0.287 C 
HETATM   13  N   UNL     1       2.812  -4.562  -1.664  1.00  0.00    -0.262 N 
HETATM   14  H   UNL     1       3.277  -5.210  -2.297  1.00  0.00     0.190 HD
HETATM   15  O   UNL     1       2.653  -2.399  -0.976  1.00  0.00    -0.264 OA
BRANCH  13  16
HETATM   16  N   UNL     1       1.412  -4.683  -1.622  1.00  0.00    -0.268 N 
HETATM   17  C   UNL     1       0.835  -5.602  -2.471  1.00  0.00     0.232 C 
HETATM   18  C   UNL     1      -0.668  -5.570  -2.498  1.00  0.00     0.119 C 
HETATM   19  O   UNL     1       1.497  -6.397  -3.135  1.00  0.00    -0.272 OA
HETATM   20  H   UNL     1       0.909  -3.866  -1.273  1.00  0.00     0.190 HD
ENDBRANCH  13  16
ENDBRANCH   1  12
BRANCH   6  21
HETATM   21  C   UNL     1       5.125  -0.772  -1.990  1.00  0.00    -0.023 A 
HETATM   22  C   UNL     1       4.237  -0.430  -3.018  1.00  0.00     0.012 A 
HETATM   23  C   UNL     1       3.810   0.892  -3.167  1.00  0.00     0.001 A 
HETATM   24  C   UNL     1       4.273   1.878  -2.296  1.00  0.00     0.000 A 
HETATM   25  C   UNL     1       5.161   1.546  -1.275  1.00  0.00     0.001 A 
HETATM   26  C   UNL     1       5.586   0.225  -1.122  1.00  0.00     0.012 A 
ENDBRANCH   6  21
TORSDOF 3
