REMARK  5 active torsions:
REMARK  status: ('A' for Active; 'I' for Inactive)
REMARK    1  A    between atoms: C_2  and  N_3 
REMARK       I    between atoms: N_3  and  C_4 
REMARK       I    between atoms: C_4  and  N_5 
REMARK    2  A    between atoms: N_5  and  C_6 
REMARK    3  A    between atoms: C_9  and  C_10 
REMARK    4  A    between atoms: C_10  and  N_11 
REMARK       I    between atoms: N_11  and  C_12 
REMARK    5  A    between atoms: C_12  and  C_13 
ROOT
HETATM    1  N   UNL     1       0.053   2.550   4.760  1.00  0.00    -0.353 N 
HETATM    2  C   UNL     1      -0.612   3.627   5.314  1.00  0.00     0.254 C 
HETATM    3  O   UNL     1      -1.280   4.401   4.632  1.00  0.00    -0.268 OA
HETATM    4  H   UNL     1       0.742   2.029   5.280  1.00  0.00     0.163 HD
ENDROOT
BRANCH   1   5
HETATM    5  C   UNL     1       0.066   2.412   3.323  1.00  0.00     0.161 C 
BRANCH   5   6
HETATM    6  C   UNL     1       0.563   1.069   2.867  1.00  0.00    -0.040 A 
HETATM    7  C   UNL     1      -0.310  -0.024   2.807  1.00  0.00     0.011 A 
HETATM    8  C   UNL     1       0.101  -1.236   2.240  1.00  0.00     0.030 A 
HETATM    9  C   UNL     1       1.392  -1.377   1.729  1.00  0.00     0.036 A 
HETATM   10  C   UNL     1       2.293  -0.315   1.875  1.00  0.00     0.030 A 
HETATM   11  C   UNL     1       1.883   0.899   2.436  1.00  0.00     0.011 A 
BRANCH   9  12
HETATM   12  N   UNL     1       1.839  -2.510   1.017  1.00  0.00    -0.309 N 
HETATM   13  C   UNL     1       1.062  -3.535   0.513  1.00  0.00     0.321 C 
HETATM   14  N   UNL     1       1.820  -4.355  -0.302  1.00  0.00    -0.339 N 
HETATM   15  O   UNL     1      -0.139  -3.692   0.684  1.00  0.00    -0.247 OA
HETATM   16  H   UNL     1       2.795  -4.438  -0.059  1.00  0.00     0.164 HD
HETATM   17  H   UNL     1       2.770  -2.454   0.636  1.00  0.00     0.170 HD
BRANCH  14  18
HETATM   18  C   UNL     1       1.260  -5.449  -1.090  1.00  0.00     0.078 C 
HETATM   19  C   UNL     1       0.186  -4.979  -2.071  1.00  0.00     0.032 C 
HETATM   20  C   UNL     1       0.763  -6.598  -0.218  1.00  0.00     0.032 C 
ENDBRANCH  14  18
ENDBRANCH   9  12
ENDBRANCH   5   6
ENDBRANCH   1   5
BRANCH   2  21
HETATM   21  C   UNL     1      -0.478   3.864   6.776  1.00  0.00     0.064 A 
HETATM   22  C   UNL     1      -0.973   5.038   7.325  1.00  0.00     0.077 A 
HETATM   23  C   UNL     1      -0.870   5.329   8.688  1.00  0.00     0.065 A 
HETATM   24  N   UNL     1      -1.633   6.112   6.719  1.00  0.00    -0.330 N 
HETATM   25  N   UNL     1      -1.460   6.572   8.915  1.00  0.00    -0.331 N 
HETATM   26  C   UNL     1      -0.274   4.471   9.577  1.00  0.00     0.074 A 
HETATM   27  C   UNL     1      -1.943   7.062   7.694  1.00  0.00     0.176 A 
HETATM   28  H   UNL     1      -1.550   7.050   9.799  1.00  0.00     0.168 HD
HETATM   29  S   UNL     1      -2.730   8.490   7.463  1.00  0.00    -0.041 SA
HETATM   30  C   UNL     1       0.219   3.282   9.042  1.00  0.00     0.119 A 
HETATM   31  F   UNL     1       0.806   2.399   9.861  1.00  0.00    -0.206 F 
HETATM   32  C   UNL     1       0.123   2.967   7.670  1.00  0.00     0.061 A 
HETATM   33  H   UNL     1      -1.859   6.152   5.730  1.00  0.00     0.168 HD
ENDBRANCH   2  21
TORSDOF 5
