REMARK  6 active torsions:
REMARK  status: ('A' for Active; 'I' for Inactive)
REMARK    1  A    between atoms: C_2  and  C_3 
REMARK    2  A    between atoms: C_7  and  C_8 
REMARK       I    between atoms: C_8  and  N_9 
REMARK    3  A    between atoms: N_9  and  C_10 
REMARK    4  A    between atoms: C_13  and  C_14 
REMARK       I    between atoms: C_14  and  N_15 
REMARK    5  A    between atoms: N_15  and  C_16 
REMARK    6  A    between atoms: C_16  and  C_17 
ROOT
HETATM    1  C   UNL     1       6.525   1.869   1.193  1.00  0.00     0.035 A 
HETATM    2  C   UNL     1       7.483   1.398   0.283  1.00  0.00     0.030 A 
HETATM    3  C   UNL     1       7.765   0.030   0.182  1.00  0.00     0.019 A 
HETATM    4  C   UNL     1       7.100  -0.878   1.010  1.00  0.00     0.032 A 
HETATM    5  C   UNL     1       6.183  -0.411   1.954  1.00  0.00     0.019 A 
HETATM    6  C   UNL     1       5.891   0.954   2.038  1.00  0.00     0.030 A 
ENDROOT
BRANCH   1   7
HETATM    7  N   UNL     1       6.264   3.255   1.209  1.00  0.00    -0.322 N 
HETATM    8  C   UNL     1       5.214   3.895   1.840  1.00  0.00     0.274 C 
HETATM    9  O   UNL     1       4.299   3.337   2.436  1.00  0.00    -0.266 OA
HETATM   10  H   UNL     1       6.847   3.827   0.615  1.00  0.00     0.169 HD
BRANCH   8  11
HETATM   11  C   UNL     1       5.220   5.332   1.706  1.00  0.00     0.120 A 
HETATM   12  N   UNL     1       4.121   6.075   2.045  1.00  0.00    -0.273 N 
HETATM   13  N   UNL     1       4.269   7.394   1.854  1.00  0.00    -0.179 NA
HETATM   14  H   UNL     1       3.237   5.724   2.404  1.00  0.00     0.189 HD
HETATM   15  C   UNL     1       5.529   7.519   1.424  1.00  0.00     0.056 A 
HETATM   16  C   UNL     1       6.163   6.258   1.301  1.00  0.00     0.065 A 
BRANCH  15  17
HETATM   17  C   UNL     1       6.097   8.868   1.140  1.00  0.00     0.056 C 
HETATM   18  C   UNL     1       6.367   9.664   2.409  1.00  0.00     0.011 C 
ENDBRANCH  15  17
ENDBRANCH   8  11
ENDBRANCH   1   7
BRANCH   4  19
HETATM   19  C   UNL     1       7.321  -2.344   0.920  1.00  0.00     0.251 C 
HETATM   20  N   UNL     1       7.464  -2.851  -0.350  1.00  0.00    -0.353 N 
HETATM   21  H   UNL     1       7.418  -2.243  -1.156  1.00  0.00     0.163 HD
HETATM   22  O   UNL     1       7.307  -3.030   1.934  1.00  0.00    -0.268 OA
BRANCH  20  23
HETATM   23  C   UNL     1       7.526  -4.277  -0.584  1.00  0.00     0.161 C 
BRANCH  23  24
HETATM   24  C   UNL     1       6.905  -4.654  -1.907  1.00  0.00    -0.041 A 
HETATM   25  C   UNL     1       7.551  -5.561  -2.759  1.00  0.00     0.009 A 
HETATM   26  C   UNL     1       6.963  -5.943  -3.967  1.00  0.00     0.001 A 
HETATM   27  C   UNL     1       5.723  -5.425  -4.336  1.00  0.00     0.000 A 
HETATM   28  C   UNL     1       5.063  -4.535  -3.492  1.00  0.00     0.001 A 
HETATM   29  C   UNL     1       5.645  -4.159  -2.281  1.00  0.00     0.009 A 
ENDBRANCH  23  24
ENDBRANCH  20  23
ENDBRANCH   4  19
TORSDOF 6
