REMARK  9 active torsions:
REMARK  status: ('A' for Active; 'I' for Inactive)
REMARK    1  A    between atoms: O_2  and  C_3 
REMARK    2  A    between atoms: C_4  and  O_5 
REMARK    3  A    between atoms: O_5  and  C_6 
REMARK    4  A    between atoms: C_6  and  C_7 
REMARK    5  A    between atoms: C_7  and  C_8 
REMARK    6  A    between atoms: C_8  and  C_9 
REMARK    7  A    between atoms: C_9  and  N_10 
REMARK       I    between atoms: N_10  and  C_11 
REMARK    8  A    between atoms: C_11  and  C_12 
REMARK    9  A    between atoms: C_16  and  C_17 
ROOT
HETATM    1  N   UNL     1      -4.412   4.363   1.502  1.00  0.00    -0.345 N 
HETATM    2  C   UNL     1      -5.741   4.431   1.830  1.00  0.00     0.270 C 
HETATM    3  O   UNL     1      -6.394   3.441   2.143  1.00  0.00    -0.266 OA
HETATM    4  H   UNL     1      -3.934   5.179   1.153  1.00  0.00     0.163 HD
ENDROOT
BRANCH   2   5
HETATM    5  C   UNL     1      -6.323   5.745   1.775  1.00  0.00     0.120 A 
HETATM    6  N   UNL     1      -7.650   5.951   2.024  1.00  0.00    -0.272 N 
HETATM    7  H   UNL     1      -8.340   5.244   2.262  1.00  0.00     0.189 HD
HETATM    8  N   UNL     1      -8.035   7.232   1.935  1.00  0.00    -0.174 NA
HETATM    9  C   UNL     1      -6.917   7.906   1.622  1.00  0.00     0.089 A 
HETATM   10  C   UNL     1      -5.820   7.004   1.510  1.00  0.00     0.071 A 
BRANCH   9  11
HETATM   11  C   UNL     1      -6.922   9.365   1.446  1.00  0.00    -0.003 A 
HETATM   12  C   UNL     1      -5.748  10.057   1.104  1.00  0.00     0.053 A 
HETATM   13  C   UNL     1      -5.815  11.429   0.957  1.00  0.00     0.106 A 
HETATM   14  C   UNL     1      -6.986  12.126   1.133  1.00  0.00     0.105 A 
HETATM   15  O   UNL     1      -4.773  12.240   0.631  1.00  0.00    -0.323 OA
HETATM   16  O   UNL     1      -6.830  13.462   0.942  1.00  0.00    -0.323 OA
HETATM   17  C   UNL     1      -8.159  11.490   1.467  1.00  0.00     0.040 A 
HETATM   18  C   UNL     1      -5.424  13.529   0.626  1.00  0.00     0.352 A 
HETATM   19  C   UNL     1      -8.121  10.099   1.623  1.00  0.00     0.017 A 
ENDBRANCH   9  11
ENDBRANCH   2   5
BRANCH   1  20
HETATM   20  C   UNL     1      -3.729   3.098   1.464  1.00  0.00     0.217 C 
BRANCH  20  21
HETATM   21  C   UNL     1      -2.264   3.332   1.134  1.00  0.00    -0.085 C 
BRANCH  21  22
HETATM   22  C   UNL     1      -1.007   3.532   0.851  1.00  0.00    -0.078 C 
BRANCH  22  23
HETATM   23  C   UNL     1       0.459   3.766   0.521  1.00  0.00     0.269 C 
BRANCH  23  24
HETATM   24  O   UNL     1       1.155   2.524   0.419  1.00  0.00    -0.337 OA
BRANCH  24  25
HETATM   25  C   UNL     1       1.803   2.059   1.533  1.00  0.00     0.103 A 
HETATM   26  C   UNL     1       2.892   1.188   1.354  1.00  0.00     0.101 A 
HETATM   27  C   UNL     1       3.512   0.610   2.470  1.00  0.00     0.039 A 
HETATM   28  C   UNL     1       3.082   0.908   3.761  1.00  0.00     0.003 A 
HETATM   29  C   UNL     1       2.012   1.776   3.945  1.00  0.00     0.003 A 
HETATM   30  C   UNL     1       1.370   2.340   2.838  1.00  0.00     0.040 A 
BRANCH  26  31
HETATM   31  O   UNL     1       3.432   0.776   0.162  1.00  0.00    -0.353 OA
HETATM   32  C   UNL     1       3.416   1.719  -0.902  1.00  0.00     0.210 C 
ENDBRANCH  26  31
ENDBRANCH  24  25
ENDBRANCH  23  24
ENDBRANCH  22  23
ENDBRANCH  21  22
ENDBRANCH  20  21
ENDBRANCH   1  20
TORSDOF 9
