REMARK  5 active torsions:
REMARK  status: ('A' for Active; 'I' for Inactive)
REMARK    1  A    between atoms: C_3  and  N_4 
REMARK       I    between atoms: N_4  and  C_5 
REMARK       I    between atoms: C_5  and  N_6 
REMARK    2  A    between atoms: N_6  and  C_7 
REMARK    3  A    between atoms: C_7  and  C_8 
REMARK    4  A    between atoms: C_8  and  O_9 
REMARK    5  A    between atoms: O_9  and  C_10 
ROOT
HETATM    1  N   UNL     1       5.976   5.730  -0.967  1.00  0.00    -0.307 N 
HETATM    2  C   UNL     1       4.724   5.251  -0.726  1.00  0.00     0.320 C 
HETATM    3  N   UNL     1       4.674   3.977  -0.242  1.00  0.00    -0.340 N 
HETATM    4  O   UNL     1       3.673   5.870  -0.845  1.00  0.00    -0.247 OA
HETATM    5  H   UNL     1       6.614   5.433  -0.238  1.00  0.00     0.170 HD
HETATM    6  H   UNL     1       3.707   3.735  -0.061  1.00  0.00     0.164 HD
ENDROOT
BRANCH   3   7
HETATM    7  C   UNL     1       5.530   2.839  -0.581  1.00  0.00     0.156 C 
BRANCH   7   8
HETATM    8  C   UNL     1       7.057   2.981  -0.395  1.00  0.00     0.142 C 
HETATM    9  C   UNL     1       7.702   1.596  -0.484  1.00  0.00     0.042 C 
BRANCH   8  10
HETATM   10  O   UNL     1       7.290   3.552   0.898  1.00  0.00    -0.343 OA
BRANCH  10  11
HETATM   11  C   UNL     1       8.521   4.050   1.226  1.00  0.00     0.086 A 
HETATM   12  C   UNL     1       8.748   4.317   2.586  1.00  0.00     0.044 A 
HETATM   13 BR   UNL     1       7.415   3.979   3.899  1.00  0.00    -0.048 Br
HETATM   14  C   UNL     1       9.971   4.837   3.020  1.00  0.00     0.022 A 
HETATM   15  C   UNL     1      10.978   5.104   2.097  1.00  0.00     0.002 A 
HETATM   16  C   UNL     1      10.760   4.855   0.744  1.00  0.00     0.003 A 
HETATM   17  C   UNL     1       9.537   4.333   0.309  1.00  0.00     0.038 A 
ENDBRANCH  10  11
ENDBRANCH   8  10
ENDBRANCH   7   8
ENDBRANCH   3   7
BRANCH   1  18
HETATM   18  C   UNL     1       6.309   6.942  -1.615  1.00  0.00     0.059 A 
HETATM   19  C   UNL     1       5.625   7.514  -2.699  1.00  0.00    -0.032 A 
HETATM   20  C   UNL     1       4.431   6.905  -3.377  1.00  0.00     0.050 C 
HETATM   21  C   UNL     1       6.090   8.742  -3.203  1.00  0.00     0.028 A 
HETATM   22  C   UNL     1       7.231   9.317  -2.667  1.00  0.00     0.117 A 
HETATM   23  N   UNL     1       7.945   8.762  -1.671  1.00  0.00    -0.271 NA
HETATM   24  C   UNL     1       7.465   7.598  -1.173  1.00  0.00     0.146 A 
ENDBRANCH   1  18
TORSDOF 5
