REMARK  9 active torsions:
REMARK  status: ('A' for Active; 'I' for Inactive)
REMARK    1  A    between atoms: O_2  and  C_3 
REMARK    2  A    between atoms: C_6  and  C_7 
REMARK    3  A    between atoms: C_13  and  C_14 
REMARK       I    between atoms: C_14  and  N_15 
REMARK    4  A    between atoms: N_15  and  N_16 
REMARK    5  A    between atoms: N_16  and  C_17 
REMARK    6  A    between atoms: C_17  and  N_18 
REMARK    7  A    between atoms: N_18  and  C_19 
REMARK    8  A    between atoms: C_19  and  C_20 
REMARK    9  A    between atoms: C_27  and  C_28 
ROOT
HETATM    1  C   UNL     1       5.910  -1.072   4.899  1.00  0.00     0.118 C 
HETATM    2  N   UNL     1       6.413  -2.437   4.764  1.00  0.00    -0.365 N 
HETATM    3  C   UNL     1       7.527  -2.831   5.433  1.00  0.00     0.138 A 
HETATM    4  N   UNL     1       8.400  -1.904   5.943  1.00  0.00    -0.240 N 
HETATM    5  N   UNL     1       9.416  -2.450   6.628  1.00  0.00    -0.181 NA
HETATM    6  C   UNL     1       9.204  -3.763   6.490  1.00  0.00     0.160 A 
HETATM    7  C   UNL     1       8.025  -4.075   5.773  1.00  0.00     0.098 A 
HETATM    8  C   UNL     1       8.181  -0.469   5.888  1.00  0.00     0.221 C 
HETATM    9  C   UNL     1       7.124  -0.128   4.816  1.00  0.00     0.066 C 
HETATM   10  H   UNL     1       5.722  -3.143   4.496  1.00  0.00     0.161 HD
ENDROOT
BRANCH   7  11
HETATM   11  C   UNL     1       7.429  -5.351   5.419  1.00  0.00     0.275 C 
HETATM   12  N   UNL     1       7.793  -6.498   6.111  1.00  0.00    -0.263 N 
HETATM   13  H   UNL     1       7.194  -7.281   5.859  1.00  0.00     0.190 HD
HETATM   14  O   UNL     1       6.607  -5.459   4.507  1.00  0.00    -0.266 OA
BRANCH  12  15
HETATM   15  N   UNL     1       8.173  -6.476   7.469  1.00  0.00    -0.274 N 
HETATM   16  H   UNL     1       9.170  -6.484   7.664  1.00  0.00     0.189 HD
BRANCH  15  17
HETATM   17  C   UNL     1       7.256  -6.668   8.472  1.00  0.00     0.186 C 
HETATM   18  S   UNL     1       5.593  -6.633   8.292  1.00  0.00    -0.040 SA
BRANCH  17  19
HETATM   19  N   UNL     1       7.748  -6.922   9.716  1.00  0.00    -0.360 N 
HETATM   20  H   UNL     1       7.035  -7.030  10.428  1.00  0.00     0.162 HD
BRANCH  19  21
HETATM   21  C   UNL     1       9.110  -7.235  10.104  1.00  0.00     0.187 C 
BRANCH  21  22
HETATM   22  C   UNL     1       9.893  -5.986  10.228  1.00  0.00     0.070 A 
HETATM   23  O   UNL     1      10.750  -5.700   9.204  1.00  0.00    -0.325 OA
HETATM   24  C   UNL     1      11.359  -4.526   9.517  1.00  0.00     0.142 A 
HETATM   25  C   UNL     1      10.902  -4.052  10.724  1.00  0.00     0.027 A 
HETATM   26  C   UNL     1       9.955  -4.995  11.187  1.00  0.00     0.036 A 
ENDBRANCH  21  22
ENDBRANCH  19  21
ENDBRANCH  17  19
ENDBRANCH  15  17
ENDBRANCH  12  15
ENDBRANCH   7  11
BRANCH   1  27
HETATM   27  C   UNL     1       5.054  -0.864   6.145  1.00  0.00    -0.035 A 
HETATM   28  C   UNL     1       4.691  -1.915   7.002  1.00  0.00     0.012 A 
HETATM   29  C   UNL     1       3.918  -1.682   8.143  1.00  0.00     0.037 A 
HETATM   30  C   UNL     1       3.483  -0.397   8.460  1.00  0.00     0.068 A 
HETATM   31  C   UNL     1       3.796   0.652   7.601  1.00  0.00     0.037 A 
HETATM   32  C   UNL     1       4.565   0.419   6.452  1.00  0.00     0.012 A 
BRANCH  30  33
HETATM   33  O   UNL     1       2.754  -0.303   9.612  1.00  0.00    -0.356 OA
HETATM   34  C   UNL     1       2.523   1.008  10.113  1.00  0.00     0.210 C 
ENDBRANCH  30  33
ENDBRANCH   1  27
BRANCH   8  35
HETATM   35  C   UNL     1       9.457   0.288   5.595  1.00  0.00     0.409 C 
HETATM   36  F   UNL     1      10.033  -0.088   4.431  1.00  0.00    -0.169 F 
HETATM   37  F   UNL     1       9.177   1.616   5.471  1.00  0.00    -0.169 F 
HETATM   38  F   UNL     1      10.380   0.197   6.575  1.00  0.00    -0.169 F 
ENDBRANCH   8  35
TORSDOF 9
