REMARK  5 active torsions:
REMARK  status: ('A' for Active; 'I' for Inactive)
REMARK    1  A    between atoms: C_2  and  O_3 
REMARK    2  A    between atoms: C_4  and  C_5 
REMARK    3  A    between atoms: C_5  and  O_6 
REMARK    4  A    between atoms: C_9  and  C_10 
REMARK    5  A    between atoms: C_22  and  O_23 
ROOT
HETATM    1  C   UNL     1       1.080   0.028  -0.461  1.00  0.00     0.047 C 
HETATM    2  C   UNL     1       2.471   0.194   0.183  1.00  0.00     0.073 C 
HETATM    3  C   UNL     1       3.179   1.468  -0.408  1.00  0.00     0.133 C 
HETATM    4  C   UNL     1       3.742   1.306  -1.861  1.00  0.00     0.074 C 
HETATM    5  C   UNL     1       3.951  -0.122  -2.252  1.00  0.00     0.030 A 
HETATM    6  C   UNL     1       3.764  -1.190  -1.402  1.00  0.00     0.042 A 
HETATM    7  N   UNL     1       4.014  -2.324  -2.120  1.00  0.00    -0.279 N 
HETATM    8  H   UNL     1       3.976  -3.292  -1.815  1.00  0.00     0.189 HD
HETATM    9  N   UNL     1       4.300  -2.066  -3.414  1.00  0.00    -0.149 NA
HETATM   10  C   UNL     1       4.246  -0.741  -3.468  1.00  0.00     0.190 A 
HETATM   11  C   UNL     1       3.303  -1.111  -0.001  1.00  0.00     0.097 C 
ENDROOT
BRANCH   4  12
HETATM   12  C   UNL     1       5.061   2.011  -2.160  1.00  0.00    -0.047 A 
HETATM   13  C   UNL     1       6.297   1.544  -1.667  1.00  0.00     0.027 A 
HETATM   14  C   UNL     1       7.478   2.235  -1.937  1.00  0.00     0.011 A 
HETATM   15 BR   UNL     1       9.118   1.588  -1.253  1.00  0.00    -0.051 Br
HETATM   16  C   UNL     1       7.457   3.400  -2.697  1.00  0.00     0.019 A 
HETATM   17  C   UNL     1       6.244   3.877  -3.191  1.00  0.00     0.002 A 
HETATM   18  C   UNL     1       5.056   3.190  -2.923  1.00  0.00     0.008 A 
ENDBRANCH   4  12
BRANCH   3  19
HETATM   19  C   UNL     1       4.209   1.990   0.574  1.00  0.00     0.266 C 
HETATM   20  O   UNL     1       4.844   1.289   1.354  1.00  0.00    -0.265 OA
BRANCH  19  21
HETATM   21  O   UNL     1       4.289   3.349   0.499  1.00  0.00    -0.326 OA
HETATM   22  C   UNL     1       5.244   3.936   1.383  1.00  0.00     0.213 C 
ENDBRANCH  19  21
ENDBRANCH   3  19
BRANCH   2  23
HETATM   23  O   UNL     1       2.199   0.370   1.584  1.00  0.00    -0.389 OA
HETATM   24  H   UNL     1       3.055   0.359   2.059  1.00  0.00     0.210 HD
ENDBRANCH   2  23
BRANCH  10  25
HETATM   25  O   UNL     1       4.448  -0.211  -4.669  1.00  0.00    -0.343 OA
HETATM   26  H   UNL     1       4.630  -0.974  -5.244  1.00  0.00     0.219 HD
ENDBRANCH  10  25
TORSDOF 5
