REMARK  9 active torsions:
REMARK  status: ('A' for Active; 'I' for Inactive)
REMARK    1  A    between atoms: C_4  and  C_5 
REMARK    2  A    between atoms: C_13  and  C_14 
REMARK    3  A    between atoms: C_14  and  N_15 
REMARK    4  A    between atoms: C_19  and  C_20 
REMARK       I    between atoms: C_20  and  N_21 
REMARK    5  A    between atoms: N_21  and  C_22 
REMARK    6  A    between atoms: C_22  and  C_23 
REMARK    7  A    between atoms: C_23  and  C_24 
REMARK    8  A    between atoms: C_24  and  N_25 
REMARK    9  A    between atoms: N_29  and  C_30 
ROOT
HETATM    1  N   UNL     1       1.614  -2.797   0.047  1.00  0.00    -0.066 N 
HETATM    2  H   UNL     1       1.182  -3.161  -0.816  1.00  0.00     0.280 HD
HETATM    3  C   UNL     1       1.546  -3.905   1.066  1.00  0.00     0.236 C 
HETATM    4  C   UNL     1       0.101  -4.146   1.499  1.00  0.00     0.042 C 
HETATM    5  C   UNL     1      -0.553  -2.877   2.048  1.00  0.00     0.081 C 
HETATM    6  C   UNL     1      -0.468  -1.764   1.003  1.00  0.00     0.042 C 
HETATM    7  C   UNL     1       0.935  -1.521   0.464  1.00  0.00     0.236 C 
ENDROOT
BRANCH   5   8
HETATM    8  C   UNL     1       0.120  -2.504   3.368  1.00  0.00     0.221 C 
HETATM    9  N   UNL     1      -0.409  -3.118   4.479  1.00  0.00    -0.361 N 
HETATM   10  H   UNL     1      -1.213  -3.731   4.367  1.00  0.00     0.162 HD
HETATM   11  O   UNL     1       1.130  -1.807   3.410  1.00  0.00    -0.273 OA
BRANCH   9  12
HETATM   12  C   UNL     1       0.298  -3.163   5.747  1.00  0.00     0.124 C 
BRANCH  12  13
HETATM   13  C   UNL     1       0.414  -1.807   6.452  1.00  0.00     0.047 C 
BRANCH  13  14
HETATM   14  C   UNL     1       1.318  -1.937   7.677  1.00  0.00     0.236 C 
BRANCH  14  15
HETATM   15  N   UNL     1       1.530  -0.613   8.379  1.00  0.00    -0.068 N 
HETATM   16  H   UNL     1       0.616  -0.170   8.545  1.00  0.00     0.280 HD
HETATM   17  C   UNL     1       2.162  -0.844   9.769  1.00  0.00     0.254 C 
HETATM   18  C   UNL     1       2.433   0.490  10.496  1.00  0.00     0.150 C 
HETATM   19  N   UNL     1       3.222   1.409   9.657  1.00  0.00    -0.378 N 
HETATM   20  C   UNL     1       2.602   1.692   8.348  1.00  0.00     0.150 C 
HETATM   21  C   UNL     1       2.380   0.379   7.565  1.00  0.00     0.254 C 
BRANCH  19  22
HETATM   22  C   UNL     1       4.618   1.418   9.716  1.00  0.00     0.031 A 
HETATM   23  C   UNL     1       5.373   0.405  10.325  1.00  0.00     0.053 A 
HETATM   24  C   UNL     1       6.774   0.450  10.349  1.00  0.00     0.036 A 
HETATM   25 CL   UNL     1       7.646  -0.848  11.070  1.00  0.00    -0.084 Cl
HETATM   26  C   UNL     1       7.462   1.517   9.790  1.00  0.00     0.024 A 
HETATM   27  C   UNL     1       6.741   2.554   9.212  1.00  0.00     0.004 A 
HETATM   28  C   UNL     1       5.341   2.502   9.182  1.00  0.00     0.029 A 
ENDBRANCH  19  22
ENDBRANCH  14  15
ENDBRANCH  13  14
ENDBRANCH  12  13
ENDBRANCH   9  12
ENDBRANCH   5   8
BRANCH   1  29
HETATM   29  C   UNL     1       3.053  -2.484  -0.359  1.00  0.00     0.296 C 
BRANCH  29  30
HETATM   30  C   UNL     1       3.773  -3.579  -1.054  1.00  0.00     0.092 A 
HETATM   31  C   UNL     1       5.128  -3.714  -1.267  1.00  0.00     0.078 A 
HETATM   32  C   UNL     1       6.325  -2.920  -0.935  1.00  0.00     0.079 C 
HETATM   33  O   UNL     1       5.327  -4.880  -1.942  1.00  0.00    -0.294 OA
HETATM   34  C   UNL     1       4.073  -5.402  -2.123  1.00  0.00     0.180 A 
HETATM   35  N   UNL     1       3.106  -4.657  -1.605  1.00  0.00    -0.224 NA
BRANCH  34  36
HETATM   36  C   UNL     1       4.001  -6.684  -2.818  1.00  0.00     0.019 A 
HETATM   37  C   UNL     1       2.763  -7.324  -2.973  1.00  0.00     0.039 A 
HETATM   38  C   UNL     1       2.682  -8.556  -3.624  1.00  0.00     0.035 A 
HETATM   39 CL   UNL     1       1.153  -9.325  -3.791  1.00  0.00    -0.084 Cl
HETATM   40  C   UNL     1       3.825  -9.167  -4.133  1.00  0.00     0.024 A 
HETATM   41  C   UNL     1       5.061  -8.542  -3.989  1.00  0.00     0.003 A 
HETATM   42  C   UNL     1       5.148  -7.309  -3.335  1.00  0.00     0.016 A 
ENDBRANCH  34  36
ENDBRANCH  29  30
ENDBRANCH   1  29
TORSDOF 9
