REMARK  7 active torsions:
REMARK  status: ('A' for Active; 'I' for Inactive)
REMARK       I    between atoms: C_2  and  N_3 
REMARK    1  A    between atoms: N_3  and  C_4 
REMARK    2  A    between atoms: C_7  and  N_8 
REMARK       I    between atoms: N_8  and  C_9 
REMARK    3  A    between atoms: C_9  and  C_10 
REMARK    4  A    between atoms: C_11  and  C_12 
REMARK    5  A    between atoms: C_13  and  O_14 
REMARK    6  A    between atoms: N_20  and  C_21 
REMARK    7  A    between atoms: C_24  and  O_25 
ROOT
HETATM    1  C   UNL     1       0.806   5.219   5.257  1.00  0.00     0.106 C 
HETATM    2  C   UNL     1       0.953   5.494   3.728  1.00  0.00     0.142 C 
HETATM    3  N   UNL     1      -0.090   6.431   3.253  1.00  0.00    -0.308 N 
HETATM    4  C   UNL     1      -0.071   7.666   3.920  1.00  0.00     0.225 C 
HETATM    5  O   UNL     1       0.091   8.755   3.382  1.00  0.00    -0.273 OA
HETATM    6  C   UNL     1      -0.376   7.506   5.393  1.00  0.00     0.104 C 
HETATM    7  C   UNL     1       0.575   6.521   6.051  1.00  0.00     0.026 C 
ENDROOT
BRANCH   1   8
HETATM    8  C   UNL     1      -0.232   4.144   5.581  1.00  0.00     0.228 C 
HETATM    9  N   UNL     1       0.313   2.875   5.518  1.00  0.00    -0.327 N 
HETATM   10  H   UNL     1       1.321   2.832   5.397  1.00  0.00     0.169 HD
HETATM   11  O   UNL     1      -1.396   4.418   5.849  1.00  0.00    -0.273 OA
BRANCH   9  12
HETATM   12  C   UNL     1      -0.330   1.627   5.525  1.00  0.00     0.034 A 
HETATM   13  C   UNL     1      -1.709   1.449   5.527  1.00  0.00     0.032 A 
HETATM   14  C   UNL     1      -2.255   0.158   5.438  1.00  0.00     0.032 A 
HETATM   15  C   UNL     1      -1.428  -0.965   5.355  1.00  0.00     0.034 A 
HETATM   16  C   UNL     1      -0.044  -0.783   5.390  1.00  0.00     0.032 A 
HETATM   17  C   UNL     1       0.499   0.501   5.467  1.00  0.00     0.032 A 
BRANCH  15  18
HETATM   18  N   UNL     1      -1.890  -2.289   5.222  1.00  0.00    -0.328 N 
HETATM   19  C   UNL     1      -3.195  -2.716   5.069  1.00  0.00     0.218 C 
HETATM   20  C   UNL     1      -3.282  -4.213   4.898  1.00  0.00     0.117 C 
HETATM   21  O   UNL     1      -4.201  -2.018   5.024  1.00  0.00    -0.274 OA
HETATM   22  H   UNL     1      -1.175  -3.004   5.186  1.00  0.00     0.169 HD
ENDBRANCH  15  18
ENDBRANCH   9  12
ENDBRANCH   1   8
BRANCH   2  23
HETATM   23  C   UNL     1       1.400   4.376   2.759  1.00  0.00    -0.001 C 
HETATM   24  C   UNL     1       2.302   3.353   3.118  1.00  0.00     0.076 C 
HETATM   25  C   UNL     1       2.612   2.303   2.238  1.00  0.00     0.037 C 
HETATM   26  C   UNL     1       2.119   2.305   0.940  1.00  0.00     0.003 C 
HETATM   27  C   UNL     1       1.346   3.373   0.511  1.00  0.00     0.001 C 
HETATM   28  C   UNL     1       1.018   4.402   1.400  1.00  0.00     0.012 C 
BRANCH  24  29
HETATM   29  O   UNL     1       2.854   3.355   4.375  1.00  0.00    -0.355 OA
HETATM   30  C   UNL     1       4.283   3.274   4.346  1.00  0.00     0.210 C 
ENDBRANCH  24  29
ENDBRANCH   2  23
BRANCH   3  31
HETATM   31  C   UNL     1      -1.361   6.060   2.684  1.00  0.00     0.038 A 
HETATM   32  C   UNL     1      -2.147   7.056   2.079  1.00  0.00     0.032 A 
HETATM   33  C   UNL     1      -3.376   6.756   1.484  1.00  0.00     0.039 A 
HETATM   34  C   UNL     1      -3.862   5.453   1.484  1.00  0.00     0.068 A 
HETATM   35  C   UNL     1      -3.101   4.453   2.082  1.00  0.00     0.039 A 
HETATM   36  C   UNL     1      -1.858   4.753   2.668  1.00  0.00     0.032 A 
BRANCH  34  37
HETATM   37  O   UNL     1      -5.071   5.297   0.866  1.00  0.00    -0.356 OA
HETATM   38  C   UNL     1      -5.634   3.992   0.876  1.00  0.00     0.210 C 
ENDBRANCH  34  37
ENDBRANCH   3  31
TORSDOF 7
