REMARK  7 active torsions:
REMARK  status: ('A' for Active; 'I' for Inactive)
REMARK    1  A    between atoms: C_4  and  N_5 
REMARK    2  A    between atoms: C_6  and  S_7 
REMARK    3  A    between atoms: S_7  and  C_8 
REMARK    4  A    between atoms: C_8  and  C_9 
REMARK       I    between atoms: C_9  and  N_10 
REMARK    5  A    between atoms: C_12  and  C_13 
REMARK    6  A    between atoms: C_13  and  N_14 
REMARK       I    between atoms: N_14  and  C_15 
REMARK       I    between atoms: C_15  and  N_16 
REMARK    7  A    between atoms: N_16  and  C_17 
ROOT
HETATM    1  C   UNL     1       1.210   5.469   1.391  1.00  0.00     0.229 C 
HETATM    2  N   UNL     1       0.437   4.478   0.757  1.00  0.00    -0.351 N 
HETATM    3  C   UNL     1      -1.012   4.696   0.803  1.00  0.00     0.132 C 
HETATM    4  C   UNL     1      -1.755   3.880  -0.257  1.00  0.00     0.021 C 
HETATM    5  C   UNL     1      -1.440   2.395  -0.046  1.00  0.00     0.009 C 
HETATM    6  C   UNL     1       0.058   2.179  -0.199  1.00  0.00     0.020 C 
HETATM    7  C   UNL     1       0.879   3.083   0.716  1.00  0.00     0.126 C 
HETATM    8  O   UNL     1       0.661   6.421   1.959  1.00  0.00    -0.273 OA
ENDROOT
BRANCH   1   9
HETATM    9  C   UNL     1       2.720   5.491   1.184  1.00  0.00     0.185 C 
BRANCH   9  10
HETATM   10  S   UNL     1       3.684   4.188   1.966  1.00  0.00    -0.082 SA
BRANCH  10  11
HETATM   11  C   UNL     1       3.199   4.264   3.625  1.00  0.00     0.173 A 
HETATM   12  N   UNL     1       2.967   3.150   4.429  1.00  0.00    -0.299 N 
HETATM   13  C   UNL     1       2.517   3.668   5.629  1.00  0.00     0.118 A 
HETATM   14  C   UNL     1       2.497   5.033   5.483  1.00  0.00     0.137 A 
HETATM   15  N   UNL     1       2.922   5.392   4.238  1.00  0.00    -0.235 NA
BRANCH  12  16
HETATM   16  C   UNL     1       3.155   1.762   4.140  1.00  0.00     0.047 A 
HETATM   17  C   UNL     1       4.308   1.376   3.428  1.00  0.00     0.037 A 
HETATM   18  C   UNL     1       4.546   0.037   3.093  1.00  0.00    -0.060 A 
HETATM   19  C   UNL     1       5.756  -0.357   2.297  1.00  0.00     0.048 C 
HETATM   20  C   UNL     1       3.639  -0.934   3.511  1.00  0.00     0.007 A 
HETATM   21  C   UNL     1       2.505  -0.571   4.239  1.00  0.00     0.009 A 
HETATM   22  C   UNL     1       2.231   0.775   4.548  1.00  0.00    -0.035 A 
HETATM   23  C   UNL     1       0.938   1.056   5.266  1.00  0.00     0.050 C 
ENDBRANCH  12  16
ENDBRANCH  10  11
ENDBRANCH   9  10
ENDBRANCH   1   9
BRANCH   4  24
HETATM   24  C   UNL     1      -3.260   4.160  -0.215  1.00  0.00     0.130 C 
BRANCH  24  25
HETATM   25  N   UNL     1      -3.946   3.554  -1.343  1.00  0.00    -0.342 N 
HETATM   26  C   UNL     1      -5.278   3.458  -1.615  1.00  0.00     0.320 C 
HETATM   27  N   UNL     1      -6.118   3.928  -0.645  1.00  0.00    -0.309 N 
HETATM   28  O   UNL     1      -5.601   2.966  -2.691  1.00  0.00    -0.247 OA
HETATM   29  H   UNL     1      -5.680   4.331   0.165  1.00  0.00     0.170 HD
HETATM   30  H   UNL     1      -3.395   3.265  -2.144  1.00  0.00     0.164 HD
BRANCH  27  31
HETATM   31  C   UNL     1      -7.529   3.937  -0.657  1.00  0.00     0.039 A 
HETATM   32  C   UNL     1      -8.305   3.430  -1.700  1.00  0.00     0.071 A 
HETATM   33  C   UNL     1      -9.694   3.483  -1.618  1.00  0.00     0.118 A 
HETATM   34  F   UNL     1     -10.433   2.996  -2.624  1.00  0.00    -0.206 F 
HETATM   35  C   UNL     1     -10.333   4.031  -0.512  1.00  0.00     0.042 A 
HETATM   36  C   UNL     1      -9.570   4.539   0.534  1.00  0.00     0.005 A 
HETATM   37  C   UNL     1      -8.174   4.491   0.460  1.00  0.00     0.030 A 
ENDBRANCH  27  31
ENDBRANCH  24  25
ENDBRANCH   4  24
TORSDOF 7
