REMARK  7 active torsions:
REMARK  status: ('A' for Active; 'I' for Inactive)
REMARK    1  A    between atoms: C_2  and  N_3 
REMARK    2  A    between atoms: C_2  and  C_26 
REMARK       I    between atoms: N_3  and  C_4 
REMARK    3  A    between atoms: C_4  and  C_5 
REMARK    4  A    between atoms: C_8  and  C_9 
REMARK       I    between atoms: C_9  and  N_10 
REMARK    5  A    between atoms: N_10  and  C_11 
REMARK    6  A    between atoms: N_20  and  C_21 
REMARK    7  A    between atoms: C_29  and  O_30 
ROOT
HETATM    1  C   UNL     1       2.078   2.088   1.581  1.00  0.00     0.098 A 
HETATM    2  C   UNL     1       2.498   3.521   1.670  1.00  0.00     0.206 A 
HETATM    3  O   UNL     1       3.618   3.827   2.085  1.00  0.00    -0.286 OA
HETATM    4  C   UNL     1       1.518   4.575   1.266  1.00  0.00     0.098 A 
HETATM    5  C   UNL     1       0.356   4.154   0.737  1.00  0.00     0.112 A 
HETATM    6  N   UNL     1       0.039   2.825   0.544  1.00  0.00    -0.360 N 
HETATM    7  C   UNL     1       0.878   1.842   1.027  1.00  0.00     0.112 A 
ENDROOT
BRANCH   1   8
HETATM    8  C   UNL     1       2.877   0.937   2.086  1.00  0.00     0.257 C 
HETATM    9  N   UNL     1       4.131   1.250   2.540  1.00  0.00    -0.348 N 
HETATM   10  H   UNL     1       4.424   2.224   2.520  1.00  0.00     0.163 HD
HETATM   11  O   UNL     1       2.423  -0.204   2.104  1.00  0.00    -0.267 OA
BRANCH   9  12
HETATM   12  C   UNL     1       4.992   0.286   3.203  1.00  0.00     0.114 C 
HETATM   13  C   UNL     1       4.573   0.091   4.662  1.00  0.00     0.037 C 
BRANCH  12  14
HETATM   14  C   UNL     1       6.446   0.711   3.105  1.00  0.00    -0.036 A 
HETATM   15  C   UNL     1       7.392  -0.159   2.548  1.00  0.00     0.012 A 
HETATM   16  C   UNL     1       8.736   0.214   2.456  1.00  0.00     0.037 A 
HETATM   17  C   UNL     1       9.162   1.463   2.910  1.00  0.00     0.068 A 
HETATM   18  C   UNL     1       8.231   2.335   3.472  1.00  0.00     0.037 A 
HETATM   19  C   UNL     1       6.886   1.961   3.572  1.00  0.00     0.012 A 
BRANCH  17  20
HETATM   20  O   UNL     1      10.500   1.703   2.755  1.00  0.00    -0.356 OA
HETATM   21  C   UNL     1      10.966   2.997   3.115  1.00  0.00     0.210 C 
ENDBRANCH  17  20
ENDBRANCH  12  14
ENDBRANCH   9  12
ENDBRANCH   1   8
BRANCH   4  22
HETATM   22  C   UNL     1       1.736   6.040   1.427  1.00  0.00     0.257 C 
HETATM   23  N   UNL     1       3.038   6.411   1.657  1.00  0.00    -0.352 N 
HETATM   24  H   UNL     1       3.717   5.664   1.799  1.00  0.00     0.163 HD
HETATM   25  O   UNL     1       0.801   6.832   1.360  1.00  0.00    -0.267 OA
BRANCH  23  26
HETATM   26  C   UNL     1       3.483   7.767   1.977  1.00  0.00     0.084 C 
HETATM   27  C   UNL     1       3.164   8.759   0.852  1.00  0.00     0.025 C 
HETATM   28  C   UNL     1       3.682  10.180   1.080  1.00  0.00     0.002 C 
HETATM   29  C   UNL     1       2.897  10.931   2.150  1.00  0.00     0.000 C 
HETATM   30  C   UNL     1       3.389  10.725   3.579  1.00  0.00     0.000 C 
HETATM   31  C   UNL     1       3.819   9.316   3.973  1.00  0.00     0.002 C 
HETATM   32  C   UNL     1       2.989   8.185   3.371  1.00  0.00     0.025 C 
ENDBRANCH  23  26
ENDBRANCH   4  22
BRANCH   6  33
HETATM   33  C   UNL     1      -1.292   2.463   0.041  1.00  0.00     0.089 A 
HETATM   34  C   UNL     1      -1.775   2.926  -1.310  1.00  0.00     0.028 A 
HETATM   35  C   UNL     1      -1.475   1.476  -1.083  1.00  0.00     0.028 A 
ENDBRANCH   6  33
TORSDOF 7
