REMARK  6 active torsions:
REMARK  status: ('A' for Active; 'I' for Inactive)
REMARK    1  A    between atoms: C_6  and  S_7 
REMARK    2  A    between atoms: S_7  and  C_8 
REMARK    3  A    between atoms: C_8  and  C_9 
REMARK    4  A    between atoms: C_9  and  C_10 
REMARK    5  A    between atoms: C_19  and  N_20 
REMARK    6  A    between atoms: N_20  and  C_21 
ROOT
HETATM    1  C   UNL     1      -2.429   0.703   0.029  1.00  0.00     0.001 A 
HETATM    2  C   UNL     1      -1.222   1.380   0.189  1.00  0.00     0.018 A 
HETATM    3  C   UNL     1       0.018   0.693   0.099  1.00  0.00     0.039 A 
HETATM    4  C   UNL     1       0.021  -0.686  -0.137  1.00  0.00     0.073 A 
HETATM    5  N   UNL     1       1.143  -1.406  -0.211  1.00  0.00    -0.222 NA
HETATM    6  C   UNL     1       2.301  -0.755  -0.043  1.00  0.00     0.191 A 
HETATM    7  N   UNL     1       2.417   0.558   0.180  1.00  0.00    -0.204 NA
HETATM    8  C   UNL     1       1.288   1.284   0.243  1.00  0.00     0.143 A 
HETATM    9  C   UNL     1      -1.196  -1.339  -0.296  1.00  0.00     0.032 A 
HETATM   10  C   UNL     1      -2.415  -0.661  -0.219  1.00  0.00     0.002 A 
ENDROOT
BRANCH   6  11
HETATM   11  S   UNL     1       3.816  -1.677  -0.120  1.00  0.00    -0.082 SA
BRANCH  11  12
HETATM   12  C   UNL     1       3.146  -3.363  -0.183  1.00  0.00     0.166 C 
BRANCH  12  13
HETATM   13  C   UNL     1       4.234  -4.422  -0.216  1.00  0.00     0.169 C 
HETATM   14  O   UNL     1       5.435  -4.177  -0.314  1.00  0.00    -0.291 OA
BRANCH  13  15
HETATM   15  C   UNL     1       3.812  -5.859  -0.139  1.00  0.00     0.011 A 
HETATM   16  C   UNL     1       2.466  -6.251  -0.126  1.00  0.00     0.017 A 
HETATM   17  C   UNL     1       2.128  -7.607  -0.051  1.00  0.00     0.025 A 
HETATM   18  C   UNL     1       3.130  -8.575   0.007  1.00  0.00     0.034 A 
HETATM   19 CL   UNL     1       2.706 -10.239   0.098  1.00  0.00    -0.084 Cl
HETATM   20  C   UNL     1       4.470  -8.200  -0.009  1.00  0.00     0.025 A 
HETATM   21  C   UNL     1       4.810  -6.845  -0.082  1.00  0.00     0.017 A 
ENDBRANCH  13  15
ENDBRANCH  12  13
ENDBRANCH  11  12
ENDBRANCH   6  11
BRANCH   8  22
HETATM   22  N   UNL     1       1.366   2.686   0.457  1.00  0.00    -0.340 N 
HETATM   23  H   UNL     1       0.839   3.163  -0.268  1.00  0.00     0.167 HD
BRANCH  22  24
HETATM   24  C   UNL     1       2.456   3.471   0.900  1.00  0.00     0.036 A 
HETATM   25  C   UNL     1       2.407   4.861   0.689  1.00  0.00     0.069 A 
HETATM   26  C   UNL     1       3.421   5.648   1.198  1.00  0.00     0.107 A 
HETATM   27  C   UNL     1       4.459   5.114   1.919  1.00  0.00     0.105 A 
HETATM   28  O   UNL     1       3.516   6.999   1.072  1.00  0.00    -0.323 OA
HETATM   29  O   UNL     1       5.343   6.058   2.336  1.00  0.00    -0.323 OA
HETATM   30  C   UNL     1       4.535   3.765   2.176  1.00  0.00     0.042 A 
HETATM   31  C   UNL     1       4.738   7.251   1.797  1.00  0.00     0.352 A 
HETATM   32  C   UNL     1       3.514   2.946   1.674  1.00  0.00     0.032 A 
ENDBRANCH  22  24
ENDBRANCH   8  22
TORSDOF 6
