REMARK  6 active torsions:
REMARK  status: ('A' for Active; 'I' for Inactive)
REMARK    1  A    between atoms: C_2  and  O_3 
REMARK    2  A    between atoms: C_2  and  C_4 
REMARK    3  A    between atoms: C_7  and  N_8 
REMARK       I    between atoms: N_8  and  C_9 
REMARK    4  A    between atoms: C_9  and  C_10 
REMARK    5  A    between atoms: C_13  and  C_14 
REMARK    6  A    between atoms: C_19  and  C_20 
ROOT
HETATM    1  C   UNL     1       2.739  -6.174  -1.205  1.00  0.00     0.096 A 
HETATM    2  C   UNL     1       2.463  -5.226  -0.237  1.00  0.00     0.138 A 
HETATM    3  N   UNL     1       2.458  -5.899   0.963  1.00  0.00    -0.240 N 
HETATM    4  C   UNL     1       2.149  -5.289   2.245  1.00  0.00     0.221 C 
HETATM    5  C   UNL     1       2.216  -3.753   2.140  1.00  0.00     0.068 C 
HETATM    6  C   UNL     1       1.548  -3.244   0.858  1.00  0.00     0.143 C 
HETATM    7  N   UNL     1       2.191  -3.890  -0.301  1.00  0.00    -0.363 N 
HETATM    8  N   UNL     1       2.552  -7.230   0.823  1.00  0.00    -0.181 NA
HETATM    9  C   UNL     1       2.753  -7.393  -0.488  1.00  0.00     0.160 A 
HETATM   10  H   UNL     1       1.810  -3.527  -1.178  1.00  0.00     0.162 HD
ENDROOT
BRANCH   1  11
HETATM   11  C   UNL     1       2.907  -5.997  -2.639  1.00  0.00     0.261 C 
HETATM   12  N   UNL     1       3.297  -4.716  -2.979  1.00  0.00    -0.323 N 
HETATM   13  H   UNL     1       3.560  -4.122  -2.199  1.00  0.00     0.169 HD
HETATM   14  O   UNL     1       2.724  -6.929  -3.411  1.00  0.00    -0.267 OA
BRANCH  12  15
HETATM   15  C   UNL     1       3.399  -4.149  -4.261  1.00  0.00     0.035 A 
HETATM   16  C   UNL     1       3.028  -4.804  -5.435  1.00  0.00     0.030 A 
HETATM   17  C   UNL     1       3.111  -4.148  -6.669  1.00  0.00     0.012 A 
HETATM   18  C   UNL     1       3.570  -2.826  -6.753  1.00  0.00    -0.030 A 
HETATM   19  C   UNL     1       3.947  -2.176  -5.572  1.00  0.00     0.012 A 
HETATM   20  C   UNL     1       3.864  -2.832  -4.340  1.00  0.00     0.030 A 
BRANCH  18  21
HETATM   21  C   UNL     1       3.601  -2.119  -8.090  1.00  0.00     0.147 C 
HETATM   22  C   UNL     1       2.301  -1.366  -8.346  1.00  0.00     0.044 C 
BRANCH  21  23
HETATM   23  O   UNL     1       4.688  -1.196  -8.130  1.00  0.00    -0.391 OA
HETATM   24  H   UNL     1       4.723  -0.837  -9.032  1.00  0.00     0.210 HD
ENDBRANCH  21  23
ENDBRANCH  18  21
ENDBRANCH  12  15
ENDBRANCH   1  11
BRANCH   4  25
HETATM   25  C   UNL     1       3.093  -5.761   3.330  1.00  0.00     0.409 C 
HETATM   26  F   UNL     1       4.387  -5.503   3.032  1.00  0.00    -0.169 F 
HETATM   27  F   UNL     1       2.825  -5.097   4.488  1.00  0.00    -0.169 F 
HETATM   28  F   UNL     1       2.978  -7.073   3.616  1.00  0.00    -0.169 F 
ENDBRANCH   4  25
BRANCH   6  29
HETATM   29  C   UNL     1       0.057  -3.386   0.912  1.00  0.00     0.075 A 
HETATM   30  O   UNL     1      -0.593  -2.568   1.791  1.00  0.00    -0.325 OA
HETATM   31  C   UNL     1      -1.918  -2.845   1.690  1.00  0.00     0.142 A 
HETATM   32  C   UNL     1      -2.133  -3.832   0.758  1.00  0.00     0.027 A 
HETATM   33  C   UNL     1      -0.858  -4.183   0.253  1.00  0.00     0.037 A 
ENDBRANCH   6  29
TORSDOF 6
