REMARK  5 active torsions:
REMARK  status: ('A' for Active; 'I' for Inactive)
REMARK    1  A    between atoms: C_3  and  N_4 
REMARK       I    between atoms: N_4  and  C_5 
REMARK    2  A    between atoms: C_5  and  C_6 
REMARK    3  A    between atoms: C_6  and  C_7 
REMARK    4  A    between atoms: C_16  and  O_17 
REMARK    5  A    between atoms: O_17  and  C_18 
ROOT
HETATM    1  C   UNL     1       3.698  -3.739  -0.457  1.00  0.00     0.190 A 
HETATM    2  N   UNL     1       2.476  -3.606  -1.033  1.00  0.00    -0.235 NA
HETATM    3  C   UNL     1       1.837  -4.737  -1.403  1.00  0.00     0.119 A 
HETATM    4  C   UNL     1       2.368  -6.006  -1.246  1.00  0.00     0.021 A 
HETATM    5  C   UNL     1       3.633  -6.123  -0.677  1.00  0.00     0.028 A 
HETATM    6  C   UNL     1       4.318  -4.972  -0.275  1.00  0.00     0.097 A 
HETATM    7  C   UNL     1       5.625  -5.076   0.292  1.00  0.00     0.104 C 
HETATM    8  N   UNL     1       6.689  -5.193   0.741  1.00  0.00    -0.191 NA
ENDROOT
BRANCH   1   9
HETATM    9  O   UNL     1       4.414  -2.613  -0.060  1.00  0.00    -0.291 OA
BRANCH   9  10
HETATM   10  C   UNL     1       3.826  -1.372  -0.080  1.00  0.00     0.078 A 
HETATM   11  C   UNL     1       4.627  -0.326  -0.525  1.00  0.00     0.039 A 
HETATM   12  C   UNL     1       4.146   0.985  -0.496  1.00  0.00     0.033 A 
HETATM   13  C   UNL     1       2.864   1.282  -0.003  1.00  0.00     0.040 A 
HETATM   14  C   UNL     1       2.029   0.222   0.397  1.00  0.00    -0.033 A 
HETATM   15  C   UNL     1       0.581   0.366   0.776  1.00  0.00     0.050 C 
HETATM   16  C   UNL     1       2.550  -1.093   0.405  1.00  0.00     0.046 A 
BRANCH  13  17
HETATM   17  N   UNL     1       2.524   2.655  -0.001  1.00  0.00    -0.326 N 
HETATM   18  C   UNL     1       1.692   3.311   0.890  1.00  0.00     0.227 C 
HETATM   19  O   UNL     1       1.195   2.827   1.905  1.00  0.00    -0.273 OA
HETATM   20  H   UNL     1       3.158   3.258  -0.512  1.00  0.00     0.169 HD
BRANCH  18  21
HETATM   21  C   UNL     1       1.454   4.777   0.521  1.00  0.00     0.159 C 
BRANCH  21  22
HETATM   22  C   UNL     1       1.817   5.705   1.639  1.00  0.00     0.017 A 
HETATM   23  N   UNL     1       1.646   5.366   2.964  1.00  0.00    -0.369 N 
HETATM   24  H   UNL     1       1.301   4.465   3.286  1.00  0.00     0.165 HD
HETATM   25  C   UNL     1       2.033   6.408   3.762  1.00  0.00     0.088 A 
HETATM   26  C   UNL     1       2.445   7.437   2.947  1.00  0.00     0.019 A 
HETATM   27  C   UNL     1       2.309   6.997   1.609  1.00  0.00     0.027 A 
ENDBRANCH  21  22
ENDBRANCH  18  21
ENDBRANCH  13  17
ENDBRANCH   9  10
ENDBRANCH   1   9
TORSDOF 5
