REMARK  7 active torsions:
REMARK  status: ('A' for Active; 'I' for Inactive)
REMARK       I    between atoms: C_2  and  N_3 
REMARK    1  A    between atoms: N_3  and  C_4 
REMARK    2  A    between atoms: C_7  and  N_8 
REMARK       I    between atoms: N_8  and  C_9 
REMARK    3  A    between atoms: C_9  and  C_10 
REMARK    4  A    between atoms: C_11  and  C_12 
REMARK    5  A    between atoms: C_13  and  O_14 
REMARK    6  A    between atoms: N_20  and  C_21 
REMARK    7  A    between atoms: C_24  and  O_25 
ROOT
HETATM    1  C   UNL     1       2.504   7.387   1.321  1.00  0.00     0.106 C 
HETATM    2  C   UNL     1       2.806   6.247   0.329  1.00  0.00     0.142 C 
HETATM    3  N   UNL     1       1.766   6.244  -0.737  1.00  0.00    -0.308 N 
HETATM    4  C   UNL     1       1.437   7.423  -1.411  1.00  0.00     0.225 C 
HETATM    5  O   UNL     1       0.940   7.493  -2.536  1.00  0.00    -0.273 OA
HETATM    6  C   UNL     1       1.500   8.699  -0.579  1.00  0.00     0.104 C 
HETATM    7  C   UNL     1       2.437   8.732   0.614  1.00  0.00     0.026 C 
ENDROOT
BRANCH   1   8
HETATM    8  C   UNL     1       3.460   7.483   2.494  1.00  0.00     0.228 C 
HETATM    9  N   UNL     1       3.061   7.790   3.760  1.00  0.00    -0.327 N 
HETATM   10  H   UNL     1       3.879   7.763   4.362  1.00  0.00     0.169 HD
HETATM   11  O   UNL     1       4.679   7.351   2.345  1.00  0.00    -0.273 OA
BRANCH   9  12
HETATM   12  C   UNL     1       1.843   8.020   4.421  1.00  0.00     0.034 A 
HETATM   13  C   UNL     1       0.599   8.223   3.834  1.00  0.00     0.032 A 
HETATM   14  C   UNL     1      -0.561   8.336   4.620  1.00  0.00     0.032 A 
HETATM   15  C   UNL     1      -0.494   8.282   6.011  1.00  0.00     0.034 A 
HETATM   16  C   UNL     1       0.761   8.165   6.608  1.00  0.00     0.032 A 
HETATM   17  C   UNL     1       1.912   8.036   5.822  1.00  0.00     0.032 A 
BRANCH  15  18
HETATM   18  N   UNL     1      -1.614   8.327   6.864  1.00  0.00    -0.328 N 
HETATM   19  C   UNL     1      -2.948   8.327   6.498  1.00  0.00     0.218 C 
HETATM   20  C   UNL     1      -3.878   8.300   7.687  1.00  0.00     0.117 C 
HETATM   21  O   UNL     1      -3.397   8.308   5.357  1.00  0.00    -0.274 OA
HETATM   22  H   UNL     1      -1.415   8.291   7.856  1.00  0.00     0.169 HD
ENDBRANCH  15  18
ENDBRANCH   9  12
ENDBRANCH   1   8
BRANCH   2  23
HETATM   23  C   UNL     1       4.219   6.158  -0.276  1.00  0.00    -0.001 A 
HETATM   24  C   UNL     1       5.095   5.110   0.101  1.00  0.00     0.076 A 
HETATM   25  C   UNL     1       6.403   5.069  -0.403  1.00  0.00     0.037 A 
HETATM   26  C   UNL     1       6.853   6.039  -1.297  1.00  0.00     0.003 A 
HETATM   27  C   UNL     1       5.995   7.051  -1.705  1.00  0.00     0.001 A 
HETATM   28  C   UNL     1       4.692   7.105  -1.206  1.00  0.00     0.012 A 
BRANCH  24  29
HETATM   29  O   UNL     1       4.598   4.181   0.983  1.00  0.00    -0.355 OA
HETATM   30  C   UNL     1       5.366   3.003   1.193  1.00  0.00     0.210 C 
ENDBRANCH  24  29
ENDBRANCH   2  23
BRANCH   3  31
HETATM   31  C   UNL     1       1.026   5.043  -0.995  1.00  0.00     0.038 A 
HETATM   32  C   UNL     1       0.642   4.679  -2.289  1.00  0.00     0.032 A 
HETATM   33  C   UNL     1      -0.206   3.586  -2.509  1.00  0.00     0.039 A 
HETATM   34  C   UNL     1      -0.713   2.854  -1.438  1.00  0.00     0.068 A 
HETATM   35  C   UNL     1      -0.312   3.180  -0.146  1.00  0.00     0.039 A 
HETATM   36  C   UNL     1       0.555   4.261   0.071  1.00  0.00     0.032 A 
BRANCH  34  37
HETATM   37  O   UNL     1      -1.577   1.848  -1.769  1.00  0.00    -0.356 OA
HETATM   38  C   UNL     1      -2.475   1.440  -0.741  1.00  0.00     0.210 C 
ENDBRANCH  34  37
ENDBRANCH   3  31
TORSDOF 7
