REMARK  3 active torsions:
REMARK  status: ('A' for Active; 'I' for Inactive)
REMARK    1  A    between atoms: C_8  and  C_9 
REMARK    2  A    between atoms: C_10  and  O_11 
REMARK    3  A    between atoms: C_24  and  N_25 
ROOT
HETATM    1  C   UNL     1       5.904  -1.621   1.323  1.00  0.00     0.070 C 
HETATM    2  C   UNL     1       5.399  -2.765   0.534  1.00  0.00     0.035 A 
HETATM    3  N   UNL     1       6.219  -3.773   0.078  1.00  0.00    -0.280 N 
HETATM    4  H   UNL     1       7.220  -3.873   0.211  1.00  0.00     0.189 HD
HETATM    5  N   UNL     1       5.576  -4.713  -0.645  1.00  0.00    -0.148 NA
HETATM    6  C   UNL     1       4.323  -4.279  -0.628  1.00  0.00     0.199 A 
HETATM    7  C   UNL     1       4.132  -3.102   0.102  1.00  0.00     0.034 A 
HETATM    8  C   UNL     1       2.777  -2.493   0.218  1.00  0.00     0.107 C 
HETATM    9  C   UNL     1       1.830  -3.138  -0.778  1.00  0.00     0.067 C 
HETATM   10  C   UNL     1       0.603  -2.339  -1.186  1.00  0.00     0.020 C 
HETATM   11  N   UNL     1      -0.415  -1.676  -1.524  1.00  0.00    -0.096 N 
HETATM   12  C   UNL     1       2.126  -4.280  -1.455  1.00  0.00     0.139 C 
HETATM   13  O   UNL     1       3.358  -4.937  -1.298  1.00  0.00    -0.277 OA
ENDROOT
BRANCH   8  14
HETATM   14  C   UNL     1       2.340  -2.712   1.662  1.00  0.00    -0.010 A 
HETATM   15  C   UNL     1       1.938  -1.629   2.457  1.00  0.00     0.076 A 
HETATM   16  C   UNL     1       1.477  -1.833   3.764  1.00  0.00     0.049 A 
HETATM   17  C   UNL     1       1.449  -3.119   4.328  1.00  0.00    -0.023 A 
HETATM   18  C   UNL     1       1.872  -4.218   3.553  1.00  0.00    -0.025 A 
HETATM   19  C   UNL     1       1.003  -3.341   5.641  1.00  0.00     0.012 A 
HETATM   20  C   UNL     1       2.294  -4.004   2.232  1.00  0.00     0.023 A 
HETATM   21  C   UNL     1       1.856  -5.506   4.113  1.00  0.00     0.012 A 
HETATM   22  C   UNL     1       1.420  -5.708   5.422  1.00  0.00     0.001 A 
HETATM   23  C   UNL     1       0.989  -4.627   6.184  1.00  0.00     0.001 A 
BRANCH  15  24
HETATM   24  O   UNL     1       1.936  -0.383   1.884  1.00  0.00    -0.355 OA
HETATM   25  C   UNL     1       2.612   0.595   2.671  1.00  0.00     0.210 C 
ENDBRANCH  15  24
ENDBRANCH   8  14
BRANCH  12  26
HETATM   26  N   UNL     1       1.313  -4.893  -2.383  1.00  0.00    -0.282 NA
HETATM   27  H   UNL     1       0.631  -4.299  -2.847  1.00  0.00     0.126 HD
HETATM   28  H   UNL     1       1.843  -5.475  -3.028  1.00  0.00     0.126 HD
ENDBRANCH  12  26
TORSDOF 3
