REMARK  5 active torsions:
REMARK  status: ('A' for Active; 'I' for Inactive)
REMARK    1  A    between atoms: C_5  and  C_6 
REMARK    2  A    between atoms: C_10  and  C_11 
REMARK       I    between atoms: C_11  and  N_12 
REMARK    3  A    between atoms: N_12  and  C_13 
REMARK    4  A    between atoms: C_13  and  C_14 
REMARK    5  A    between atoms: C_14  and  O_15 
ROOT
HETATM    1  C   UNL     1       6.713  -0.047  -0.586  1.00  0.00     0.068 A 
HETATM    2  N   UNL     1       7.288   1.149  -0.861  1.00  0.00    -0.248 NA
HETATM    3  C   UNL     1       8.617   1.232  -1.044  1.00  0.00     0.068 A 
HETATM    4  C   UNL     1       9.473   0.115  -0.994  1.00  0.00     0.008 A 
HETATM    5  C   UNL     1       8.843  -1.128  -0.771  1.00  0.00     0.046 A 
HETATM    6  C   UNL     1       7.466  -1.205  -0.550  1.00  0.00     0.050 A 
HETATM    7  C   UNL     1       9.162   2.486  -1.286  1.00  0.00     0.032 A 
HETATM    8  C   UNL     1      10.534   2.677  -1.460  1.00  0.00     0.002 A 
HETATM    9  C   UNL     1      11.393   1.591  -1.380  1.00  0.00     0.001 A 
HETATM   10  C   UNL     1      10.871   0.320  -1.142  1.00  0.00     0.015 A 
ENDROOT
BRANCH   5  11
HETATM   11  C   UNL     1       9.544  -2.436  -0.767  1.00  0.00     0.252 C 
HETATM   12  N   UNL     1      10.396  -2.680  -1.821  1.00  0.00    -0.354 N 
HETATM   13  H   UNL     1      10.375  -2.013  -2.584  1.00  0.00     0.162 HD
HETATM   14  O   UNL     1       9.276  -3.256   0.103  1.00  0.00    -0.268 OA
BRANCH  12  15
HETATM   15  C   UNL     1      10.886  -4.015  -2.162  1.00  0.00     0.154 C 
BRANCH  15  16
HETATM   16  C   UNL     1      11.545  -4.802  -1.011  1.00  0.00     0.132 C 
HETATM   17  C   UNL     1      12.485  -5.872  -1.551  1.00  0.00     0.041 C 
BRANCH  16  18
HETATM   18  O   UNL     1      10.557  -5.481  -0.235  1.00  0.00    -0.394 OA
HETATM   19  H   UNL     1       9.951  -4.782   0.100  1.00  0.00     0.210 HD
ENDBRANCH  16  18
ENDBRANCH  15  16
ENDBRANCH  12  15
ENDBRANCH   5  11
BRANCH   1  20
HETATM   20  C   UNL     1       5.253  -0.034  -0.354  1.00  0.00    -0.007 A 
HETATM   21  C   UNL     1       4.434   0.935  -0.959  1.00  0.00     0.014 A 
HETATM   22  C   UNL     1       3.047   0.949  -0.764  1.00  0.00     0.007 A 
HETATM   23  C   UNL     1       2.438  -0.002   0.056  1.00  0.00    -0.062 A 
HETATM   24  C   UNL     1       0.952  -0.017   0.253  1.00  0.00     0.048 C 
HETATM   25  C   UNL     1       3.235  -0.970   0.671  1.00  0.00     0.007 A 
HETATM   26  C   UNL     1       4.620  -0.980   0.474  1.00  0.00     0.014 A 
ENDBRANCH   1  20
TORSDOF 5
