REMARK  5 active torsions:
REMARK  status: ('A' for Active; 'I' for Inactive)
REMARK    1  A    between atoms: C_2  and  C_3 
REMARK    2  A    between atoms: C_6  and  C_7 
REMARK    3  A    between atoms: C_7  and  N_8 
REMARK    4  A    between atoms: C_7  and  C_21 
REMARK       I    between atoms: N_8  and  C_9 
REMARK       I    between atoms: C_9  and  N_10 
REMARK    5  A    between atoms: N_10  and  N_11 
ROOT
HETATM    1  N   UNL     1       2.977   5.267   2.861  1.00  0.00    -0.333 N 
HETATM    2  C   UNL     1       2.277   6.138   2.092  1.00  0.00     0.335 C 
HETATM    3  N   UNL     1       2.741   6.340   0.829  1.00  0.00    -0.244 N 
HETATM    4  O   UNL     1       1.314   6.720   2.582  1.00  0.00    -0.246 OA
HETATM    5  H   UNL     1       2.567   5.159   3.779  1.00  0.00     0.165 HD
HETATM    6  H   UNL     1       3.148   5.549   0.358  1.00  0.00     0.192 HD
ENDROOT
BRANCH   1   7
HETATM    7  C   UNL     1       4.211   4.530   2.589  1.00  0.00     0.122 C 
BRANCH   7   8
HETATM    8  C   UNL     1       3.901   3.041   2.642  1.00  0.00    -0.035 A 
HETATM    9  C   UNL     1       4.061   2.248   1.497  1.00  0.00     0.010 A 
HETATM   10  C   UNL     1       3.793   0.877   1.535  1.00  0.00     0.007 A 
HETATM   11  C   UNL     1       3.350   0.271   2.716  1.00  0.00    -0.059 A 
HETATM   12  C   UNL     1       3.186   1.059   3.861  1.00  0.00     0.007 A 
HETATM   13  C   UNL     1       3.456   2.428   3.824  1.00  0.00     0.010 A 
BRANCH  11  14
HETATM   14  C   UNL     1       3.087  -1.212   2.767  1.00  0.00     0.034 C 
HETATM   15  C   UNL     1       4.321  -1.987   3.205  1.00  0.00     0.010 C 
ENDBRANCH  11  14
ENDBRANCH   7   8
BRANCH   7  16
HETATM   16  C   UNL     1       5.345   4.958   3.563  1.00  0.00     0.005 C 
HETATM   17  C   UNL     1       6.646   4.189   3.294  1.00  0.00     0.012 C 
HETATM   18  C   UNL     1       5.632   6.462   3.453  1.00  0.00     0.012 C 
ENDBRANCH   7  16
ENDBRANCH   1   7
BRANCH   3  19
HETATM   19  N   UNL     1       1.992   7.111   0.000  1.00  0.00    -0.244 N 
HETATM   20  C   UNL     1       1.397   6.660  -1.145  1.00  0.00     0.086 A 
HETATM   21  C   UNL     1       0.972   7.839  -1.761  1.00  0.00     0.086 A 
HETATM   22  C   UNL     1       1.194   5.392  -1.704  1.00  0.00     0.034 A 
HETATM   23  C   UNL     1       0.308   7.765  -2.995  1.00  0.00     0.034 A 
HETATM   24  N   UNL     1       1.312   8.949  -1.017  1.00  0.00    -0.240 NA
HETATM   25  C   UNL     1       0.098   6.508  -3.574  1.00  0.00     0.002 A 
HETATM   26  C   UNL     1       0.534   5.344  -2.938  1.00  0.00     0.002 A 
HETATM   27  C   UNL     1       1.935   8.471   0.040  1.00  0.00     0.234 A 
ENDBRANCH   3  19
TORSDOF 5
