REMARK  5 active torsions:
REMARK  status: ('A' for Active; 'I' for Inactive)
REMARK    1  A    between atoms: C_3  and  C_4 
REMARK    2  A    between atoms: N_7  and  C_9 
REMARK    3  A    between atoms: C_9  and  C_10 
REMARK    4  A    between atoms: C_21  and  C_22 
REMARK    5  A    between atoms: C_22  and  N_23 
ROOT
HETATM    1  C   UNL     1       0.845   0.509   0.144  1.00  0.00     0.159 C 
HETATM    2  N   UNL     1       2.258   0.183   0.240  1.00  0.00    -0.323 N 
HETATM    3  C   UNL     1       3.669   1.387   0.163  1.00  0.00     0.134 A 
HETATM    4  N   UNL     1       5.067   0.558   0.560  1.00  0.00    -0.134 NA
HETATM    5  N   UNL     1       4.461  -1.246   0.957  1.00  0.00    -0.133 NA
HETATM    6  C   UNL     1       2.869  -1.409   0.761  1.00  0.00     0.155 A 
ENDROOT
BRANCH   3   7
HETATM    7  C   UNL     1       3.394   2.738   0.186  1.00  0.00     0.060 C 
HETATM    8  C   UNL     1       3.186   2.109   1.625  1.00  0.00     0.040 C 
HETATM    9  C   UNL     1       3.656   0.284   1.602  1.00  0.00     0.236 C 
HETATM   10  N   UNL     1       3.938  -0.284  -0.580  1.00  0.00    -0.067 N 
HETATM   11  H   UNL     1       3.390  -1.039  -0.978  1.00  0.00     0.280 HD
HETATM   12  C   UNL     1       3.651   0.999  -1.928  1.00  0.00     0.236 C 
HETATM   13  C   UNL     1       2.998   2.409  -1.312  1.00  0.00     0.040 C 
BRANCH  10  14
HETATM   14  C   UNL     1       5.451  -0.929  -1.180  1.00  0.00     0.273 C 
BRANCH  14  15
HETATM   15  C   UNL     1       5.283  -1.543  -2.560  1.00  0.00    -0.030 A 
HETATM   16  C   UNL     1       4.222  -2.400  -2.885  1.00  0.00     0.051 A 
HETATM   17  C   UNL     1       4.111  -2.933  -4.168  1.00  0.00     0.117 A 
HETATM   18  F   UNL     1       3.061  -3.712  -4.452  1.00  0.00    -0.206 F 
HETATM   19  C   UNL     1       5.063  -2.668  -5.140  1.00  0.00     0.042 A 
HETATM   20  C   UNL     1       6.151  -1.861  -4.819  1.00  0.00     0.004 A 
HETATM   21  C   UNL     1       6.261  -1.303  -3.541  1.00  0.00     0.009 A 
ENDBRANCH  14  15
ENDBRANCH  10  14
ENDBRANCH   3   7
BRANCH   6  22
HETATM   22  C   UNL     1       2.046  -2.663   0.847  1.00  0.00     0.315 C 
BRANCH  22  23
HETATM   23  N   UNL     1       2.237  -3.594   2.055  1.00  0.00    -0.064 N 
HETATM   24  H   UNL     1       1.837  -3.119   2.874  1.00  0.00     0.280 HD
HETATM   25  C   UNL     1       1.394  -4.843   1.814  1.00  0.00     0.235 C 
HETATM   26  C   UNL     1       1.369  -5.819   2.982  1.00  0.00     0.028 C 
HETATM   27  C   UNL     1       2.654  -6.630   3.106  1.00  0.00     0.002 C 
HETATM   28  C   UNL     1       3.743  -5.958   3.929  1.00  0.00     0.002 C 
HETATM   29  C   UNL     1       3.823  -4.443   3.814  1.00  0.00     0.028 C 
HETATM   30  C   UNL     1       3.690  -3.897   2.397  1.00  0.00     0.235 C 
ENDBRANCH  22  23
ENDBRANCH   6  22
TORSDOF 5
