REMARK  8 active torsions:
REMARK  status: ('A' for Active; 'I' for Inactive)
REMARK    1  A    between atoms: C_7  and  C_8 
REMARK       I    between atoms: C_8  and  N_9 
REMARK    2  A    between atoms: N_9  and  S_10 
REMARK    3  A    between atoms: S_10  and  N_11 
REMARK    4  A    between atoms: N_11  and  C_12 
REMARK    5  A    between atoms: C_12  and  C_13 
REMARK    6  A    between atoms: C_13  and  C_14 
REMARK    7  A    between atoms: C_16  and  O_17 
REMARK    8  A    between atoms: C_19  and  O_20 
ROOT
HETATM    1  S   UNL     1      -0.734  -2.326   0.040  1.00  0.00     0.303 S 
HETATM    2  O   UNL     1      -1.917  -3.051   0.429  1.00  0.00    -0.188 OA
HETATM    3  O   UNL     1       0.499  -3.013  -0.263  1.00  0.00    -0.188 OA
ENDROOT
BRANCH   1   4
HETATM    4  N   UNL     1      -1.111  -1.429  -1.292  1.00  0.00    -0.237 N 
HETATM    5  C   UNL     1      -2.122  -0.461  -1.255  1.00  0.00     0.268 C 
HETATM    6  O   UNL     1      -2.433   0.087  -0.203  1.00  0.00    -0.267 OA
HETATM    7  H   UNL     1      -1.055  -2.008  -2.117  1.00  0.00     0.183 HD
BRANCH   5   8
HETATM    8  C   UNL     1      -2.791  -0.170  -2.528  1.00  0.00     0.067 A 
HETATM    9  C   UNL     1      -2.416  -0.507  -3.832  1.00  0.00     0.022 A 
HETATM   10  C   UNL     1      -1.242  -1.216  -4.410  1.00  0.00     0.069 C 
HETATM   11  N   UNL     1      -3.386  -0.023  -4.681  1.00  0.00    -0.358 N 
HETATM   12  H   UNL     1      -3.380  -0.123  -5.688  1.00  0.00     0.166 HD
HETATM   13  C   UNL     1      -4.363   0.643  -3.990  1.00  0.00     0.043 A 
HETATM   14  C   UNL     1      -4.025   0.575  -2.641  1.00  0.00     0.008 A 
HETATM   15  C   UNL     1      -5.510   1.296  -4.459  1.00  0.00     0.030 A 
HETATM   16  C   UNL     1      -4.891   1.195  -1.712  1.00  0.00     0.015 A 
HETATM   17  C   UNL     1      -6.041   1.855  -2.160  1.00  0.00     0.001 A 
HETATM   18  C   UNL     1      -6.344   1.903  -3.516  1.00  0.00     0.002 A 
ENDBRANCH   5   8
ENDBRANCH   1   4
BRANCH   1  19
HETATM   19  N   UNL     1      -0.429  -1.141   1.187  1.00  0.00    -0.202 NA
HETATM   20  H   UNL     1      -1.214  -0.475   1.141  1.00  0.00     0.141 HD
BRANCH  19  21
HETATM   21  C   UNL     1      -0.303  -1.629   2.586  1.00  0.00     0.110 C 
BRANCH  21  22
HETATM   22  C   UNL     1       1.041  -2.296   2.869  1.00  0.00     0.054 C 
BRANCH  22  23
HETATM   23  C   UNL     1       1.053  -2.873   4.266  1.00  0.00    -0.054 A 
HETATM   24  C   UNL     1       0.532  -4.157   4.497  1.00  0.00     0.046 A 
HETATM   25  C   UNL     1       0.466  -4.684   5.792  1.00  0.00     0.102 A 
HETATM   26  C   UNL     1       0.921  -3.911   6.877  1.00  0.00     0.101 A 
HETATM   27  C   UNL     1       1.457  -2.640   6.645  1.00  0.00     0.040 A 
HETATM   28  C   UNL     1       1.518  -2.122   5.348  1.00  0.00     0.010 A 
BRANCH  25  29
HETATM   29  O   UNL     1      -0.041  -5.922   6.101  1.00  0.00    -0.353 OA
HETATM   30  C   UNL     1      -0.522  -6.723   5.030  1.00  0.00     0.210 C 
ENDBRANCH  25  29
BRANCH  26  31
HETATM   31  O   UNL     1       0.820  -4.488   8.119  1.00  0.00    -0.353 OA
HETATM   32  C   UNL     1       0.920  -3.624   9.242  1.00  0.00     0.210 C 
ENDBRANCH  26  31
ENDBRANCH  22  23
ENDBRANCH  21  22
ENDBRANCH  19  21
ENDBRANCH   1  19
TORSDOF 8
