REMARK  9 active torsions:
REMARK  status: ('A' for Active; 'I' for Inactive)
REMARK    1  A    between atoms: C_2  and  C_3 
REMARK    2  A    between atoms: C_6  and  N_7 
REMARK       I    between atoms: N_7  and  C_8 
REMARK    3  A    between atoms: C_8  and  C_9 
REMARK    4  A    between atoms: C_9  and  S_10 
REMARK    5  A    between atoms: S_10  and  C_11 
REMARK    6  A    between atoms: C_15  and  C_16 
REMARK       I    between atoms: C_16  and  N_17 
REMARK    7  A    between atoms: N_17  and  C_18 
REMARK    8  A    between atoms: C_19  and  O_20 
REMARK    9  A    between atoms: C_27  and  C_28 
ROOT
HETATM    1  C   UNL     1       4.457  -0.685  -4.545  1.00  0.00     0.087 C 
HETATM    2  N   UNL     1       5.389  -1.145  -5.466  1.00  0.00    -0.353 N 
HETATM    3  C   UNL     1       5.491  -2.465  -5.883  1.00  0.00     0.019 C 
HETATM    4  C   UNL     1       6.366  -2.708  -7.091  1.00  0.00     0.069 C 
HETATM    5  C   UNL     1       4.799  -3.429  -5.234  1.00  0.00     0.046 C 
HETATM    6  C   UNL     1       4.079  -3.103  -3.927  1.00  0.00     0.104 C 
HETATM    7  C   UNL     1       3.879  -1.592  -3.714  1.00  0.00     0.055 C 
HETATM    8  C   UNL     1       3.115  -1.166  -2.471  1.00  0.00     0.019 C 
HETATM    9  N   UNL     1       2.481  -0.814  -1.439  1.00  0.00    -0.096 N 
HETATM   10  H   UNL     1       5.761  -0.468  -6.125  1.00  0.00     0.166 HD
ENDROOT
BRANCH   1  11
HETATM   11  S   UNL     1       3.898   0.983  -4.472  1.00  0.00    -0.102 SA
BRANCH  11  12
HETATM   12  C   UNL     1       4.820   1.908  -5.714  1.00  0.00     0.184 C 
BRANCH  12  13
HETATM   13  C   UNL     1       4.601   1.573  -7.187  1.00  0.00     0.231 C 
HETATM   14  N   UNL     1       3.789   0.494  -7.466  1.00  0.00    -0.327 N 
HETATM   15  H   UNL     1       3.231   0.139  -6.696  1.00  0.00     0.169 HD
HETATM   16  O   UNL     1       5.222   2.222  -8.029  1.00  0.00    -0.272 OA
BRANCH  14  17
HETATM   17  C   UNL     1       3.821  -0.313  -8.627  1.00  0.00     0.034 A 
HETATM   18  C   UNL     1       4.617  -0.045  -9.742  1.00  0.00     0.030 A 
HETATM   19  C   UNL     1       4.758  -0.994 -10.763  1.00  0.00     0.009 A 
HETATM   20  C   UNL     1       4.102  -2.227 -10.688  1.00  0.00    -0.058 A 
HETATM   21  C   UNL     1       3.254  -2.469  -9.603  1.00  0.00     0.009 A 
HETATM   22  C   UNL     1       3.105  -1.515  -8.590  1.00  0.00     0.030 A 
BRANCH  20  23
HETATM   23  C   UNL     1       4.375  -3.304 -11.707  1.00  0.00     0.034 C 
HETATM   24  C   UNL     1       5.608  -4.121 -11.337  1.00  0.00     0.010 C 
ENDBRANCH  20  23
ENDBRANCH  14  17
ENDBRANCH  12  13
ENDBRANCH  11  12
ENDBRANCH   1  11
BRANCH   6  25
HETATM   25  C   UNL     1       2.768  -3.865  -3.742  1.00  0.00    -0.044 A 
HETATM   26  C   UNL     1       2.617  -4.738  -2.649  1.00  0.00     0.008 A 
HETATM   27  C   UNL     1       1.439  -5.463  -2.475  1.00  0.00     0.001 A 
HETATM   28  C   UNL     1       0.395  -5.324  -3.385  1.00  0.00     0.000 A 
HETATM   29  C   UNL     1       0.525  -4.457  -4.467  1.00  0.00     0.001 A 
HETATM   30  C   UNL     1       1.701  -3.727  -4.645  1.00  0.00     0.008 A 
ENDBRANCH   6  25
BRANCH   5  31
HETATM   31  C   UNL     1       4.509  -4.685  -5.992  1.00  0.00     0.255 C 
HETATM   32  N   UNL     1       4.616  -5.851  -5.280  1.00  0.00    -0.321 N 
HETATM   33  H   UNL     1       5.010  -5.836  -4.347  1.00  0.00     0.169 HD
HETATM   34  O   UNL     1       4.158  -4.589  -7.165  1.00  0.00    -0.268 OA
BRANCH  32  35
HETATM   35  C   UNL     1       4.147  -7.128  -5.686  1.00  0.00     0.068 A 
HETATM   36  C   UNL     1       4.391  -8.217  -4.825  1.00  0.00     0.095 A 
HETATM   37  C   UNL     1       3.903  -9.488  -5.157  1.00  0.00     0.039 A 
HETATM   38  C   UNL     1       3.187  -9.684  -6.338  1.00  0.00     0.003 A 
HETATM   39  C   UNL     1       2.952  -8.615  -7.194  1.00  0.00     0.002 A 
HETATM   40  C   UNL     1       3.428  -7.344  -6.868  1.00  0.00     0.032 A 
BRANCH  36  41
HETATM   41  O   UNL     1       5.103  -7.927  -3.683  1.00  0.00    -0.354 OA
HETATM   42  C   UNL     1       5.599  -9.044  -2.953  1.00  0.00     0.210 C 
ENDBRANCH  36  41
ENDBRANCH  32  35
ENDBRANCH   5  31
TORSDOF 9
