REMARK  10 active torsions:
REMARK  status: ('A' for Active; 'I' for Inactive)
REMARK    1  A    between atoms: C_2  and  C_3 
REMARK    2  A    between atoms: C_3  and  C_4 
REMARK    3  A    between atoms: C_4  and  O_5 
REMARK    4  A    between atoms: O_5  and  C_6 
REMARK    5  A    between atoms: C_9  and  C_10 
REMARK       I    between atoms: C_10  and  N_11 
REMARK    6  A    between atoms: N_11  and  C_12 
REMARK    7  A    between atoms: C_12  and  N_13 
REMARK    8  A    between atoms: N_13  and  C_14 
REMARK    9  A    between atoms: C_16  and  C_17 
REMARK   10  A    between atoms: C_26  and  O_27 
ROOT
HETATM    1  N   UNL     1       8.889   5.884   1.523  1.00  0.00    -0.333 N 
HETATM    2  H   UNL     1       8.458   6.418   0.774  1.00  0.00     0.168 HD
ENDROOT
BRANCH   1   3
HETATM    3  C   UNL     1      10.140   5.418   1.205  1.00  0.00     0.179 C 
HETATM    4  S   UNL     1      10.868   6.050  -0.162  1.00  0.00    -0.040 SA
BRANCH   3   5
HETATM    5  N   UNL     1      10.614   4.387   1.988  1.00  0.00    -0.299 N 
HETATM    6  C   UNL     1      11.751   3.665   1.664  1.00  0.00     0.257 C 
HETATM    7  O   UNL     1      12.880   4.052   1.946  1.00  0.00    -0.267 OA
HETATM    8  H   UNL     1       9.842   3.823   2.317  1.00  0.00     0.171 HD
BRANCH   6   9
HETATM    9  C   UNL     1      11.544   2.344   0.989  1.00  0.00     0.032 A 
HETATM   10  C   UNL     1      10.287   1.910   0.541  1.00  0.00     0.020 A 
HETATM   11  C   UNL     1      10.172   0.718  -0.179  1.00  0.00     0.038 A 
HETATM   12  C   UNL     1      11.306  -0.029  -0.485  1.00  0.00     0.068 A 
HETATM   13  C   UNL     1      12.554   0.367  -0.007  1.00  0.00     0.038 A 
HETATM   14  C   UNL     1      12.673   1.554   0.722  1.00  0.00     0.020 A 
BRANCH  12  15
HETATM   15  O   UNL     1      11.107  -1.149  -1.244  1.00  0.00    -0.351 OA
BRANCH  15  16
HETATM   16  C   UNL     1      12.034  -1.265  -2.332  1.00  0.00     0.175 C 
BRANCH  16  17
HETATM   17  C   UNL     1      11.331  -2.004  -3.468  1.00  0.00     0.026 C 
BRANCH  17  18
HETATM   18  C   UNL     1      12.229  -2.138  -4.694  1.00  0.00    -0.002 C 
HETATM   19  C   UNL     1      11.510  -2.834  -5.839  1.00  0.00     0.005 C 
ENDBRANCH  17  18
ENDBRANCH  16  17
ENDBRANCH  15  16
ENDBRANCH  12  15
ENDBRANCH   6   9
ENDBRANCH   3   5
ENDBRANCH   1   3
BRANCH   1  20
HETATM   20  C   UNL     1       8.202   5.896   2.753  1.00  0.00     0.035 A 
HETATM   21  C   UNL     1       8.837   5.748   3.988  1.00  0.00     0.048 A 
HETATM   22  C   UNL     1       8.120   5.891   5.190  1.00  0.00     0.053 A 
HETATM   23  C   UNL     1       6.740   6.157   5.124  1.00  0.00     0.086 A 
HETATM   24  C   UNL     1       6.080   6.269   3.893  1.00  0.00    -0.026 A 
HETATM   25  C   UNL     1       4.610   6.569   3.816  1.00  0.00     0.051 C 
HETATM   26  C   UNL     1       6.832   6.172   2.714  1.00  0.00     0.039 A 
BRANCH  22  27
HETATM   27  C   UNL     1       8.804   5.827   6.478  1.00  0.00     0.183 A 
HETATM   28  O   UNL     1      10.068   5.298   6.492  1.00  0.00    -0.289 OA
HETATM   29  C   UNL     1      10.454   5.407   7.796  1.00  0.00     0.106 A 
HETATM   30  C   UNL     1       9.411   5.988   8.500  1.00  0.00     0.093 A 
HETATM   31  C   UNL     1      11.669   5.026   8.349  1.00  0.00     0.040 A 
HETATM   32  N   UNL     1       8.353   6.224   7.657  1.00  0.00    -0.221 NA
HETATM   33  C   UNL     1       9.574   6.238   9.868  1.00  0.00     0.034 A 
HETATM   34  C   UNL     1      10.793   5.879  10.465  1.00  0.00     0.002 A 
HETATM   35  C   UNL     1      11.817   5.280   9.719  1.00  0.00     0.003 A 
ENDBRANCH  22  27
BRANCH  23  36
HETATM   36  O   UNL     1       5.982   6.338   6.256  1.00  0.00    -0.359 OA
HETATM   37  H   UNL     1       6.577   6.370   7.035  1.00  0.00     0.218 HD
ENDBRANCH  23  36
ENDBRANCH   1  20
TORSDOF 10
