REMARK  6 active torsions:
REMARK  status: ('A' for Active; 'I' for Inactive)
REMARK    1  A    between atoms: N_2  and  C_4 
REMARK    2  A    between atoms: C_4  and  C_5 
REMARK    3  A    between atoms: C_5  and  C_6 
REMARK    4  A    between atoms: C_6  and  N_7 
REMARK    5  A    between atoms: C_17  and  C_18 
REMARK    6  A    between atoms: C_26  and  O_27 
ROOT
HETATM    1  N   UNL     1       2.617   1.291   4.755  1.00  0.00    -0.327 N 
HETATM    2  C   UNL     1       3.084   2.503   4.421  1.00  0.00     0.113 C 
HETATM    3  N   UNL     1       3.753   2.760   3.310  1.00  0.00    -0.385 N 
HETATM    4  H   UNL     1       4.117   3.684   3.103  1.00  0.00     0.157 HD
HETATM    5  H   UNL     1       4.047   2.061   2.645  1.00  0.00     0.157 HD
HETATM    6  C   UNL     1       2.813   3.629   5.375  1.00  0.00     0.052 C 
HETATM    7  C   UNL     1       2.155   3.353   6.516  1.00  0.00     0.182 C 
HETATM    8  O   UNL     1       1.832   4.320   7.455  1.00  0.00    -0.291 OA
HETATM    9  C   UNL     1       2.026   5.646   7.165  1.00  0.00     0.087 A 
HETATM   10  C   UNL     1       2.708   6.065   6.022  1.00  0.00    -0.011 A 
HETATM   11  C   UNL     1       3.292   5.038   5.080  1.00  0.00     0.095 C 
HETATM   12  C   UNL     1       1.508   6.568   8.077  1.00  0.00     0.074 A 
HETATM   13  C   UNL     1       1.663   7.926   7.828  1.00  0.00     0.068 A 
HETATM   14  C   UNL     1       2.323   8.369   6.688  1.00  0.00     0.037 A 
HETATM   15  C   UNL     1       2.846   7.443   5.785  1.00  0.00     0.014 A 
HETATM   16  N   UNL     1       1.805   2.084   6.876  1.00  0.00    -0.219 NA
HETATM   17  C   UNL     1       2.057   1.124   6.069  1.00  0.00     0.214 C 
ENDROOT
BRANCH   1  18
HETATM   18  C   UNL     1       2.824   0.092   3.900  1.00  0.00     0.133 C 
BRANCH  18  19
HETATM   19  C   UNL     1       1.717  -0.978   3.942  1.00  0.00     0.048 C 
BRANCH  19  20
HETATM   20  C   UNL     1       0.376  -0.522   3.363  1.00  0.00     0.235 C 
BRANCH  20  21
HETATM   21  N   UNL     1      -0.679  -1.608   3.493  1.00  0.00    -0.079 N 
HETATM   22  C   UNL     1      -0.447  -2.818   2.613  1.00  0.00     0.269 C 
HETATM   23  H   UNL     1      -0.697  -1.956   4.463  1.00  0.00     0.278 HD
HETATM   24  C   UNL     1      -2.074  -1.061   3.249  1.00  0.00     0.269 C 
ENDBRANCH  20  21
ENDBRANCH  19  20
ENDBRANCH  18  19
ENDBRANCH   1  18
BRANCH  11  25
HETATM   25  C   UNL     1       4.821   5.116   5.048  1.00  0.00    -0.045 A 
HETATM   26  C   UNL     1       5.601   4.601   6.100  1.00  0.00     0.010 A 
HETATM   27  C   UNL     1       6.995   4.663   6.051  1.00  0.00     0.024 A 
HETATM   28  C   UNL     1       7.625   5.256   4.960  1.00  0.00     0.034 A 
HETATM   29 CL   UNL     1       9.340   5.317   4.893  1.00  0.00    -0.084 Cl
HETATM   30  C   UNL     1       6.871   5.801   3.924  1.00  0.00     0.024 A 
HETATM   31  C   UNL     1       5.475   5.739   3.969  1.00  0.00     0.010 A 
ENDBRANCH  11  25
BRANCH  13  32
HETATM   32  O   UNL     1       1.179   8.871   8.680  1.00  0.00    -0.361 OA
HETATM   33  H   UNL     1       0.805   8.445   9.469  1.00  0.00     0.217 HD
ENDBRANCH  13  32
TORSDOF 6
