REMARK  7 active torsions:
REMARK  status: ('A' for Active; 'I' for Inactive)
REMARK    1  A    between atoms: O_2  and  C_3 
REMARK    2  A    between atoms: C_7  and  C_8 
REMARK    3  A    between atoms: C_8  and  C_9 
REMARK       I    between atoms: C_9  and  N_10 
REMARK    4  A    between atoms: N_10  and  C_11 
REMARK    5  A    between atoms: C_11  and  C_12 
REMARK    6  A    between atoms: C_12  and  N_13 
REMARK    7  A    between atoms: C_12  and  C_19 
ROOT
HETATM    1  C   UNL     1       3.220   5.988  -0.060  1.00  0.00     0.222 C 
HETATM    2  N   UNL     1       3.039   5.307  -1.249  1.00  0.00    -0.358 N 
HETATM    3  O   UNL     1       3.103   5.402   1.015  1.00  0.00    -0.273 OA
HETATM    4  H   UNL     1       3.351   5.773  -2.093  1.00  0.00     0.162 HD
ENDROOT
BRANCH   2   5
HETATM    5  C   UNL     1       3.029   3.855  -1.291  1.00  0.00     0.160 C 
BRANCH   5   6
HETATM    6  C   UNL     1       1.823   3.104  -0.629  1.00  0.00     0.240 C 
BRANCH   6   7
HETATM    7  N   UNL     1       0.465   3.494  -1.237  1.00  0.00    -0.061 N 
HETATM    8  H   UNL     1      -0.184   2.800  -0.842  1.00  0.00     0.280 HD
HETATM    9  C   UNL     1       0.315   3.405  -2.734  1.00  0.00     0.236 C 
HETATM   10  C   UNL     1       0.092   4.837  -3.171  1.00  0.00     0.029 C 
HETATM   11  C   UNL     1      -0.728   5.418  -2.036  1.00  0.00     0.029 C 
HETATM   12  C   UNL     1      -0.103   4.825  -0.787  1.00  0.00     0.236 C 
ENDBRANCH   6   7
BRANCH   6  13
HETATM   13  C   UNL     1       1.983   1.579  -0.635  1.00  0.00    -0.004 A 
HETATM   14  C   UNL     1       1.208   0.770   0.224  1.00  0.00     0.042 A 
HETATM   15 CL   UNL     1       0.009   1.451   1.268  1.00  0.00    -0.084 Cl
HETATM   16  C   UNL     1       1.348  -0.621   0.235  1.00  0.00     0.024 A 
HETATM   17  C   UNL     1       2.259  -1.239  -0.617  1.00  0.00     0.002 A 
HETATM   18  C   UNL     1       3.024  -0.468  -1.483  1.00  0.00     0.001 A 
HETATM   19  C   UNL     1       2.886   0.923  -1.497  1.00  0.00     0.011 A 
ENDBRANCH   6  13
ENDBRANCH   5   6
ENDBRANCH   2   5
BRANCH   1  20
HETATM   20  C   UNL     1       3.595   7.470  -0.149  1.00  0.00     0.144 C 
BRANCH  20  21
HETATM   21  C   UNL     1       3.081   8.142  -1.380  1.00  0.00    -0.014 A 
HETATM   22  C   UNL     1       3.674   8.140  -2.682  1.00  0.00     0.006 A 
HETATM   23  C   UNL     1       2.766   8.773  -3.520  1.00  0.00     0.088 A 
HETATM   24  C   UNL     1       4.851   7.616  -3.246  1.00  0.00     0.017 A 
HETATM   25  C   UNL     1       2.918   8.898  -4.901  1.00  0.00     0.074 A 
HETATM   26  O   UNL     1       1.702   9.223  -2.800  1.00  0.00    -0.321 OA
HETATM   27  C   UNL     1       4.068   8.324  -5.453  1.00  0.00     0.070 A 
HETATM   28  C   UNL     1       5.024   7.712  -4.633  1.00  0.00     0.038 A 
HETATM   29  C   UNL     1       1.910   8.863  -1.508  1.00  0.00     0.151 A 
BRANCH  27  30
HETATM   30  O   UNL     1       4.375   8.289  -6.788  1.00  0.00    -0.356 OA
HETATM   31  C   UNL     1       3.386   8.768  -7.691  1.00  0.00     0.210 C 
ENDBRANCH  27  30
ENDBRANCH  20  21
ENDBRANCH   1  20
TORSDOF 7
