REMARK  5 active torsions:
REMARK  status: ('A' for Active; 'I' for Inactive)
REMARK    1  A    between atoms: C_2  and  N_3 
REMARK    2  A    between atoms: C_2  and  C_14 
REMARK       I    between atoms: N_3  and  C_4 
REMARK       I    between atoms: C_4  and  N_5 
REMARK    3  A    between atoms: N_5  and  C_6 
REMARK    4  A    between atoms: C_6  and  C_7 
REMARK    5  A    between atoms: C_16  and  C_17 
ROOT
HETATM    1  C   UNL     1       0.952   0.054  -0.153  1.00  0.00     0.041 C 
HETATM    2  C   UNL     1       2.469   0.040  -0.004  1.00  0.00     0.153 C 
ENDROOT
BRANCH   2   3
HETATM    3  N   UNL     1       3.096  -0.012  -1.321  1.00  0.00    -0.332 N 
HETATM    4  C   UNL     1       4.402  -0.394  -1.476  1.00  0.00     0.317 C 
HETATM    5  N   UNL     1       4.799  -0.350  -2.779  1.00  0.00    -0.339 N 
HETATM    6  O   UNL     1       5.121  -0.703  -0.534  1.00  0.00    -0.247 OA
HETATM    7  H   UNL     1       4.081  -0.361  -3.487  1.00  0.00     0.164 HD
HETATM    8  H   UNL     1       2.717   0.597  -2.031  1.00  0.00     0.165 HD
BRANCH   5   9
HETATM    9  C   UNL     1       6.124  -0.761  -3.190  1.00  0.00     0.162 C 
BRANCH   9  10
HETATM   10  C   UNL     1       6.072  -2.026  -4.009  1.00  0.00    -0.040 A 
HETATM   11  C   UNL     1       6.264  -1.991  -5.398  1.00  0.00     0.009 A 
HETATM   12  C   UNL     1       6.214  -3.166  -6.150  1.00  0.00     0.001 A 
HETATM   13  C   UNL     1       5.968  -4.387  -5.524  1.00  0.00     0.000 A 
HETATM   14  C   UNL     1       5.769  -4.433  -4.145  1.00  0.00     0.001 A 
HETATM   15  C   UNL     1       5.819  -3.260  -3.391  1.00  0.00     0.009 A 
ENDBRANCH   9  10
ENDBRANCH   5   9
ENDBRANCH   2   3
BRANCH   2  16
HETATM   16  C   UNL     1       2.961   1.230   0.760  1.00  0.00     0.145 A 
HETATM   17  N   UNL     1       2.298   2.285   1.189  1.00  0.00    -0.210 NA
HETATM   18  C   UNL     1       3.231   2.993   1.919  1.00  0.00     0.181 A 
HETATM   19  N   UNL     1       4.450   2.431   1.927  1.00  0.00    -0.152 NA
HETATM   20  N   UNL     1       4.255   1.325   1.192  1.00  0.00    -0.261 N 
HETATM   21  H   UNL     1       5.024   0.684   1.003  1.00  0.00     0.190 HD
BRANCH  18  22
HETATM   22  C   UNL     1       2.896   4.224   2.633  1.00  0.00     0.014 A 
HETATM   23  C   UNL     1       1.594   4.745   2.576  1.00  0.00     0.017 A 
HETATM   24  C   UNL     1       1.263   5.915   3.267  1.00  0.00     0.025 A 
HETATM   25  C   UNL     1       2.232   6.571   4.024  1.00  0.00     0.034 A 
HETATM   26 CL   UNL     1       1.824   8.009   4.876  1.00  0.00    -0.084 Cl
HETATM   27  C   UNL     1       3.529   6.068   4.094  1.00  0.00     0.025 A 
HETATM   28  C   UNL     1       3.859   4.899   3.400  1.00  0.00     0.017 A 
ENDBRANCH  18  22
ENDBRANCH   2  16
TORSDOF 5
