REMARK  1 active torsions:
REMARK  status: ('A' for Active; 'I' for Inactive)
REMARK    1  A    between atoms: C_8  and  C_9 
ROOT
HETATM    1  C   UNL     1       1.022  -0.691  -0.383  1.00  0.00     0.073 C 
HETATM    2  C   UNL     1       2.478  -0.486  -0.144  1.00  0.00     0.062 A 
HETATM    3  N   UNL     1       3.242  -1.544   0.135  1.00  0.00    -0.178 NA
HETATM    4  N   UNL     1       4.470  -1.034   0.227  1.00  0.00    -0.262 N 
HETATM    5  H   UNL     1       5.234  -1.673   0.409  1.00  0.00     0.191 HD
HETATM    6  C   UNL     1       4.535   0.327   0.068  1.00  0.00     0.134 A 
HETATM    7  C   UNL     1       3.234   0.743  -0.170  1.00  0.00     0.032 A 
HETATM    8  C   UNL     1       2.657   2.079  -0.534  1.00  0.00     0.120 C 
HETATM    9  S   UNL     1       3.818   3.403  -0.950  1.00  0.00    -0.141 SA
HETATM   10  C   UNL     1       5.063   3.340   0.367  1.00  0.00     0.136 C 
HETATM   11  C   UNL     1       4.587   3.360   1.809  1.00  0.00     0.031 C 
HETATM   12  C   UNL     1       6.091   2.250   0.132  1.00  0.00     0.236 C 
HETATM   13  O   UNL     1       7.293   2.534   0.052  1.00  0.00    -0.272 OA
HETATM   14  N   UNL     1       5.771   0.928   0.124  1.00  0.00    -0.311 N 
HETATM   15  H   UNL     1       6.601   0.344   0.104  1.00  0.00     0.170 HD
ENDROOT
BRANCH   8  16
HETATM   16  C   UNL     1       1.539   2.496   0.434  1.00  0.00    -0.029 A 
HETATM   17  C   UNL     1       0.449   3.320  -0.022  1.00  0.00    -0.018 A 
HETATM   18  C   UNL     1      -0.580   3.671   0.894  1.00  0.00    -0.025 A 
HETATM   19  C   UNL     1       0.309   3.816  -1.344  1.00  0.00     0.013 A 
HETATM   20  C   UNL     1      -1.667   4.463   0.483  1.00  0.00     0.012 A 
HETATM   21  C   UNL     1      -0.527   3.229   2.219  1.00  0.00     0.012 A 
HETATM   22  C   UNL     1      -1.767   4.925  -0.826  1.00  0.00     0.001 A 
HETATM   23  C   UNL     1      -0.778   4.603  -1.740  1.00  0.00     0.001 A 
HETATM   24  C   UNL     1       0.522   2.436   2.662  1.00  0.00     0.002 A 
HETATM   25  C   UNL     1       1.537   2.074   1.782  1.00  0.00     0.009 A 
ENDBRANCH   8  16
TORSDOF 1
