REMARK  10 active torsions:
REMARK  status: ('A' for Active; 'I' for Inactive)
REMARK    1  A    between atoms: N_5  and  C_7 
REMARK    2  A    between atoms: C_7  and  C_8 
REMARK    3  A    between atoms: C_8  and  C_9 
REMARK    4  A    between atoms: C_9  and  N_10 
REMARK       I    between atoms: N_10  and  C_11 
REMARK    5  A    between atoms: C_11  and  C_12 
REMARK    6  A    between atoms: C_12  and  C_13 
REMARK    7  A    between atoms: C_13  and  C_14 
REMARK    8  A    between atoms: C_14  and  N_15 
REMARK       I    between atoms: N_15  and  C_16 
REMARK    9  A    between atoms: C_16  and  C_17 
REMARK   10  A    between atoms: C_17  and  N_18 
ROOT
HETATM    1  N   UNL     1      -1.125  -1.802   7.638  1.00  0.00    -0.360 N 
HETATM    2  C   UNL     1      -0.139  -2.764   7.582  1.00  0.00     0.235 C 
HETATM    3  O   UNL     1       0.962  -2.626   8.111  1.00  0.00    -0.272 OA
HETATM    4  H   UNL     1      -1.947  -1.910   7.044  1.00  0.00     0.162 HD
ENDROOT
BRANCH   1   5
HETATM    5  C   UNL     1      -0.963  -0.592   8.416  1.00  0.00     0.123 C 
BRANCH   5   6
HETATM    6  C   UNL     1      -0.032   0.412   7.736  1.00  0.00     0.029 C 
BRANCH   6   7
HETATM    7  C   UNL     1       0.122   1.682   8.569  1.00  0.00     0.104 C 
BRANCH   7   8
HETATM    8  C   UNL     1       1.221   2.628   8.113  1.00  0.00     0.217 C 
HETATM    9  N   UNL     1       1.402   2.760   6.757  1.00  0.00    -0.361 N 
HETATM   10  H   UNL     1       0.957   2.096   6.132  1.00  0.00     0.162 HD
HETATM   11  O   UNL     1       1.834   3.350   8.904  1.00  0.00    -0.274 OA
BRANCH   9  12
HETATM   12  C   UNL     1       2.459   3.580   6.203  1.00  0.00     0.124 C 
BRANCH  12  13
HETATM   13  C   UNL     1       2.026   5.018   5.924  1.00  0.00     0.047 C 
BRANCH  13  14
HETATM   14  C   UNL     1       1.515   5.831   7.116  1.00  0.00     0.236 C 
BRANCH  14  15
HETATM   15  N   UNL     1       2.458   5.878   8.296  1.00  0.00    -0.071 N 
HETATM   16  C   UNL     1       3.805   6.471   7.981  1.00  0.00     0.235 C 
HETATM   17  C   UNL     1       4.708   6.435   9.206  1.00  0.00     0.032 C 
HETATM   18  C   UNL     1       4.085   7.098  10.437  1.00  0.00    -0.016 C 
HETATM   19  C   UNL     1       4.035   8.622  10.302  1.00  0.00     0.010 C 
HETATM   20  C   UNL     1       2.699   6.501  10.698  1.00  0.00     0.032 C 
HETATM   21  C   UNL     1       1.791   6.552   9.477  1.00  0.00     0.235 C 
HETATM   22  H   UNL     1       2.574   4.886   8.602  1.00  0.00     0.279 HD
ENDBRANCH  14  15
ENDBRANCH  13  14
ENDBRANCH  12  13
ENDBRANCH   9  12
ENDBRANCH   7   8
ENDBRANCH   6   7
ENDBRANCH   5   6
ENDBRANCH   1   5
BRANCH   2  23
HETATM   23  C   UNL     1      -0.478  -3.982   6.734  1.00  0.00     0.235 C 
BRANCH  23  24
HETATM   24  N   UNL     1      -0.212  -3.669   5.342  1.00  0.00    -0.299 N 
HETATM   25  C   UNL     1      -1.237  -3.122   4.575  1.00  0.00     0.262 C 
HETATM   26  O   UNL     1      -2.319  -2.782   5.052  1.00  0.00    -0.267 OA
HETATM   27  C   UNL     1      -0.893  -2.943   3.176  1.00  0.00     0.075 A 
HETATM   28  C   UNL     1       0.414  -3.185   2.806  1.00  0.00     0.115 A 
HETATM   29  C   UNL     1      -1.716  -2.573   2.062  1.00  0.00    -0.026 A 
HETATM   30  S   UNL     1       0.663  -2.927   1.139  1.00  0.00    -0.073 SA
HETATM   31  N   UNL     1       1.424  -3.594   3.616  1.00  0.00    -0.235 NA
HETATM   32  C   UNL     1      -0.978  -2.554   0.892  1.00  0.00    -0.008 A 
HETATM   33  C   UNL     1      -1.519  -2.234  -0.468  1.00  0.00     0.047 C 
HETATM   34  C   UNL     1      -3.049  -2.371  -0.474  1.00  0.00     0.005 C 
HETATM   35  C   UNL     1      -3.681  -1.691   0.749  1.00  0.00     0.005 C 
HETATM   36  C   UNL     1      -3.194  -2.311   2.070  1.00  0.00     0.041 C 
HETATM   37  C   UNL     1       1.063  -3.837   4.835  1.00  0.00     0.214 C 
ENDBRANCH  23  24
ENDBRANCH   2  23
TORSDOF 10
