REMARK  7 active torsions:
REMARK  status: ('A' for Active; 'I' for Inactive)
REMARK    1  A    between atoms: C_2  and  O_3 
REMARK    2  A    between atoms: O_3  and  C_4 
REMARK    3  A    between atoms: C_7  and  N_8 
REMARK    4  A    between atoms: C_9  and  C_11 
REMARK    5  A    between atoms: C_9  and  O_10 
REMARK       I    between atoms: C_11  and  N_12 
REMARK    6  A    between atoms: N_12  and  C_13 
REMARK    7  A    between atoms: C_13  and  C_14 
ROOT
HETATM    1  N   UNL     1       8.053   2.485  -2.297  1.00  0.00    -0.254 N 
HETATM    2  C   UNL     1       8.863   3.717  -2.223  1.00  0.00     0.256 C 
HETATM    3  C   UNL     1       9.905   3.818  -3.321  1.00  0.00     0.034 A 
HETATM    4  C   UNL     1      10.315   2.647  -3.948  1.00  0.00     0.048 A 
HETATM    5  N   UNL     1       9.716   1.447  -3.592  1.00  0.00    -0.308 N 
HETATM    6  C   UNL     1       8.617   1.319  -2.795  1.00  0.00     0.330 C 
HETATM    7  O   UNL     1       8.161   0.186  -2.629  1.00  0.00    -0.246 OA
HETATM    8  C   UNL     1      10.547   5.020  -3.673  1.00  0.00     0.015 A 
HETATM    9  C   UNL     1      11.541   5.038  -4.655  1.00  0.00     0.001 A 
HETATM   10  C   UNL     1      11.927   3.854  -5.278  1.00  0.00     0.002 A 
HETATM   11  C   UNL     1      11.320   2.652  -4.918  1.00  0.00     0.030 A 
HETATM   12  H   UNL     1      10.033   0.580  -4.006  1.00  0.00     0.170 HD
ENDROOT
BRANCH   2  13
HETATM   13  C   UNL     1       7.991   5.043  -2.190  1.00  0.00     0.279 C 
HETATM   14  N   UNL     1       8.005   5.689  -0.963  1.00  0.00    -0.352 N 
HETATM   15  H   UNL     1       8.755   5.434  -0.328  1.00  0.00     0.162 HD
HETATM   16  O   UNL     1       7.325   5.457  -3.139  1.00  0.00    -0.268 OA
BRANCH  14  17
HETATM   17  C   UNL     1       7.314   6.937  -0.766  1.00  0.00     0.161 C 
BRANCH  17  18
HETATM   18  C   UNL     1       7.219   7.266   0.699  1.00  0.00    -0.038 A 
HETATM   19  C   UNL     1       8.118   8.172   1.284  1.00  0.00     0.048 A 
HETATM   20  C   UNL     1       7.994   8.431   2.633  1.00  0.00     0.105 A 
HETATM   21  C   UNL     1       7.030   7.825   3.403  1.00  0.00     0.105 A 
HETATM   22  O   UNL     1       8.773   9.283   3.352  1.00  0.00    -0.323 OA
HETATM   23  O   UNL     1       7.079   8.222   4.703  1.00  0.00    -0.323 OA
HETATM   24  C   UNL     1       6.139   6.920   2.870  1.00  0.00     0.040 A 
HETATM   25  C   UNL     1       8.180   9.154   4.661  1.00  0.00     0.352 A 
HETATM   26  C   UNL     1       6.240   6.637   1.504  1.00  0.00     0.012 A 
ENDBRANCH  17  18
ENDBRANCH  14  17
ENDBRANCH   2  13
BRANCH   2  27
HETATM   27  O   UNL     1       9.615   3.640  -0.997  1.00  0.00    -0.359 OA
HETATM   28  H   UNL     1       9.036   3.146  -0.395  1.00  0.00     0.213 HD
ENDBRANCH   2  27
BRANCH   1  29
HETATM   29  C   UNL     1       6.886   2.378  -1.475  1.00  0.00     0.043 A 
HETATM   30  C   UNL     1       6.858   1.522  -0.369  1.00  0.00     0.032 A 
HETATM   31  C   UNL     1       5.716   1.442   0.434  1.00  0.00     0.039 A 
HETATM   32  C   UNL     1       4.578   2.194   0.133  1.00  0.00     0.068 A 
HETATM   33  C   UNL     1       4.590   3.022  -0.987  1.00  0.00     0.039 A 
HETATM   34  C   UNL     1       5.734   3.105  -1.789  1.00  0.00     0.032 A 
BRANCH  32  35
HETATM   35  O   UNL     1       3.531   2.023   0.995  1.00  0.00    -0.352 OA
BRANCH  35  36
HETATM   36  C   UNL     1       2.316   2.700   0.678  1.00  0.00     0.171 C 
HETATM   37  C   UNL     1       1.281   2.326   1.724  1.00  0.00     0.034 C 
ENDBRANCH  35  36
ENDBRANCH  32  35
ENDBRANCH   1  29
TORSDOF 7
