REMARK  6 active torsions:
REMARK  status: ('A' for Active; 'I' for Inactive)
REMARK    1  A    between atoms: C_5  and  N_6 
REMARK       I    between atoms: N_6  and  C_7 
REMARK    2  A    between atoms: C_7  and  C_8 
REMARK    3  A    between atoms: C_8  and  S_9 
REMARK    4  A    between atoms: S_9  and  C_10 
REMARK    5  A    between atoms: N_15  and  C_17 
REMARK    6  A    between atoms: C_17  and  C_18 
ROOT
HETATM    1  C   UNL     1       0.749  -2.170  -0.816  1.00  0.00     0.169 A 
HETATM    2  N   UNL     1       0.097  -3.278  -0.751  1.00  0.00    -0.228 NA
HETATM    3  C   UNL     1      -1.238  -3.220  -0.460  1.00  0.00     0.052 A 
HETATM    4  C   UNL     1      -1.909  -2.070  -0.296  1.00  0.00     0.060 A 
HETATM    5  C   UNL     1      -3.375  -1.981  -0.070  1.00  0.00     0.281 C 
HETATM    6  N   UNL     1      -4.075  -3.298  -0.387  1.00  0.00    -0.063 N 
HETATM    7  H   UNL     1      -3.996  -3.423  -1.404  1.00  0.00     0.280 HD
HETATM    8  C   UNL     1      -3.343  -4.455   0.256  1.00  0.00     0.241 C 
HETATM    9  C   UNL     1      -1.931  -4.556  -0.329  1.00  0.00     0.088 C 
HETATM   10  C   UNL     1      -1.149  -0.810  -0.384  1.00  0.00     0.257 A 
HETATM   11  O   UNL     1      -1.709   0.267  -0.232  1.00  0.00    -0.267 OA
HETATM   12  N   UNL     1       0.181  -0.948  -0.637  1.00  0.00    -0.302 N 
HETATM   13  H   UNL     1       0.749  -0.116  -0.713  1.00  0.00     0.171 HD
ENDROOT
BRANCH   1  14
HETATM   14  S   UNL     1       2.450  -2.095  -1.141  1.00  0.00    -0.083 SA
BRANCH  14  15
HETATM   15  C   UNL     1       2.846  -3.873  -1.287  1.00  0.00     0.185 C 
BRANCH  15  16
HETATM   16  C   UNL     1       2.633  -4.605   0.034  1.00  0.00     0.231 C 
HETATM   17  N   UNL     1       3.400  -4.078   1.063  1.00  0.00    -0.326 N 
HETATM   18  H   UNL     1       3.753  -3.144   0.882  1.00  0.00     0.169 HD
HETATM   19  O   UNL     1       1.841  -5.540   0.116  1.00  0.00    -0.272 OA
BRANCH  17  20
HETATM   20  C   UNL     1       3.362  -4.457   2.425  1.00  0.00     0.041 C 
HETATM   21  C   UNL     1       3.191  -5.769   2.915  1.00  0.00    -0.029 C 
HETATM   22  C   UNL     1       3.028  -5.961   4.313  1.00  0.00    -0.054 C 
HETATM   23  C   UNL     1       3.248  -6.984   2.024  1.00  0.00     0.051 C 
HETATM   24  C   UNL     1       2.779  -7.324   4.907  1.00  0.00     0.049 C 
HETATM   25  C   UNL     1       3.165  -4.875   5.191  1.00  0.00     0.007 C 
HETATM   26  C   UNL     1       3.438  -3.604   4.705  1.00  0.00     0.003 C 
HETATM   27  C   UNL     1       3.535  -3.398   3.332  1.00  0.00     0.030 C 
ENDBRANCH  17  20
ENDBRANCH  15  16
ENDBRANCH  14  15
ENDBRANCH   1  14
BRANCH   6  28
HETATM   28  C   UNL     1      -5.553  -3.279  -0.083  1.00  0.00     0.273 C 
BRANCH  28  29
HETATM   29  C   UNL     1      -6.294  -2.268  -0.921  1.00  0.00    -0.030 A 
HETATM   30  C   UNL     1      -6.316  -2.390  -2.322  1.00  0.00     0.048 A 
HETATM   31  C   UNL     1      -6.914  -1.386  -3.054  1.00  0.00     0.105 A 
HETATM   32  C   UNL     1      -7.504  -0.303  -2.454  1.00  0.00     0.105 A 
HETATM   33  O   UNL     1      -6.975  -1.329  -4.410  1.00  0.00    -0.323 OA
HETATM   34  O   UNL     1      -8.018   0.572  -3.357  1.00  0.00    -0.323 OA
HETATM   35  C   UNL     1      -7.537  -0.165  -1.084  1.00  0.00     0.040 A 
HETATM   36  C   UNL     1      -7.667  -0.073  -4.599  1.00  0.00     0.352 A 
HETATM   37  C   UNL     1      -6.922  -1.156  -0.311  1.00  0.00     0.012 A 
ENDBRANCH  28  29
ENDBRANCH   6  28
TORSDOF 6
