REMARK  10 active torsions:
REMARK  status: ('A' for Active; 'I' for Inactive)
REMARK    1  A    between atoms: C_3  and  C_4 
REMARK    2  A    between atoms: C_4  and  C_5 
REMARK       I    between atoms: C_5  and  N_6 
REMARK    3  A    between atoms: N_6  and  C_7 
REMARK    4  A    between atoms: C_7  and  C_8 
REMARK    5  A    between atoms: C_8  and  O_9 
REMARK    6  A    between atoms: C_15  and  N_16 
REMARK    7  A    between atoms: N_16  and  C_17 
REMARK    8  A    between atoms: C_26  and  C_27 
REMARK    9  A    between atoms: C_27  and  O_28 
REMARK   10  A    between atoms: C_30  and  O_31 
ROOT
HETATM    1  C   UNL     1      -2.084   1.966   0.454  1.00  0.00     0.016 C 
HETATM    2  C   UNL     1      -0.644   1.358   0.507  1.00  0.00    -0.030 C 
HETATM    3  C   UNL     1      -0.684  -0.071   1.223  1.00  0.00     0.056 C 
HETATM    4  C   UNL     1      -1.126  -1.141   0.247  1.00  0.00     0.055 C 
HETATM    5  C   UNL     1      -1.291  -0.936  -1.106  1.00  0.00     0.011 C 
HETATM    6  S   UNL     1      -1.821  -2.360  -1.865  1.00  0.00    -0.060 SA
HETATM    7  C   UNL     1      -1.527  -3.225  -0.397  1.00  0.00     0.150 C 
HETATM    8  N   UNL     1      -1.251  -2.462   0.642  1.00  0.00    -0.232 NA
HETATM    9  C   UNL     1      -1.020   0.328  -1.839  1.00  0.00     0.054 C 
HETATM   10  C   UNL     1      -0.111   1.256  -0.986  1.00  0.00     0.012 C 
HETATM   11  C   UNL     1       1.458   1.015  -1.150  1.00  0.00     0.008 C 
HETATM   12  C   UNL     1       1.877   1.727  -2.471  1.00  0.00     0.020 C 
HETATM   13  C   UNL     1       2.252   1.694   0.009  1.00  0.00     0.128 C 
HETATM   14  C   UNL     1       1.484   2.847   0.638  1.00  0.00     0.033 C 
HETATM   15  C   UNL     1       0.222   2.353   1.343  1.00  0.00     0.013 C 
ENDROOT
BRANCH   3  16
HETATM   16  C   UNL     1      -1.563  -0.061   2.490  1.00  0.00     0.114 C 
BRANCH  16  17
HETATM   17  C   UNL     1      -1.098  -0.953   3.624  1.00  0.00     0.218 C 
HETATM   18  N   UNL     1      -1.174  -2.300   3.394  1.00  0.00    -0.359 N 
HETATM   19  H   UNL     1      -1.247  -2.630   2.429  1.00  0.00     0.162 HD
HETATM   20  O   UNL     1      -0.773  -0.480   4.713  1.00  0.00    -0.274 OA
BRANCH  18  21
HETATM   21  C   UNL     1      -0.977  -3.266   4.457  1.00  0.00     0.148 C 
BRANCH  21  22
HETATM   22  C   UNL     1       0.491  -3.470   4.851  1.00  0.00     0.186 C 
BRANCH  22  23
HETATM   23  O   UNL     1       1.219  -4.293   3.934  1.00  0.00    -0.394 OA
HETATM   24  C   UNL     1       0.878  -5.671   4.028  1.00  0.00     0.201 C 
ENDBRANCH  22  23
ENDBRANCH  21  22
ENDBRANCH  18  21
ENDBRANCH  16  17
ENDBRANCH   3  16
BRANCH  11  25
HETATM   25  C   UNL     1       1.916  -0.465  -1.260  1.00  0.00     0.176 C 
BRANCH  25  26
HETATM   26  O   UNL     1       1.497  -1.076  -2.476  1.00  0.00    -0.400 OA
HETATM   27  H   UNL     1       1.695  -2.026  -2.387  1.00  0.00     0.209 HD
ENDBRANCH  25  26
ENDBRANCH  11  25
BRANCH   7  28
HETATM   28  N   UNL     1      -1.575  -4.583  -0.409  1.00  0.00    -0.238 NA
HETATM   29  H   UNL     1      -2.060  -4.948  -1.223  1.00  0.00     0.136 HD
BRANCH  28  30
HETATM   30  C   UNL     1      -0.414  -5.377  -0.190  1.00  0.00     0.014 A 
HETATM   31  C   UNL     1       0.745  -4.900   0.436  1.00  0.00     0.024 A 
HETATM   32  C   UNL     1       1.862  -5.725   0.607  1.00  0.00     0.002 A 
HETATM   33  C   UNL     1       1.824  -7.052   0.192  1.00  0.00     0.000 A 
HETATM   34  C   UNL     1       0.663  -7.560  -0.383  1.00  0.00     0.002 A 
HETATM   35  C   UNL     1      -0.450  -6.732  -0.560  1.00  0.00     0.024 A 
ENDBRANCH  28  30
ENDBRANCH   7  28
BRANCH  13  36
HETATM   36  O   UNL     1       2.568   0.751   1.034  1.00  0.00    -0.395 OA
HETATM   37  H   UNL     1       3.080   1.214   1.721  1.00  0.00     0.210 HD
ENDBRANCH  13  36
TORSDOF 10
