REMARK  4 active torsions:
REMARK  status: ('A' for Active; 'I' for Inactive)
REMARK    1  A    between atoms: N_8  and  C_9 
REMARK    2  A    between atoms: C_19  and  C_20 
REMARK    3  A    between atoms: C_20  and  C_21 
REMARK    4  A    between atoms: C_24  and  C_25 
ROOT
HETATM    1  C   UNL     1       1.157  -0.613  -0.256  1.00  0.00     0.069 C 
HETATM    2  C   UNL     1       2.623  -0.260  -0.276  1.00  0.00     0.017 C 
HETATM    3  N   UNL     1       3.480  -1.346  -0.405  1.00  0.00    -0.348 N 
HETATM    4  C   UNL     1       4.835  -1.222  -0.284  1.00  0.00     0.119 A 
HETATM    5  C   UNL     1       5.413  -0.016  -0.193  1.00  0.00     0.124 A 
HETATM    6  C   UNL     1       6.866  -0.237  -0.153  1.00  0.00     0.280 A 
HETATM    7  O   UNL     1       7.709   0.640  -0.081  1.00  0.00    -0.265 OA
HETATM    8  N   UNL     1       7.028  -1.631  -0.207  1.00  0.00    -0.236 N 
HETATM    9  N   UNL     1       5.761  -2.249  -0.261  1.00  0.00    -0.179 NA
HETATM   10  C   UNL     1       4.601   1.200  -0.202  1.00  0.00     0.199 C 
HETATM   11  O   UNL     1       5.100   2.318  -0.253  1.00  0.00    -0.287 OA
HETATM   12  C   UNL     1       3.100   1.005  -0.153  1.00  0.00     0.020 C 
HETATM   13  H   UNL     1       3.093  -2.273  -0.261  1.00  0.00     0.167 HD
HETATM   14  H   UNL     1       5.654  -2.838  -1.088  1.00  0.00     0.155 HD
ENDROOT
BRANCH  12  15
HETATM   15  C   UNL     1       2.294   2.267   0.042  1.00  0.00     0.083 C 
BRANCH  15  16
HETATM   16  C   UNL     1       2.073   2.580   1.507  1.00  0.00    -0.054 A 
HETATM   17  C   UNL     1       3.067   3.228   2.251  1.00  0.00     0.008 A 
HETATM   18  C   UNL     1       2.903   3.452   3.620  1.00  0.00     0.008 A 
HETATM   19  C   UNL     1       1.739   3.034   4.280  1.00  0.00    -0.055 A 
HETATM   20  C   UNL     1       0.737   2.403   3.530  1.00  0.00     0.008 A 
HETATM   21  C   UNL     1       0.902   2.178   2.160  1.00  0.00     0.008 A 
BRANCH  19  22
HETATM   22  C   UNL     1       1.600   3.256   5.775  1.00  0.00     0.010 C 
HETATM   23  C   UNL     1       0.402   4.147   6.108  1.00  0.00     0.015 C 
HETATM   24  C   UNL     1       1.518   1.925   6.528  1.00  0.00     0.015 C 
ENDBRANCH  19  22
ENDBRANCH  15  16
ENDBRANCH  12  15
BRANCH   8  25
HETATM   25  C   UNL     1       8.205  -2.406  -0.121  1.00  0.00     0.055 A 
HETATM   26  C   UNL     1       9.473  -1.807  -0.132  1.00  0.00     0.034 A 
HETATM   27  C   UNL     1      10.635  -2.582  -0.049  1.00  0.00     0.044 A 
HETATM   28  C   UNL     1      10.534  -3.962   0.050  1.00  0.00     0.116 A 
HETATM   29  F   UNL     1      11.645  -4.705   0.132  1.00  0.00    -0.206 F 
HETATM   30  C   UNL     1       9.293  -4.582   0.069  1.00  0.00     0.044 A 
HETATM   31  C   UNL     1       8.132  -3.807  -0.016  1.00  0.00     0.034 A 
ENDBRANCH   8  25
TORSDOF 4
