REMARK  6 active torsions:
REMARK  status: ('A' for Active; 'I' for Inactive)
REMARK    1  A    between atoms: C_5  and  N_6 
REMARK    2  A    between atoms: C_8  and  C_9 
REMARK    3  A    between atoms: C_16  and  C_17 
REMARK    4  A    between atoms: C_17  and  N_18 
REMARK    5  A    between atoms: C_22  and  N_23 
REMARK    6  A    between atoms: C_26  and  O_27 
ROOT
HETATM    1  N   UNL     1       7.356   1.206  -1.255  1.00  0.00    -0.244 N 
HETATM    2  N   UNL     1       7.485   1.096   0.085  1.00  0.00    -0.167 NA
HETATM    3  C   UNL     1       8.535   0.302   0.303  1.00  0.00     0.097 A 
HETATM    4  C   UNL     1       9.025  -0.239  -0.917  1.00  0.00     0.016 A 
HETATM    5  C   UNL     1       8.282   0.402  -1.892  1.00  0.00     0.130 A 
ENDROOT
BRANCH   4   6
HETATM    6  C   UNL     1      10.092  -1.246  -1.120  1.00  0.00     0.277 C 
BRANCH   6   7
HETATM    7  N   UNL     1       9.590  -2.704  -1.226  1.00  0.00    -0.067 N 
HETATM    8  H   UNL     1       9.168  -2.882  -0.298  1.00  0.00     0.280 HD
HETATM    9  C   UNL     1       8.501  -2.856  -2.254  1.00  0.00     0.237 C 
HETATM   10  C   UNL     1       8.079  -4.304  -2.376  1.00  0.00     0.061 C 
HETATM   11  C   UNL     1       9.227  -5.257  -2.706  1.00  0.00     0.191 C 
HETATM   12  C   UNL     1      10.358  -5.073  -1.689  1.00  0.00     0.061 C 
HETATM   13  C   UNL     1      10.766  -3.628  -1.402  1.00  0.00     0.237 C 
BRANCH  11  14
HETATM   14  N   UNL     1       9.684  -5.265  -4.183  1.00  0.00    -0.064 N 
HETATM   15  H   UNL     1      10.068  -6.217  -4.314  1.00  0.00     0.280 HD
HETATM   16  C   UNL     1       8.511  -5.223  -5.171  1.00  0.00     0.266 C 
HETATM   17  C   UNL     1       8.940  -5.476  -6.624  1.00  0.00     0.144 C 
HETATM   18  C   UNL     1      10.083  -4.554  -7.027  1.00  0.00     0.035 C 
HETATM   19  C   UNL     1      11.239  -4.669  -6.049  1.00  0.00     0.030 C 
HETATM   20  C   UNL     1      10.809  -4.354  -4.622  1.00  0.00     0.235 C 
BRANCH  17  21
HETATM   21  O   UNL     1       7.820  -5.213  -7.455  1.00  0.00    -0.394 OA
HETATM   22  H   UNL     1       8.049  -5.421  -8.382  1.00  0.00     0.210 HD
ENDBRANCH  17  21
ENDBRANCH  11  14
ENDBRANCH   6   7
ENDBRANCH   4   6
BRANCH   3  23
HETATM   23  C   UNL     1       9.006   0.050   1.660  1.00  0.00    -0.005 A 
HETATM   24  C   UNL     1       8.114  -0.404   2.642  1.00  0.00     0.017 A 
HETATM   25  C   UNL     1       8.566  -0.655   3.939  1.00  0.00     0.043 A 
HETATM   26  C   UNL     1       9.904  -0.444   4.252  1.00  0.00     0.116 A 
HETATM   27  F   UNL     1      10.339  -0.692   5.493  1.00  0.00    -0.206 F 
HETATM   28  C   UNL     1      10.797   0.029   3.298  1.00  0.00     0.043 A 
HETATM   29  C   UNL     1      10.348   0.284   2.000  1.00  0.00     0.017 A 
ENDBRANCH   3  23
BRANCH   1  30
HETATM   30  C   UNL     1       6.344   2.010  -1.844  1.00  0.00     0.058 A 
HETATM   31  C   UNL     1       5.486   2.749  -1.020  1.00  0.00     0.032 A 
HETATM   32  C   UNL     1       4.475   3.538  -1.578  1.00  0.00     0.009 A 
HETATM   33  C   UNL     1       4.301   3.593  -2.964  1.00  0.00    -0.062 A 
HETATM   34  C   UNL     1       3.231   4.452  -3.575  1.00  0.00     0.048 C 
HETATM   35  C   UNL     1       5.165   2.862  -3.787  1.00  0.00     0.009 A 
HETATM   36  C   UNL     1       6.181   2.073  -3.236  1.00  0.00     0.032 A 
ENDBRANCH   1  30
TORSDOF 6
