REMARK  3 active torsions:
REMARK  status: ('A' for Active; 'I' for Inactive)
REMARK    1  A    between atoms: N_2  and  C_5 
REMARK    2  A    between atoms: C_5  and  C_6 
REMARK       I    between atoms: C_6  and  N_7 
REMARK    3  A    between atoms: N_7  and  C_8 
ROOT
HETATM    1  C   UNL     1       4.828   0.428  -1.019  1.00  0.00     0.036 A 
HETATM    2  C   UNL     1       5.256   1.695  -1.423  1.00  0.00     0.059 A 
HETATM    3  C   UNL     1       4.597   2.419  -2.437  1.00  0.00     0.041 A 
HETATM    4  C   UNL     1       3.485   1.841  -3.056  1.00  0.00    -0.031 A 
HETATM    5  C   UNL     1       2.735   2.572  -4.135  1.00  0.00     0.045 C 
HETATM    6  C   UNL     1       2.105   3.850  -3.594  1.00  0.00     0.045 C 
HETATM    7  C   UNL     1       3.052   5.020  -3.475  1.00  0.00    -0.031 A 
HETATM    8  C   UNL     1       4.398   4.913  -3.089  1.00  0.00     0.039 A 
HETATM    9  N   UNL     1       5.045   3.726  -2.693  1.00  0.00    -0.355 N 
HETATM   10  C   UNL     1       2.511   6.298  -3.736  1.00  0.00     0.009 A 
HETATM   11  C   UNL     1       3.290   7.450  -3.663  1.00  0.00     0.001 A 
HETATM   12  C   UNL     1       4.630   7.346  -3.329  1.00  0.00     0.002 A 
HETATM   13  C   UNL     1       5.173   6.094  -3.047  1.00  0.00     0.030 A 
HETATM   14  C   UNL     1       3.073   0.552  -2.679  1.00  0.00     0.012 A 
HETATM   15  C   UNL     1       3.734  -0.145  -1.667  1.00  0.00     0.030 A 
HETATM   16  H   UNL     1       6.008   3.877  -2.414  1.00  0.00     0.166 HD
ENDROOT
BRANCH   1  17
HETATM   17  N   UNL     1       5.401  -0.292   0.055  1.00  0.00    -0.326 N 
HETATM   18  C   UNL     1       6.496   0.085   0.802  1.00  0.00     0.247 C 
HETATM   19  O   UNL     1       7.271   1.017   0.587  1.00  0.00    -0.271 OA
HETATM   20  H   UNL     1       4.934  -1.166   0.272  1.00  0.00     0.169 HD
BRANCH  18  21
HETATM   21  C   UNL     1       6.730  -0.756   2.058  1.00  0.00     0.334 C 
BRANCH  21  22
HETATM   22  N   UNL     1       7.627  -0.012   3.025  1.00  0.00    -0.071 N 
HETATM   23  C   UNL     1       6.956   1.071   3.793  1.00  0.00     0.267 C 
HETATM   24  H   UNL     1       8.355   0.437   2.440  1.00  0.00     0.277 HD
HETATM   25  H   UNL     1       8.107  -0.661   3.658  1.00  0.00     0.277 HD
ENDBRANCH  21  22
ENDBRANCH  18  21
ENDBRANCH   1  17
TORSDOF 3
