REMARK  7 active torsions:
REMARK  status: ('A' for Active; 'I' for Inactive)
REMARK    1  A    between atoms: C_7  and  C_8 
REMARK       I    between atoms: C_8  and  N_9 
REMARK    2  A    between atoms: N_9  and  C_10 
REMARK    3  A    between atoms: C_10  and  C_11 
REMARK    4  A    between atoms: C_11  and  O_12 
REMARK    5  A    between atoms: C_11  and  C_13 
REMARK    6  A    between atoms: C_15  and  O_16 
REMARK    7  A    between atoms: O_16  and  C_17 
ROOT
HETATM    1  C   UNL     1       0.953   5.828   3.704  1.00  0.00     0.253 C 
HETATM    2  N   UNL     1       0.305   5.308   2.614  1.00  0.00    -0.354 N 
HETATM    3  O   UNL     1       1.610   6.863   3.677  1.00  0.00    -0.268 OA
HETATM    4  H   UNL     1      -0.404   4.596   2.732  1.00  0.00     0.162 HD
ENDROOT
BRANCH   2   5
HETATM    5  C   UNL     1       0.301   5.989   1.327  1.00  0.00     0.159 C 
BRANCH   5   6
HETATM    6  C   UNL     1       0.191   5.009   0.144  1.00  0.00     0.169 C 
BRANCH   6   7
HETATM    7  O   UNL     1      -0.954   4.166   0.327  1.00  0.00    -0.389 OA
HETATM    8  H   UNL     1      -0.935   3.517  -0.399  1.00  0.00     0.210 HD
ENDBRANCH   6   7
BRANCH   6   9
HETATM    9  C   UNL     1       1.445   4.177  -0.055  1.00  0.00    -0.025 A 
HETATM   10  C   UNL     1       2.493   4.678  -0.849  1.00  0.00     0.046 A 
HETATM   11  C   UNL     1       3.673   3.948  -1.021  1.00  0.00     0.075 A 
HETATM   12  C   UNL     1       3.816   2.719  -0.374  1.00  0.00     0.037 A 
HETATM   13  C   UNL     1       2.789   2.210   0.418  1.00  0.00     0.003 A 
HETATM   14  C   UNL     1       1.609   2.935   0.577  1.00  0.00     0.010 A 
BRANCH  11  15
HETATM   15  O   UNL     1       4.758   4.337  -1.754  1.00  0.00    -0.290 OA
BRANCH  15  16
HETATM   16  C   UNL     1       4.537   5.347  -2.723  1.00  0.00     0.505 C 
HETATM   17  F   UNL     1       4.399   6.544  -2.102  1.00  0.00    -0.184 F 
HETATM   18  F   UNL     1       5.657   5.431  -3.485  1.00  0.00    -0.184 F 
ENDBRANCH  15  16
ENDBRANCH  11  15
ENDBRANCH   6   9
ENDBRANCH   5   6
ENDBRANCH   2   5
BRANCH   1  19
HETATM   19  C   UNL     1       0.754   5.075   4.983  1.00  0.00     0.048 A 
HETATM   20  C   UNL     1       0.774   5.797   6.257  1.00  0.00     0.022 A 
HETATM   21  C   UNL     1       0.619   5.164   7.435  1.00  0.00     0.054 A 
HETATM   22  C   UNL     1       0.436   3.756   7.452  1.00  0.00     0.157 A 
HETATM   23  N   UNL     1       0.449   3.091   6.234  1.00  0.00    -0.291 N 
HETATM   24  N   UNL     1       0.254   2.892   8.424  1.00  0.00    -0.130 NA
HETATM   25  C   UNL     1       0.260   1.763   6.554  1.00  0.00     0.130 A 
HETATM   26  C   UNL     1       0.615   3.733   5.008  1.00  0.00     0.117 A 
HETATM   27  C   UNL     1       0.203   0.659   5.570  1.00  0.00     0.094 C 
HETATM   28  N   UNL     1       0.144   1.642   7.862  1.00  0.00    -0.135 NA
ENDBRANCH   1  19
TORSDOF 7
