REMARK  7 active torsions:
REMARK  status: ('A' for Active; 'I' for Inactive)
REMARK    1  A    between atoms: C_2  and  N_3 
REMARK    2  A    between atoms: N_3  and  C_4 
REMARK    3  A    between atoms: C_6  and  N_7 
REMARK    4  A    between atoms: N_7  and  C_8 
REMARK    5  A    between atoms: C_8  and  C_9 
REMARK    6  A    between atoms: C_9  and  C_10 
REMARK    7  A    between atoms: C_12  and  O_13 
ROOT
HETATM    1  C   UNL     1       2.540   1.356  -2.026  1.00  0.00     0.119 A 
HETATM    2  N   UNL     1       2.505   2.617  -2.496  1.00  0.00    -0.207 NA
HETATM    3  C   UNL     1       2.346   2.806  -3.815  1.00  0.00     0.181 A 
HETATM    4  N   UNL     1       2.184   1.794  -4.664  1.00  0.00    -0.330 N 
HETATM    5  H   UNL     1       2.003   2.029  -5.631  1.00  0.00     0.168 HD
HETATM    6  C   UNL     1       2.192   0.523  -4.251  1.00  0.00     0.048 A 
HETATM    7  C   UNL     1       2.375   0.247  -2.883  1.00  0.00     0.031 A 
HETATM    8  C   UNL     1       2.011  -0.516  -5.177  1.00  0.00     0.030 A 
HETATM    9  C   UNL     1       2.010  -1.843  -4.749  1.00  0.00     0.002 A 
HETATM   10  C   UNL     1       2.180  -2.138  -3.400  1.00  0.00     0.001 A 
HETATM   11  C   UNL     1       2.357  -1.107  -2.474  1.00  0.00     0.017 A 
ENDROOT
BRANCH   3  12
HETATM   12  N   UNL     1       2.320   4.081  -4.370  1.00  0.00    -0.262 NA
HETATM   13  H   UNL     1       2.906   4.168  -5.196  1.00  0.00     0.130 HD
BRANCH  12  14
HETATM   14  C   UNL     1       2.572   5.171  -3.414  1.00  0.00     0.100 C 
BRANCH  14  15
HETATM   15  C   UNL     1       2.466   6.524  -4.129  1.00  0.00     0.053 C 
BRANCH  15  16
HETATM   16  C   UNL     1       2.785   7.672  -3.205  1.00  0.00    -0.054 A 
HETATM   17  C   UNL     1       4.108   8.128  -3.068  1.00  0.00     0.044 A 
HETATM   18  C   UNL     1       4.410   9.178  -2.197  1.00  0.00     0.068 A 
HETATM   19  C   UNL     1       3.384   9.768  -1.456  1.00  0.00     0.037 A 
HETATM   20  C   UNL     1       2.069   9.322  -1.583  1.00  0.00     0.003 A 
HETATM   21  C   UNL     1       1.769   8.276  -2.454  1.00  0.00     0.007 A 
BRANCH  18  22
HETATM   22  O   UNL     1       5.650   9.709  -1.975  1.00  0.00    -0.356 OA
HETATM   23  C   UNL     1       6.720   9.222  -2.773  1.00  0.00     0.210 C 
ENDBRANCH  18  22
ENDBRANCH  15  16
ENDBRANCH  14  15
ENDBRANCH  12  14
ENDBRANCH   3  12
BRANCH   1  24
HETATM   24  N   UNL     1       2.679   1.151  -0.652  1.00  0.00    -0.273 NA
HETATM   25  H   UNL     1       3.395   0.461  -0.435  1.00  0.00     0.129 HD
BRANCH  24  26
HETATM   26  C   UNL     1       2.747   2.314   0.242  1.00  0.00     0.053 C 
HETATM   27  C   UNL     1       4.156   2.906   0.259  1.00  0.00     0.026 C 
HETATM   28  C   UNL     1       2.358   1.848   1.646  1.00  0.00     0.026 C 
ENDBRANCH  24  26
ENDBRANCH   1  24
TORSDOF 7
