REMARK  5 active torsions:
REMARK  status: ('A' for Active; 'I' for Inactive)
REMARK       I    between atoms: C_2  and  N_3 
REMARK    1  A    between atoms: N_3  and  C_4 
REMARK    2  A    between atoms: N_7  and  C_8 
REMARK    3  A    between atoms: C_8  and  C_9 
REMARK       I    between atoms: C_9  and  N_10 
REMARK    4  A    between atoms: C_13  and  O_14 
REMARK    5  A    between atoms: C_13  and  C_15 
ROOT
HETATM    1  C   UNL     1      -0.645  -4.570   4.846  1.00  0.00     0.238 C 
HETATM    2  N   UNL     1      -0.624  -5.099   3.548  1.00  0.00    -0.350 N 
HETATM    3  C   UNL     1      -0.400  -4.270   2.365  1.00  0.00     0.129 C 
HETATM    4  C   UNL     1      -0.006  -5.095   1.150  1.00  0.00     0.063 C 
HETATM    5  C   UNL     1      -1.080  -6.146   0.828  1.00  0.00     0.088 C 
HETATM    6  C   UNL     1      -1.187  -7.062   2.059  1.00  0.00     0.063 C 
HETATM    7  C   UNL     1      -1.410  -6.318   3.372  1.00  0.00     0.129 C 
HETATM    8  O   UNL     1      -0.887  -5.282   5.826  1.00  0.00    -0.272 OA
ENDROOT
BRANCH   1   9
HETATM    9  C   UNL     1      -0.441  -3.075   5.041  1.00  0.00     0.231 C 
BRANCH   9  10
HETATM   10  N   UNL     1      -1.658  -2.323   4.750  1.00  0.00    -0.347 N 
HETATM   11  C   UNL     1      -1.748  -1.169   3.992  1.00  0.00     0.047 A 
HETATM   12  C   UNL     1      -3.100  -0.793   3.967  1.00  0.00     0.019 A 
HETATM   13  C   UNL     1      -0.766  -0.419   3.329  1.00  0.00     0.031 A 
HETATM   14  C   UNL     1      -3.496   0.382   3.272  1.00  0.00     0.047 A 
HETATM   15  C   UNL     1      -3.807  -1.754   4.749  1.00  0.00     0.033 A 
HETATM   16  C   UNL     1      -2.511   1.110   2.595  1.00  0.00     0.030 A 
HETATM   17  C   UNL     1      -1.172   0.717   2.628  1.00  0.00     0.005 A 
HETATM   18  C   UNL     1      -2.898  -2.661   5.233  1.00  0.00     0.092 A 
BRANCH  14  19
HETATM   19  N   UNL     1      -4.866   0.709   3.273  1.00  0.00    -0.327 N 
HETATM   20  C   UNL     1      -5.558   1.847   2.989  1.00  0.00     0.218 C 
HETATM   21  C   UNL     1      -4.857   3.159   2.791  1.00  0.00     0.117 C 
HETATM   22  O   UNL     1      -6.790   1.789   2.948  1.00  0.00    -0.274 OA
HETATM   23  H   UNL     1      -5.493  -0.034   3.557  1.00  0.00     0.169 HD
ENDBRANCH  14  19
ENDBRANCH   9  10
ENDBRANCH   1   9
BRANCH   5  24
HETATM   24  O   UNL     1      -0.570  -6.965  -0.238  1.00  0.00    -0.385 OA
HETATM   25  H   UNL     1      -1.332  -7.384  -0.676  1.00  0.00     0.211 HD
ENDBRANCH   5  24
BRANCH   5  26
HETATM   26  C   UNL     1      -2.367  -5.502   0.302  1.00  0.00    -0.024 A 
HETATM   27  C   UNL     1      -2.297  -4.675  -0.840  1.00  0.00     0.012 A 
HETATM   28  C   UNL     1      -3.424  -4.015  -1.337  1.00  0.00     0.024 A 
HETATM   29  C   UNL     1      -4.650  -4.181  -0.706  1.00  0.00     0.034 A 
HETATM   30 CL   UNL     1      -6.038  -3.358  -1.299  1.00  0.00    -0.084 Cl
HETATM   31  C   UNL     1      -4.758  -5.019   0.399  1.00  0.00     0.024 A 
HETATM   32  C   UNL     1      -3.627  -5.685   0.891  1.00  0.00     0.012 A 
ENDBRANCH   5  26
TORSDOF 5
