REMARK  6 active torsions:
REMARK  status: ('A' for Active; 'I' for Inactive)
REMARK    1  A    between atoms: C_5  and  C_6 
REMARK    2  A    between atoms: C_6  and  N_7 
REMARK    3  A    between atoms: C_6  and  C_11 
REMARK       I    between atoms: N_7  and  C_8 
REMARK    4  A    between atoms: C_11  and  C_12 
REMARK       I    between atoms: C_12  and  N_13 
REMARK    5  A    between atoms: N_13  and  C_14 
REMARK    6  A    between atoms: C_16  and  C_17 
ROOT
HETATM    1  C   UNL     1       8.859  -1.435  -0.650  1.00  0.00     0.224 C 
HETATM    2  N   UNL     1       9.136  -1.100  -1.963  1.00  0.00    -0.327 N 
HETATM    3  O   UNL     1       9.668  -1.531   0.268  1.00  0.00    -0.273 OA
HETATM    4  H   UNL     1       8.338  -0.923  -2.563  1.00  0.00     0.169 HD
ENDROOT
BRANCH   1   5
HETATM    5  C   UNL     1       7.380  -1.640  -0.390  1.00  0.00     0.133 C 
BRANCH   5   6
HETATM    6  C   UNL     1       6.756  -0.346   0.145  1.00  0.00     0.126 C 
BRANCH   6   7
HETATM    7  C   UNL     1       6.670   0.756  -0.902  1.00  0.00    -0.035 A 
HETATM    8  C   UNL     1       7.433   1.924  -0.748  1.00  0.00     0.010 A 
HETATM    9  C   UNL     1       7.395   2.937  -1.711  1.00  0.00     0.007 A 
HETATM   10  C   UNL     1       6.597   2.803  -2.850  1.00  0.00    -0.062 A 
HETATM   11  C   UNL     1       6.536   3.891  -3.881  1.00  0.00     0.048 C 
HETATM   12  C   UNL     1       5.828   1.646  -3.006  1.00  0.00     0.007 A 
HETATM   13  C   UNL     1       5.866   0.633  -2.044  1.00  0.00     0.010 A 
ENDBRANCH   6   7
BRANCH   6  14
HETATM   14  N   UNL     1       5.470  -0.525   0.819  1.00  0.00    -0.352 N 
HETATM   15  C   UNL     1       4.451  -1.337   0.381  1.00  0.00     0.214 C 
HETATM   16  C   UNL     1       3.200  -1.249   1.214  1.00  0.00     0.117 C 
HETATM   17  O   UNL     1       4.520  -2.070  -0.600  1.00  0.00    -0.274 OA
HETATM   18  H   UNL     1       5.243   0.171   1.517  1.00  0.00     0.163 HD
ENDBRANCH   6  14
ENDBRANCH   5   6
ENDBRANCH   1   5
BRANCH   2  19
HETATM   19  C   UNL     1      10.401  -0.892  -2.551  1.00  0.00     0.035 A 
HETATM   20  C   UNL     1      11.615  -1.119  -1.896  1.00  0.00     0.042 A 
HETATM   21  C   UNL     1      12.844  -0.905  -2.544  1.00  0.00    -0.021 A 
HETATM   22  C   UNL     1      12.835  -0.462  -3.874  1.00  0.00     0.012 A 
HETATM   23  C   UNL     1      11.629  -0.236  -4.538  1.00  0.00     0.003 A 
HETATM   24  C   UNL     1      10.419  -0.451  -3.879  1.00  0.00     0.029 A 
BRANCH  21  25
HETATM   25  C   UNL     1      14.110  -1.144  -1.864  1.00  0.00     0.010 A 
HETATM   26  C   UNL     1      15.410  -1.374  -2.376  1.00  0.00     0.152 A 
HETATM   27  N   UNL     1      16.326  -1.541  -1.418  1.00  0.00    -0.187 NA
HETATM   28  N   UNL     1      15.616  -1.424  -0.285  1.00  0.00    -0.289 N 
HETATM   29  H   UNL     1      16.102  -1.518   0.601  1.00  0.00     0.188 HD
HETATM   30  C   UNL     1      14.291  -1.180  -0.497  1.00  0.00     0.123 A 
ENDBRANCH  21  25
ENDBRANCH   2  19
TORSDOF 6
