REMARK  11 active torsions:
REMARK  status: ('A' for Active; 'I' for Inactive)
REMARK    1  A    between atoms: C_2  and  C_3 
REMARK    2  A    between atoms: C_3  and  C_4 
REMARK       I    between atoms: C_4  and  N_6 
REMARK    3  A    between atoms: N_6  and  C_7 
REMARK    4  A    between atoms: C_11  and  C_13 
REMARK    5  A    between atoms: C_15  and  N_16 
REMARK    6  A    between atoms: N_16  and  C_17 
REMARK    7  A    between atoms: C_29  and  O_30 
REMARK    8  A    between atoms: O_30  and  C_31 
REMARK    9  A    between atoms: C_31  and  C_32 
REMARK   10  A    between atoms: C_32  and  N_33 
REMARK   11  A    between atoms: C_41  and  O_42 
ROOT
HETATM    1  C   UNL     1       9.308  -1.888   2.078  1.00  0.00     0.162 A 
HETATM    2  N   UNL     1      10.556  -1.851   1.591  1.00  0.00    -0.215 NA
HETATM    3  C   UNL     1      11.225  -3.005   1.482  1.00  0.00     0.122 A 
HETATM    4  C   UNL     1      10.652  -4.229   1.854  1.00  0.00     0.036 A 
HETATM    5  C   UNL     1      11.318  -5.479   1.788  1.00  0.00     0.057 A 
HETATM    6  C   UNL     1      10.680  -6.652   2.188  1.00  0.00     0.103 A 
HETATM    7  C   UNL     1       9.343  -6.583   2.585  1.00  0.00     0.103 A 
HETATM    8  C   UNL     1       8.697  -5.345   2.666  1.00  0.00     0.072 A 
HETATM    9  C   UNL     1       9.329  -4.163   2.307  1.00  0.00     0.075 A 
HETATM   10  N   UNL     1       8.658  -3.013   2.416  1.00  0.00    -0.228 NA
ENDROOT
BRANCH   1  11
HETATM   11  C   UNL     1       8.654  -0.594   2.334  1.00  0.00     0.014 A 
HETATM   12  C   UNL     1       7.258  -0.460   2.388  1.00  0.00     0.015 A 
HETATM   13  C   UNL     1       6.666   0.781   2.631  1.00  0.00     0.003 A 
HETATM   14  C   UNL     1       7.462   1.909   2.844  1.00  0.00     0.029 A 
HETATM   15  C   UNL     1       8.855   1.805   2.827  1.00  0.00     0.035 A 
HETATM   16  C   UNL     1       9.432   0.563   2.557  1.00  0.00     0.044 A 
BRANCH  15  17
HETATM   17  N   UNL     1       9.607   2.975   3.072  1.00  0.00    -0.327 N 
HETATM   18  C   UNL     1      10.975   3.055   3.288  1.00  0.00     0.222 C 
HETATM   19  O   UNL     1      11.752   2.112   3.394  1.00  0.00    -0.273 OA
HETATM   20  H   UNL     1       9.080   3.834   3.164  1.00  0.00     0.169 HD
BRANCH  18  21
HETATM   21  C   UNL     1      11.442   4.497   3.411  1.00  0.00     0.103 C 
BRANCH  21  22
HETATM   22  C   UNL     1      12.949   4.592   3.648  1.00  0.00     0.005 C 
HETATM   23  C   UNL     1      13.420   6.034   3.708  1.00  0.00     0.005 C 
ENDBRANCH  21  22
ENDBRANCH  18  21
ENDBRANCH  15  17
ENDBRANCH   1  11
BRANCH   3  24
HETATM   24  N   UNL     1      12.584  -2.967   1.060  1.00  0.00    -0.243 NA
HETATM   25  H   UNL     1      13.156  -3.210   1.864  1.00  0.00     0.135 HD
BRANCH  24  26
HETATM   26  C   UNL     1      13.194  -1.928   0.309  1.00  0.00     0.015 A 
HETATM   27  C   UNL     1      14.568  -1.684   0.468  1.00  0.00     0.026 A 
HETATM   28  C   UNL     1      15.248  -0.722  -0.293  1.00  0.00     0.034 A 
HETATM   29  C   UNL     1      14.504  -0.031  -1.250  1.00  0.00     0.061 A 
HETATM   30  N   UNL     1      14.846   0.953  -2.141  1.00  0.00    -0.278 N 
HETATM   31  C   UNL     1      13.153  -0.267  -1.468  1.00  0.00     0.013 A 
HETATM   32  H   UNL     1      15.752   1.390  -2.262  1.00  0.00     0.189 HD
HETATM   33  N   UNL     1      13.836   1.352  -2.934  1.00  0.00    -0.186 NA
HETATM   34  C   UNL     1      12.804   0.615  -2.514  1.00  0.00     0.152 A 
HETATM   35  C   UNL     1      12.490  -1.234  -0.691  1.00  0.00     0.039 A 
ENDBRANCH  24  26
ENDBRANCH   3  24
BRANCH   7  36
HETATM   36  O   UNL     1       8.610  -7.665   3.002  1.00  0.00    -0.353 OA
HETATM   37  C   UNL     1       8.536  -8.700   2.023  1.00  0.00     0.210 C 
ENDBRANCH   7  36
BRANCH   6  38
HETATM   38  O   UNL     1      11.294  -7.875   2.189  1.00  0.00    -0.347 OA
BRANCH  38  39
HETATM   39  C   UNL     1      12.691  -7.861   2.505  1.00  0.00     0.206 C 
BRANCH  39  40
HETATM   40  C   UNL     1      13.074  -9.289   2.929  1.00  0.00     0.299 C 
BRANCH  40  41
HETATM   41  N   UNL     1      14.504  -9.475   3.250  1.00  0.00     0.093 N 
HETATM   42  C   UNL     1      15.388  -9.403   2.069  1.00  0.00     0.300 C 
HETATM   43  C   UNL     1      15.327 -10.625   1.129  1.00  0.00     0.264 C 
HETATM   44  N   UNL     1      15.571 -11.903   1.916  1.00  0.00    -0.072 N 
HETATM   45  H   UNL     1      16.524 -11.836   2.298  1.00  0.00     0.279 HD
HETATM   46  C   UNL     1      15.522 -13.120   1.042  1.00  0.00     0.269 C 
HETATM   47  C   UNL     1      14.633 -12.015   3.108  1.00  0.00     0.264 C 
HETATM   48  C   UNL     1      14.728 -10.743   3.977  1.00  0.00     0.300 C 
ENDBRANCH  40  41
ENDBRANCH  39  40
ENDBRANCH  38  39
ENDBRANCH   6  38
TORSDOF 11
