REMARK  4 active torsions:
REMARK  status: ('A' for Active; 'I' for Inactive)
REMARK    1  A    between atoms: C_2  and  N_3 
REMARK    2  A    between atoms: C_11  and  C_12 
REMARK    3  A    between atoms: C_12  and  N_13 
REMARK    4  A    between atoms: C_16  and  N_17 
ROOT
HETATM    1  N   UNL     1       5.083  -3.538   5.774  1.00  0.00    -0.065 N 
HETATM    2  H   UNL     1       5.972  -3.544   5.247  1.00  0.00     0.280 HD
HETATM    3  C   UNL     1       5.339  -3.945   7.215  1.00  0.00     0.268 C 
HETATM    4  C   UNL     1       5.965  -5.370   7.403  1.00  0.00     0.214 C 
HETATM    5  C   UNL     1       4.947  -6.479   7.104  1.00  0.00     0.035 C 
HETATM    6  C   UNL     1       4.809  -6.850   5.629  1.00  0.00     0.004 C 
HETATM    7  C   UNL     1       4.854  -5.722   4.604  1.00  0.00     0.028 C 
HETATM    8  C   UNL     1       4.132  -4.443   5.001  1.00  0.00     0.235 C 
ENDROOT
BRANCH   1   9
HETATM    9  C   UNL     1       4.613  -2.070   5.670  1.00  0.00     0.276 C 
BRANCH   9  10
HETATM   10  C   UNL     1       5.649  -1.059   6.070  1.00  0.00     0.009 A 
HETATM   11  C   UNL     1       6.839  -0.893   5.352  1.00  0.00     0.136 A 
HETATM   12  N   UNL     1       7.835  -0.039   5.638  1.00  0.00    -0.216 NA
HETATM   13 CL   UNL     1       7.222  -1.923   4.020  1.00  0.00    -0.062 Cl
HETATM   14  C   UNL     1       7.580   0.741   6.706  1.00  0.00     0.159 A 
HETATM   15  N   UNL     1       8.368   1.746   7.215  1.00  0.00    -0.248 N 
HETATM   16  C   UNL     1       6.451   0.696   7.512  1.00  0.00     0.031 A 
HETATM   17  N   UNL     1       7.863   2.283   8.349  1.00  0.00    -0.182 NA
HETATM   18  C   UNL     1       6.682   1.680   8.495  1.00  0.00     0.154 A 
HETATM   19  C   UNL     1       5.443  -0.228   7.187  1.00  0.00     0.029 A 
BRANCH  15  20
HETATM   20  C   UNL     1       9.625   2.238   6.656  1.00  0.00     0.104 C 
HETATM   21  C   UNL     1      10.817   1.768   7.486  1.00  0.00     0.034 C 
HETATM   22  C   UNL     1       9.621   3.759   6.495  1.00  0.00     0.034 C 
ENDBRANCH  15  20
ENDBRANCH   9  10
ENDBRANCH   1   9
BRANCH   4  23
HETATM   23  N   UNL     1       6.494  -5.590   8.831  1.00  0.00    -0.065 N 
HETATM   24  H   UNL     1       6.776  -6.584   8.884  1.00  0.00     0.280 HD
HETATM   25  C   UNL     1       5.523  -5.404   9.995  1.00  0.00     0.235 C 
HETATM   26  C   UNL     1       6.097  -4.236  10.769  1.00  0.00     0.029 C 
HETATM   27  C   UNL     1       7.592  -4.441  10.642  1.00  0.00     0.029 C 
HETATM   28  C   UNL     1       7.778  -4.833   9.189  1.00  0.00     0.235 C 
ENDBRANCH   4  23
TORSDOF 4
