REMARK  7 active torsions:
REMARK  status: ('A' for Active; 'I' for Inactive)
REMARK    1  A    between atoms: C_2  and  C_3 
REMARK    2  A    between atoms: C_3  and  O_4 
REMARK    3  A    between atoms: O_4  and  C_5 
REMARK    4  A    between atoms: C_8  and  N_9 
REMARK    5  A    between atoms: C_12  and  N_13 
REMARK    6  A    between atoms: C_17  and  O_18 
REMARK    7  A    between atoms: C_17  and  C_19 
ROOT
HETATM    1  N   UNL     1       7.954  -3.036   5.099  1.00  0.00    -0.251 N 
HETATM    2  C   UNL     1       8.941  -2.498   5.893  1.00  0.00     0.262 C 
HETATM    3  O   UNL     1       9.135  -1.357   6.289  1.00  0.00    -0.270 OA
HETATM    4  C   UNL     1       9.869  -3.620   6.292  1.00  0.00     0.289 C 
HETATM    5  C   UNL     1       9.002  -4.845   6.185  1.00  0.00     0.146 C 
HETATM    6  C   UNL     1       8.005  -4.417   5.144  1.00  0.00     0.233 C 
HETATM    7  O   UNL     1       7.381  -5.248   4.505  1.00  0.00    -0.273 OA
ENDROOT
BRANCH   4   8
HETATM    8  N   UNL     1      10.562  -3.435   7.653  1.00  0.00    -0.058 N 
HETATM    9  H   UNL     1      10.991  -2.495   7.574  1.00  0.00     0.281 HD
HETATM   10  C   UNL     1       9.637  -3.329   8.849  1.00  0.00     0.239 C 
HETATM   11  C   UNL     1      10.448  -3.043  10.103  1.00  0.00     0.071 C 
HETATM   12  C   UNL     1      11.508  -4.135  10.364  1.00  0.00     0.088 C 
HETATM   13  C   UNL     1      12.437  -4.122   9.133  1.00  0.00     0.071 C 
HETATM   14  C   UNL     1      11.685  -4.424   7.848  1.00  0.00     0.239 C 
BRANCH  12  15
HETATM   15  O   UNL     1      12.295  -3.688  11.468  1.00  0.00    -0.385 OA
HETATM   16  H   UNL     1      12.304  -4.370  12.165  1.00  0.00     0.211 HD
ENDBRANCH  12  15
BRANCH  12  17
HETATM   17  C   UNL     1      10.929  -5.511  10.719  1.00  0.00    -0.024 A 
HETATM   18  C   UNL     1      11.597  -6.706  10.386  1.00  0.00     0.011 A 
HETATM   19  C   UNL     1      11.050  -7.958  10.690  1.00  0.00     0.020 A 
HETATM   20  C   UNL     1       9.838  -8.041  11.363  1.00  0.00     0.011 A 
HETATM   21 BR   UNL     1       9.092  -9.729  11.761  1.00  0.00    -0.051 Br
HETATM   22  C   UNL     1       9.182  -6.881  11.756  1.00  0.00     0.020 A 
HETATM   23  C   UNL     1       9.731  -5.630  11.451  1.00  0.00     0.011 A 
ENDBRANCH  12  17
ENDBRANCH   4   8
BRANCH   1  24
HETATM   24  C   UNL     1       7.033  -2.276   4.311  1.00  0.00     0.045 A 
HETATM   25  C   UNL     1       7.181  -0.889   4.141  1.00  0.00     0.033 A 
HETATM   26  C   UNL     1       6.321  -0.151   3.311  1.00  0.00     0.039 A 
HETATM   27  C   UNL     1       5.291  -0.784   2.628  1.00  0.00     0.068 A 
HETATM   28  C   UNL     1       5.099  -2.147   2.820  1.00  0.00     0.039 A 
HETATM   29  C   UNL     1       5.958  -2.884   3.646  1.00  0.00     0.033 A 
BRANCH  27  30
HETATM   30  O   UNL     1       4.411  -0.189   1.771  1.00  0.00    -0.351 OA
BRANCH  30  31
HETATM   31  C   UNL     1       4.795   1.079   1.234  1.00  0.00     0.175 C 
BRANCH  31  32
HETATM   32  C   UNL     1       3.880   1.381   0.052  1.00  0.00     0.022 C 
HETATM   33  C   UNL     1       4.219   2.710  -0.599  1.00  0.00     0.007 C 
ENDBRANCH  31  32
ENDBRANCH  30  31
ENDBRANCH  27  30
ENDBRANCH   1  24
TORSDOF 7
