REMARK  5 active torsions:
REMARK  status: ('A' for Active; 'I' for Inactive)
REMARK    1  A    between atoms: C_4  and  C_5 
REMARK       I    between atoms: C_5  and  N_6 
REMARK    2  A    between atoms: C_9  and  C_10 
REMARK    3  A    between atoms: C_10  and  C_11 
REMARK    4  A    between atoms: N_20  and  C_21 
REMARK    5  A    between atoms: C_21  and  C_22 
ROOT
HETATM    1  C   UNL     1      -1.884  -1.154   3.478  1.00  0.00     0.148 A 
HETATM    2  N   UNL     1      -2.694  -1.847   2.481  1.00  0.00    -0.320 N 
HETATM    3  C   UNL     1      -2.105  -2.988   1.997  1.00  0.00     0.326 A 
HETATM    4  O   UNL     1      -2.648  -3.755   1.221  1.00  0.00    -0.247 OA
HETATM    5  N   UNL     1      -0.849  -3.069   2.495  1.00  0.00    -0.263 N 
HETATM    6  C   UNL     1      -0.606  -2.027   3.340  1.00  0.00     0.262 A 
HETATM    7  O   UNL     1       0.465  -1.822   3.897  1.00  0.00    -0.270 OA
HETATM    8  H   UNL     1      -3.683  -1.702   2.320  1.00  0.00     0.166 HD
ENDROOT
BRANCH   1   9
HETATM    9  C   UNL     1      -1.697   0.346   3.063  1.00  0.00     0.031 C 
HETATM   10  C   UNL     1      -0.908   1.236   4.044  1.00  0.00     0.028 C 
HETATM   11  C   UNL     1       0.608   1.231   3.871  1.00  0.00     0.126 C 
HETATM   12  N   UNL     1       1.049   1.356   2.479  1.00  0.00    -0.350 N 
HETATM   13  C   UNL     1       2.388   1.729   2.304  1.00  0.00     0.251 C 
HETATM   14  C   UNL     1       0.345   0.529   1.500  1.00  0.00     0.126 C 
HETATM   15  O   UNL     1       3.132   1.954   3.262  1.00  0.00    -0.271 OA
HETATM   16  C   UNL     1      -1.169   0.592   1.637  1.00  0.00     0.028 C 
BRANCH  13  17
HETATM   17  C   UNL     1       2.919   1.923   0.856  1.00  0.00     0.279 C 
HETATM   18  N   UNL     1       4.460   2.027   0.725  1.00  0.00    -0.062 N 
HETATM   19  C   UNL     1       5.161   0.791   1.222  1.00  0.00     0.270 C 
HETATM   20  H   UNL     1       4.660   2.081  -0.281  1.00  0.00     0.280 HD
HETATM   21  C   UNL     1       5.041   3.278   1.343  1.00  0.00     0.235 C 
HETATM   22  C   UNL     1       4.391   4.504   0.722  1.00  0.00     0.028 C 
HETATM   23  C   UNL     1       2.872   4.463   0.819  1.00  0.00     0.004 C 
HETATM   24  C   UNL     1       2.310   3.177   0.217  1.00  0.00     0.043 C 
ENDBRANCH  13  17
ENDBRANCH   1   9
BRANCH   1  25
HETATM   25  C   UNL     1      -2.574  -1.286   4.835  1.00  0.00    -0.003 A 
HETATM   26  C   UNL     1      -1.930  -1.773   5.972  1.00  0.00     0.126 A 
HETATM   27  N   UNL     1      -2.506  -1.878   7.192  1.00  0.00    -0.272 NA
HETATM   28  C   UNL     1      -3.793  -1.493   7.304  1.00  0.00     0.116 A 
HETATM   29  C   UNL     1      -4.531  -0.991   6.250  1.00  0.00     0.020 A 
HETATM   30  C   UNL     1      -3.911  -0.883   5.007  1.00  0.00     0.013 A 
ENDBRANCH   1  25
BRANCH   5  31
HETATM   31  C   UNL     1       0.088  -4.128   2.196  1.00  0.00     0.175 C 
BRANCH  31  32
HETATM   32  C   UNL     1       0.095  -5.192   3.267  1.00  0.00    -0.040 A 
HETATM   33  C   UNL     1      -0.797  -6.273   3.198  1.00  0.00     0.012 A 
HETATM   34  C   UNL     1      -0.798  -7.251   4.194  1.00  0.00     0.043 A 
HETATM   35  C   UNL     1       0.083  -7.142   5.264  1.00  0.00     0.116 A 
HETATM   36  F   UNL     1       0.082  -8.082   6.218  1.00  0.00    -0.206 F 
HETATM   37  C   UNL     1       0.963  -6.071   5.360  1.00  0.00     0.043 A 
HETATM   38  C   UNL     1       0.968  -5.094   4.364  1.00  0.00     0.012 A 
ENDBRANCH  31  32
ENDBRANCH   5  31
TORSDOF 5
