REMARK  7 active torsions:
REMARK  status: ('A' for Active; 'I' for Inactive)
REMARK    1  A    between atoms: C_4  and  N_5 
REMARK    2  A    between atoms: N_8  and  C_10 
REMARK    3  A    between atoms: C_10  and  C_11 
REMARK    4  A    between atoms: C_11  and  C_12 
REMARK    5  A    between atoms: C_12  and  N_13 
REMARK       I    between atoms: N_13  and  C_14 
REMARK    6  A    between atoms: C_14  and  C_15 
REMARK    7  A    between atoms: C_21  and  C_22 
ROOT
HETATM    1  N   UNL     1       7.454   8.662   2.838  1.00  0.00    -0.357 N 
HETATM    2  C   UNL     1       7.277   7.964   4.016  1.00  0.00     0.251 C 
HETATM    3  O   UNL     1       6.264   7.291   4.208  1.00  0.00    -0.268 OA
HETATM    4  H   UNL     1       8.328   9.137   2.646  1.00  0.00     0.162 HD
ENDROOT
BRANCH   2   5
HETATM    5  C   UNL     1       8.415   7.946   4.981  1.00  0.00     0.034 A 
HETATM    6  C   UNL     1       9.456   8.883   4.956  1.00  0.00     0.048 A 
HETATM    7  C   UNL     1      10.549   8.757   5.829  1.00  0.00     0.053 A 
HETATM    8  C   UNL     1      10.605   7.706   6.742  1.00  0.00     0.032 A 
HETATM    9  N   UNL     1      11.570   9.703   5.733  1.00  0.00    -0.321 N 
HETATM   10  S   UNL     1      11.969   7.430   7.828  1.00  0.00    -0.083 SA
HETATM   11  C   UNL     1       9.544   6.793   6.790  1.00  0.00     0.022 A 
HETATM   12  C   UNL     1      12.932   8.848   7.629  1.00  0.00     0.074 C 
HETATM   13  C   UNL     1      13.961   9.145   8.449  1.00  0.00     0.036 C 
HETATM   14  C   UNL     1      12.691   9.807   6.503  1.00  0.00     0.263 C 
HETATM   15  O   UNL     1      13.473  10.724   6.246  1.00  0.00    -0.267 OA
HETATM   16  C   UNL     1       8.456   6.911   5.921  1.00  0.00     0.018 A 
HETATM   17  H   UNL     1      11.514  10.438   5.039  1.00  0.00     0.169 HD
BRANCH  13  18
HETATM   18  C   UNL     1      14.386   8.363   9.616  1.00  0.00    -0.035 A 
HETATM   19  C   UNL     1      15.478   7.495   9.517  1.00  0.00     0.011 A 
HETATM   20  C   UNL     1      15.874   6.739  10.622  1.00  0.00     0.001 A 
HETATM   21  C   UNL     1      15.183   6.849  11.828  1.00  0.00     0.000 A 
HETATM   22  C   UNL     1      14.098   7.718  11.933  1.00  0.00     0.001 A 
HETATM   23  C   UNL     1      13.700   8.475  10.830  1.00  0.00     0.011 A 
ENDBRANCH  13  18
ENDBRANCH   2   5
BRANCH   1  24
HETATM   24  C   UNL     1       6.453   8.668   1.792  1.00  0.00     0.124 C 
BRANCH  24  25
HETATM   25  C   UNL     1       6.622   7.510   0.809  1.00  0.00     0.047 C 
BRANCH  25  26
HETATM   26  C   UNL     1       6.578   6.100   1.401  1.00  0.00     0.236 C 
BRANCH  26  27
HETATM   27  N   UNL     1       5.308   5.795   2.158  1.00  0.00    -0.068 N 
HETATM   28  C   UNL     1       4.068   5.819   1.265  1.00  0.00     0.254 C 
HETATM   29  C   UNL     1       2.798   5.309   1.979  1.00  0.00     0.150 C 
HETATM   30  N   UNL     1       3.075   3.999   2.583  1.00  0.00    -0.377 N 
HETATM   31  C   UNL     1       4.128   4.067   3.612  1.00  0.00     0.150 C 
HETATM   32  C   UNL     1       5.448   4.464   2.919  1.00  0.00     0.254 C 
HETATM   33  H   UNL     1       5.223   6.502   2.917  1.00  0.00     0.280 HD
BRANCH  30  34
HETATM   34  C   UNL     1       2.014   3.120   2.831  1.00  0.00     0.036 A 
HETATM   35  C   UNL     1       0.696   3.585   3.007  1.00  0.00     0.036 A 
HETATM   36  C   UNL     1      -0.388   2.715   3.209  1.00  0.00    -0.060 A 
HETATM   37  C   UNL     1      -1.791   3.237   3.316  1.00  0.00     0.048 C 
HETATM   38  C   UNL     1      -0.155   1.342   3.248  1.00  0.00     0.007 A 
HETATM   39  C   UNL     1       1.135   0.851   3.080  1.00  0.00     0.009 A 
HETATM   40  C   UNL     1       2.218   1.719   2.843  1.00  0.00    -0.035 A 
HETATM   41  C   UNL     1       3.557   1.077   2.588  1.00  0.00     0.050 C 
ENDBRANCH  30  34
ENDBRANCH  26  27
ENDBRANCH  25  26
ENDBRANCH  24  25
ENDBRANCH   1  24
TORSDOF 7
