REMARK  5 active torsions:
REMARK  status: ('A' for Active; 'I' for Inactive)
REMARK    1  A    between atoms: C_5  and  C_6 
REMARK    2  A    between atoms: C_6  and  N_7 
REMARK       I    between atoms: N_7  and  C_8 
REMARK       I    between atoms: C_8  and  N_9 
REMARK    3  A    between atoms: N_9  and  C_10 
REMARK    4  A    between atoms: C_10  and  C_11 
REMARK    5  A    between atoms: N_14  and  C_15 
ROOT
HETATM    1  N   UNL     1       9.765  -2.604   0.034  1.00  0.00    -0.339 N 
HETATM    2  C   UNL     1       9.226  -1.355   0.153  1.00  0.00     0.316 C 
HETATM    3  N   UNL     1       9.555  -0.547  -0.898  1.00  0.00    -0.339 N 
HETATM    4  O   UNL     1       8.546  -0.995   1.104  1.00  0.00    -0.247 OA
HETATM    5  H   UNL     1      10.351  -2.821  -0.756  1.00  0.00     0.164 HD
HETATM    6  H   UNL     1       9.876  -0.973  -1.752  1.00  0.00     0.164 HD
ENDROOT
BRANCH   3   7
HETATM    7  C   UNL     1       9.052   0.804  -0.985  1.00  0.00     0.165 C 
BRANCH   7   8
HETATM    8  C   UNL     1      10.134   1.754  -1.407  1.00  0.00    -0.016 A 
HETATM    9  C   UNL     1       9.968   3.113  -1.658  1.00  0.00     0.021 A 
HETATM   10  C   UNL     1       8.683   3.879  -1.679  1.00  0.00     0.069 C 
HETATM   11  N   UNL     1      11.209   3.676  -1.955  1.00  0.00    -0.319 N 
HETATM   12  C   UNL     1      12.153   2.653  -1.949  1.00  0.00     0.014 A 
HETATM   13  C   UNL     1      13.619   2.846  -2.141  1.00  0.00     0.068 C 
HETATM   14  C   UNL     1      11.509   1.479  -1.609  1.00  0.00     0.035 A 
BRANCH  11  15
HETATM   15  C   UNL     1      11.472   5.058  -2.190  1.00  0.00     0.039 A 
HETATM   16  C   UNL     1      10.919   6.029  -1.345  1.00  0.00     0.030 A 
HETATM   17  C   UNL     1      11.184   7.382  -1.567  1.00  0.00     0.002 A 
HETATM   18  C   UNL     1      11.997   7.770  -2.630  1.00  0.00     0.000 A 
HETATM   19  C   UNL     1      12.550   6.807  -3.473  1.00  0.00     0.002 A 
HETATM   20  C   UNL     1      12.291   5.451  -3.254  1.00  0.00     0.030 A 
ENDBRANCH  11  15
ENDBRANCH   7   8
ENDBRANCH   3   7
BRANCH   1  21
HETATM   21  C   UNL     1       9.658  -3.584   1.092  1.00  0.00     0.162 C 
BRANCH  21  22
HETATM   22  C   UNL     1       8.846  -4.791   0.696  1.00  0.00    -0.040 A 
HETATM   23  C   UNL     1       9.280  -6.077   1.050  1.00  0.00     0.009 A 
HETATM   24  C   UNL     1       8.495  -7.199   0.767  1.00  0.00     0.007 A 
HETATM   25  C   UNL     1       7.260  -7.058   0.128  1.00  0.00    -0.062 A 
HETATM   26  C   UNL     1       6.392  -8.250  -0.147  1.00  0.00     0.048 C 
HETATM   27  C   UNL     1       6.820  -5.777  -0.222  1.00  0.00     0.007 A 
HETATM   28  C   UNL     1       7.601  -4.655   0.065  1.00  0.00     0.009 A 
ENDBRANCH  21  22
ENDBRANCH   1  21
TORSDOF 5
