REMARK  10 active torsions:
REMARK  status: ('A' for Active; 'I' for Inactive)
REMARK    1  A    between atoms: O_2  and  C_3 
REMARK    2  A    between atoms: C_3  and  C_4 
REMARK    3  A    between atoms: C_6  and  C_7 
REMARK    4  A    between atoms: C_7  and  C_8 
REMARK    5  A    between atoms: C_8  and  N_9 
REMARK       I    between atoms: N_9  and  C_10 
REMARK       I    between atoms: C_10  and  N_17 
REMARK    6  A    between atoms: N_17  and  CA_18 
REMARK    7  A    between atoms: CA_18  and  C_19 
REMARK    8  A    between atoms: CA_18  and  CB_21 
REMARK    9  A    between atoms: C_19  and  O_20 
REMARK   10  A    between atoms: CB_21  and  CG_22 
ROOT
HETATM    1  N   UNK A   0       4.815  -7.268   0.427  1.00  0.00    -0.343 N 
HETATM    2  C   UNK A   0       5.746  -7.450   1.417  1.00  0.00     0.316 C 
HETATM    3  O   UNK A   0       6.316  -8.506   1.645  1.00  0.00    -0.248 OA
HETATM    4  H   UNK A   0       4.710  -6.317   0.106  1.00  0.00     0.164 HD
ATOM      5  N   TRP A   1       5.963  -6.280   2.098  1.00  0.00    -0.336 N 
ATOM      6  H   TRP A   1       5.110  -5.742   2.188  1.00  0.00     0.164 HD
ENDROOT
BRANCH   5   7
ATOM      7  CA  TRP A   1       6.833  -6.236   3.288  1.00  0.00     0.114 C 
BRANCH   7   8
ATOM      8  C   TRP A   1       8.297  -6.577   2.938  1.00  0.00     0.189 C 
BRANCH   8   9
ATOM      9  O   TRP A   1       8.794  -5.689   1.937  1.00  0.00    -0.399 OA
ATOM     10  H   TRP A   1       8.194  -5.802   1.177  1.00  0.00     0.209 HD
ENDBRANCH   8   9
ENDBRANCH   7   8
BRANCH   7  11
ATOM     11  CB  TRP A   1       6.783  -4.841   3.953  1.00  0.00     0.068 C 
BRANCH  11  12
ATOM     12  CG  TRP A   1       5.417  -4.478   4.461  1.00  0.00    -0.028 A 
ATOM     13  CD2 TRP A   1       4.443  -3.661   3.799  1.00  0.00    -0.002 A 
ATOM     14  CE2 TRP A   1       3.314  -3.611   4.615  1.00  0.00     0.042 A 
ATOM     15  CE3 TRP A   1       4.415  -2.966   2.571  1.00  0.00     0.014 A 
ATOM     16  CZ2 TRP A   1       2.155  -2.908   4.265  1.00  0.00     0.030 A 
ATOM     17  NE1 TRP A   1       3.596  -4.347   5.742  1.00  0.00    -0.365 N 
ATOM     18  CH2 TRP A   1       2.151  -2.235   3.040  1.00  0.00     0.002 A 
ATOM     19  CZ3 TRP A   1       3.264  -2.260   2.204  1.00  0.00     0.001 A 
ATOM     20  HE1 TRP A   1       2.959  -4.477   6.516  1.00  0.00     0.165 HD
ATOM     21  CD1 TRP A   1       4.857  -4.875   5.660  1.00  0.00     0.096 A 
ENDBRANCH  11  12
ENDBRANCH   7  11
ENDBRANCH   5   7
BRANCH   1  22
HETATM   22  C   UNK A   0       4.528  -8.322  -0.529  1.00  0.00     0.129 C 
BRANCH  22  23
HETATM   23  C   UNK A   0       3.669  -9.444   0.061  1.00  0.00     0.058 C 
BRANCH  23  24
HETATM   24  C   UNK A   0       3.353 -10.495  -0.976  1.00  0.00    -0.056 A 
HETATM   25  C   UNK A   0       2.174 -10.420  -1.733  1.00  0.00     0.024 A 
HETATM   26  C   UNK A   0       1.894 -11.379  -2.719  1.00  0.00     0.040 A 
HETATM   27  C   UNK A   0       2.804 -12.419  -2.947  1.00  0.00     0.017 A 
HETATM   28  C   UNK A   0       3.980 -12.496  -2.198  1.00  0.00     0.002 A 
HETATM   29  C   UNK A   0       4.254 -11.540  -1.220  1.00  0.00     0.007 A 
BRANCH  26  30
HETATM   30  C   UNK A   0       0.628 -11.242  -3.491  1.00  0.00     0.292 C 
HETATM   31  O   UNK A   0      -0.171 -10.335  -3.319  1.00  0.00    -0.259 OA
BRANCH  30  32
HETATM   32  O   UNK A   0       0.504 -12.248  -4.393  1.00  0.00    -0.323 OA
HETATM   33  C   UNK A   0      -0.690 -12.182  -5.174  1.00  0.00     0.213 C 
ENDBRANCH  30  32
ENDBRANCH  26  30
ENDBRANCH  23  24
ENDBRANCH  22  23
ENDBRANCH   1  22
TORSDOF 10
