REMARK  10 active torsions:
REMARK  status: ('A' for Active; 'I' for Inactive)
REMARK    1  A    between atoms: N_7  and  C_8 
REMARK    2  A    between atoms: C_8  and  C_9 
REMARK       I    between atoms: C_9  and  N_10 
REMARK    3  A    between atoms: N_10  and  C_11 
REMARK    4  A    between atoms: C_11  and  C_12 
REMARK    5  A    between atoms: C_12  and  C_13 
REMARK    6  A    between atoms: C_13  and  C_14 
REMARK       I    between atoms: C_14  and  N_15 
REMARK    7  A    between atoms: N_15  and  C_16 
REMARK    8  A    between atoms: C_16  and  C_17 
REMARK    9  A    between atoms: C_17  and  C_18 
REMARK   10  A    between atoms: C_18  and  N_19 
ROOT
HETATM    1  C   UNL     1       6.747   3.411   0.273  1.00  0.00     0.123 C 
ENDROOT
BRANCH   1   2
HETATM    2  N   UNL     1       6.536   4.613   1.052  1.00  0.00    -0.360 N 
HETATM    3  C   UNL     1       7.214   5.785   0.775  1.00  0.00     0.235 C 
HETATM    4  O   UNL     1       8.043   5.873  -0.127  1.00  0.00    -0.272 OA
HETATM    5  H   UNL     1       5.921   4.565   1.856  1.00  0.00     0.162 HD
BRANCH   3   6
HETATM    6  C   UNL     1       6.785   6.973   1.634  1.00  0.00     0.235 C 
BRANCH   6   7
HETATM    7  N   UNL     1       7.884   7.907   1.787  1.00  0.00    -0.299 N 
HETATM    8  C   UNL     1       8.029   8.960   0.904  1.00  0.00     0.214 A 
HETATM    9  N   UNL     1       8.949   9.867   0.960  1.00  0.00    -0.235 NA
HETATM   10  C   UNL     1       9.816   9.719   1.992  1.00  0.00     0.115 A 
HETATM   11  C   UNL     1       9.832   8.700   2.919  1.00  0.00     0.075 A 
HETATM   12  S   UNL     1      11.053  10.849   2.278  1.00  0.00    -0.074 SA
HETATM   13  C   UNL     1      10.894   8.836   3.885  1.00  0.00    -0.031 A 
HETATM   14  C   UNL     1       8.807   7.674   2.803  1.00  0.00     0.262 A 
HETATM   15  C   UNL     1      11.151   7.865   4.992  1.00  0.00     0.050 C 
HETATM   16  C   UNL     1      11.613  10.002   3.658  1.00  0.00    -0.012 A 
HETATM   17  C   UNL     1      12.762  10.563   4.432  1.00  0.00     0.057 C 
HETATM   18  O   UNL     1       8.759   6.689   3.538  1.00  0.00    -0.267 OA
ENDBRANCH   6   7
ENDBRANCH   3   6
ENDBRANCH   1   2
BRANCH   1  19
HETATM   19  C   UNL     1       8.062   2.719   0.622  1.00  0.00     0.029 C 
BRANCH  19  20
HETATM   20  C   UNL     1       8.287   1.507  -0.275  1.00  0.00     0.104 C 
BRANCH  20  21
HETATM   21  C   UNL     1       9.594   0.812   0.030  1.00  0.00     0.217 C 
HETATM   22  N   UNL     1      10.722   1.536  -0.287  1.00  0.00    -0.361 N 
HETATM   23  H   UNL     1      10.595   2.397  -0.813  1.00  0.00     0.162 HD
HETATM   24  O   UNL     1       9.647  -0.305   0.537  1.00  0.00    -0.274 OA
BRANCH  22  25
HETATM   25  C   UNL     1      12.045   0.946  -0.276  1.00  0.00     0.124 C 
BRANCH  25  26
HETATM   26  C   UNL     1      12.709   0.930   1.105  1.00  0.00     0.047 C 
BRANCH  26  27
HETATM   27  C   UNL     1      12.044  -0.053   2.066  1.00  0.00     0.236 C 
BRANCH  27  28
HETATM   28  N   UNL     1      12.917  -0.313   3.291  1.00  0.00    -0.070 N 
HETATM   29  H   UNL     1      13.853  -0.555   2.944  1.00  0.00     0.279 HD
HETATM   30  C   UNL     1      13.042   0.896   4.191  1.00  0.00     0.239 C 
HETATM   31  C   UNL     1      13.984   0.582   5.355  1.00  0.00     0.008 C 
HETATM   32  C   UNL     1      13.512  -0.653   6.130  1.00  0.00     0.011 C 
HETATM   33  C   UNL     1      14.091   1.789   6.287  1.00  0.00     0.011 C 
HETATM   34  C   UNL     1      13.297  -1.871   5.223  1.00  0.00     0.008 C 
HETATM   35  C   UNL     1      12.386  -1.517   4.046  1.00  0.00     0.239 C 
HETATM   36  C   UNL     1      14.624  -2.480   4.762  1.00  0.00     0.011 C 
ENDBRANCH  27  28
ENDBRANCH  26  27
ENDBRANCH  25  26
ENDBRANCH  22  25
ENDBRANCH  20  21
ENDBRANCH  19  20
ENDBRANCH   1  19
TORSDOF 10
