REMARK  8 active torsions:
REMARK  status: ('A' for Active; 'I' for Inactive)
REMARK    1  A    between atoms: C_4  and  C_5 
REMARK    2  A    between atoms: C_5  and  N_6 
REMARK       I    between atoms: N_6  and  C_7 
REMARK    3  A    between atoms: C_7  and  C_8 
REMARK    4  A    between atoms: C_9  and  N_10 
REMARK       I    between atoms: N_10  and  C_11 
REMARK    5  A    between atoms: C_11  and  C_12 
REMARK    6  A    between atoms: C_12  and  C_13 
REMARK    7  A    between atoms: C_13  and  C_14 
REMARK    8  A    between atoms: C_14  and  N_15 
ROOT
HETATM    1  C   UNL     1       5.427  -0.044  -0.269  1.00  0.00     0.073 A 
HETATM    2  C   UNL     1       5.164   1.302  -0.041  1.00  0.00     0.093 A 
HETATM    3  S   UNL     1       6.390   2.335  -0.661  1.00  0.00    -0.075 SA
HETATM    4  C   UNL     1       7.258   1.048  -1.314  1.00  0.00    -0.008 A 
HETATM    5  C   UNL     1       6.695  -0.172  -1.003  1.00  0.00    -0.026 A 
HETATM    6  C   UNL     1       7.352  -1.460  -1.441  1.00  0.00     0.041 C 
HETATM    7  C   UNL     1       8.802  -1.249  -1.909  1.00  0.00     0.005 C 
HETATM    8  C   UNL     1       8.934  -0.022  -2.815  1.00  0.00     0.005 C 
HETATM    9  C   UNL     1       8.529   1.259  -2.076  1.00  0.00     0.047 C 
ENDROOT
BRANCH   2  10
HETATM   10  N   UNL     1       4.244   2.113   0.589  1.00  0.00    -0.320 N 
HETATM   11  C   UNL     1       2.912   1.881   0.829  1.00  0.00     0.222 C 
HETATM   12  O   UNL     1       2.254   0.935   0.420  1.00  0.00    -0.273 OA
HETATM   13  H   UNL     1       4.555   3.075   0.668  1.00  0.00     0.169 HD
BRANCH  11  14
HETATM   14  C   UNL     1       2.289   3.039   1.597  1.00  0.00     0.105 C 
BRANCH  14  15
HETATM   15  C   UNL     1       0.843   2.808   2.024  1.00  0.00     0.029 C 
BRANCH  15  16
HETATM   16  C   UNL     1       0.722   1.772   3.143  1.00  0.00     0.136 C 
BRANCH  16  17
HETATM   17  N   UNL     1      -0.618   1.756   3.700  1.00  0.00    -0.280 N 
HETATM   18  C   UNL     1      -1.022   2.565   4.728  1.00  0.00     0.261 A 
HETATM   19  O   UNL     1      -0.384   3.389   5.356  1.00  0.00    -0.267 OA
HETATM   20  C   UNL     1      -2.440   2.284   4.944  1.00  0.00     0.048 A 
HETATM   21  C   UNL     1      -2.826   1.343   4.007  1.00  0.00     0.048 A 
HETATM   22  C   UNL     1      -3.328   2.804   5.865  1.00  0.00     0.018 A 
HETATM   23  C   UNL     1      -1.655   1.023   3.193  1.00  0.00     0.261 A 
HETATM   24  C   UNL     1      -4.121   0.868   3.937  1.00  0.00     0.018 A 
HETATM   25  O   UNL     1      -1.674   0.257   2.249  1.00  0.00    -0.267 OA
HETATM   26  C   UNL     1      -5.039   1.378   4.861  1.00  0.00     0.001 A 
HETATM   27  C   UNL     1      -4.646   2.338   5.817  1.00  0.00     0.001 A 
ENDBRANCH  16  17
ENDBRANCH  15  16
ENDBRANCH  14  15
ENDBRANCH  11  14
ENDBRANCH   2  10
BRANCH   1  28
HETATM   28  C   UNL     1       4.715  -1.250   0.184  1.00  0.00     0.255 C 
HETATM   29  N   UNL     1       3.364  -1.290  -0.006  1.00  0.00    -0.353 N 
HETATM   30  H   UNL     1       2.862  -0.419  -0.155  1.00  0.00     0.163 HD
HETATM   31  O   UNL     1       5.334  -2.228   0.601  1.00  0.00    -0.268 OA
BRANCH  29  32
HETATM   32  C   UNL     1       2.581  -2.478   0.228  1.00  0.00     0.161 C 
BRANCH  32  33
HETATM   33  C   UNL     1       2.175  -2.651   1.668  1.00  0.00    -0.041 A 
HETATM   34  C   UNL     1       0.982  -2.097   2.148  1.00  0.00     0.009 A 
HETATM   35  C   UNL     1       0.600  -2.280   3.479  1.00  0.00     0.001 A 
HETATM   36  C   UNL     1       1.411  -3.010   4.346  1.00  0.00     0.000 A 
HETATM   37  C   UNL     1       2.606  -3.556   3.884  1.00  0.00     0.001 A 
HETATM   38  C   UNL     1       2.986  -3.376   2.553  1.00  0.00     0.009 A 
ENDBRANCH  32  33
ENDBRANCH  29  32
ENDBRANCH   1  28
TORSDOF 8
