REMARK  6 active torsions:
REMARK  status: ('A' for Active; 'I' for Inactive)
REMARK    1  A    between atoms: C_2  and  C_3 
REMARK    2  A    between atoms: C_3  and  N_4 
REMARK       I    between atoms: N_4  and  C_5 
REMARK    3  A    between atoms: C_5  and  C_6 
REMARK    4  A    between atoms: C_11  and  C_12 
REMARK    5  A    between atoms: C_15  and  O_16 
REMARK    6  A    between atoms: C_21  and  C_22 
ROOT
HETATM    1  C   UNL     1       4.741   3.324  -2.766  1.00  0.00     0.170 A 
HETATM    2  N   UNL     1       3.802   2.833  -3.613  1.00  0.00    -0.163 NA
HETATM    3  N   UNL     1       3.350   3.920  -4.261  1.00  0.00    -0.238 N 
HETATM    4  C   UNL     1       3.878   5.096  -3.797  1.00  0.00     0.145 A 
HETATM    5  N   UNL     1       3.414   6.296  -4.237  1.00  0.00    -0.365 N 
HETATM    6  C   UNL     1       2.132   6.375  -4.937  1.00  0.00     0.118 C 
HETATM    7  C   UNL     1       2.052   5.196  -5.921  1.00  0.00     0.066 C 
HETATM    8  C   UNL     1       2.249   3.843  -5.208  1.00  0.00     0.221 C 
HETATM    9  C   UNL     1       4.826   4.740  -2.865  1.00  0.00     0.115 A 
HETATM   10 CL   UNL     1       5.809   5.794  -1.969  1.00  0.00    -0.077 Cl
HETATM   11  H   UNL     1       3.679   7.143  -3.733  1.00  0.00     0.162 HD
ENDROOT
BRANCH   6  12
HETATM   12  C   UNL     1       0.929   6.461  -4.005  1.00  0.00    -0.035 A 
HETATM   13  C   UNL     1       1.021   6.328  -2.611  1.00  0.00     0.012 A 
HETATM   14  C   UNL     1      -0.119   6.400  -1.804  1.00  0.00     0.037 A 
HETATM   15  C   UNL     1      -1.378   6.615  -2.361  1.00  0.00     0.068 A 
HETATM   16  C   UNL     1      -1.487   6.766  -3.741  1.00  0.00     0.037 A 
HETATM   17  C   UNL     1      -0.346   6.695  -4.551  1.00  0.00     0.012 A 
BRANCH  15  18
HETATM   18  O   UNL     1      -2.402   6.659  -1.458  1.00  0.00    -0.356 OA
HETATM   19  C   UNL     1      -3.709   6.871  -1.975  1.00  0.00     0.210 C 
ENDBRANCH  15  18
ENDBRANCH   6  12
BRANCH   8  20
HETATM   20  C   UNL     1       2.474   2.758  -6.238  1.00  0.00     0.409 C 
HETATM   21  F   UNL     1       2.493   1.515  -5.712  1.00  0.00    -0.169 F 
HETATM   22  F   UNL     1       1.460   2.769  -7.144  1.00  0.00    -0.169 F 
HETATM   23  F   UNL     1       3.617   2.938  -6.936  1.00  0.00    -0.169 F 
ENDBRANCH   8  20
BRANCH   1  24
HETATM   24  C   UNL     1       5.479   2.425  -1.865  1.00  0.00     0.273 C 
HETATM   25  N   UNL     1       5.117   1.102  -2.015  1.00  0.00    -0.356 N 
HETATM   26  H   UNL     1       4.367   0.929  -2.681  1.00  0.00     0.162 HD
HETATM   27  O   UNL     1       6.307   2.807  -1.045  1.00  0.00    -0.266 OA
BRANCH  25  28
HETATM   28  C   UNL     1       5.567   0.056  -1.129  1.00  0.00     0.122 C 
BRANCH  28  29
HETATM   29  C   UNL     1       4.757  -0.002   0.165  1.00  0.00     0.015 C 
HETATM   30  C   UNL     1       3.300  -0.375  -0.070  1.00  0.00     0.006 C 
ENDBRANCH  28  29
ENDBRANCH  25  28
ENDBRANCH   1  24
TORSDOF 6
