REMARK  3 active torsions:
REMARK  status: ('A' for Active; 'I' for Inactive)
REMARK    1  A    between atoms: C_2  and  C_3 
REMARK    2  A    between atoms: C_7  and  C_8 
REMARK       I    between atoms: C_8  and  N_9 
REMARK    3  A    between atoms: N_9  and  N_10 
ROOT
HETATM    1  C   UNL     1       1.410  -4.675   0.715  1.00  0.00     0.272 C 
HETATM    2  N   UNL     1       1.746  -5.942   0.267  1.00  0.00    -0.242 N 
HETATM    3  O   UNL     1       0.282  -4.328   1.059  1.00  0.00    -0.266 OA
HETATM    4  H   UNL     1       2.695  -6.181  -0.021  1.00  0.00     0.192 HD
ENDROOT
BRANCH   1   5
HETATM    5  C   UNL     1       2.492  -3.655   0.715  1.00  0.00     0.048 A 
HETATM    6  C   UNL     1       3.816  -3.876   1.171  1.00  0.00     0.008 A 
HETATM    7  C   UNL     1       4.700  -2.782   1.047  1.00  0.00     0.068 A 
HETATM    8  C   UNL     1       4.308  -5.070   1.763  1.00  0.00     0.015 A 
HETATM    9  N   UNL     1       4.327  -1.579   0.581  1.00  0.00    -0.253 NA
HETATM   10  C   UNL     1       6.022  -2.931   1.442  1.00  0.00     0.032 A 
HETATM   11  C   UNL     1       3.042  -1.378   0.219  1.00  0.00     0.036 A 
HETATM   12  C   UNL     1       2.105  -2.392   0.253  1.00  0.00     0.045 A 
HETATM   13  C   UNL     1       6.505  -4.123   1.981  1.00  0.00     0.002 A 
HETATM   14  C   UNL     1       5.643  -5.194   2.151  1.00  0.00     0.001 A 
BRANCH  11  15
HETATM   15  C   UNL     1       2.661   0.011  -0.220  1.00  0.00     0.055 C 
HETATM   16  C   UNL     1       3.092   0.294  -1.650  1.00  0.00     0.011 C 
ENDBRANCH  11  15
ENDBRANCH   1   5
BRANCH   2  17
HETATM   17  N   UNL     1       0.773  -6.899   0.199  1.00  0.00    -0.166 NA
HETATM   18  C   UNL     1       1.150  -8.125   0.027  1.00  0.00     0.157 A 
HETATM   19  C   UNL     1       2.569  -8.690  -0.048  1.00  0.00     0.277 A 
HETATM   20  C   UNL     1       0.257  -9.272  -0.071  1.00  0.00     0.027 A 
HETATM   21  O   UNL     1       3.583  -8.024  -0.033  1.00  0.00    -0.266 OA
HETATM   22  N   UNL     1       2.419 -10.058  -0.128  1.00  0.00    -0.321 N 
HETATM   23  C   UNL     1       1.069 -10.403  -0.146  1.00  0.00     0.048 A 
HETATM   24  H   UNL     1       3.194 -10.702  -0.179  1.00  0.00     0.169 HD
HETATM   25  C   UNL     1       0.525 -11.667  -0.227  1.00  0.00     0.030 A 
HETATM   26  C   UNL     1      -0.873 -11.766  -0.243  1.00  0.00     0.002 A 
HETATM   27  C   UNL     1      -1.687 -10.615  -0.177  1.00  0.00     0.001 A 
HETATM   28  C   UNL     1      -1.120  -9.342  -0.085  1.00  0.00     0.016 A 
ENDBRANCH   2  17
TORSDOF 3
