REMARK  4 active torsions:
REMARK  status: ('A' for Active; 'I' for Inactive)
REMARK    1  A    between atoms: C_2  and  C_3 
REMARK    2  A    between atoms: C_11  and  N_12 
REMARK       I    between atoms: N_12  and  C_13 
REMARK    3  A    between atoms: C_13  and  C_14 
REMARK    4  A    between atoms: C_16  and  C_17 
ROOT
HETATM    1  C   UNL     1       6.793  -0.232  -3.835  1.00  0.00     0.032 A 
HETATM    2  C   UNL     1       7.593   0.884  -4.128  1.00  0.00     0.029 A 
HETATM    3  C   UNL     1       8.993   0.780  -4.226  1.00  0.00    -0.024 A 
HETATM    4  C   UNL     1       9.566  -0.487  -4.015  1.00  0.00     0.012 A 
HETATM    5  C   UNL     1       8.776  -1.604  -3.725  1.00  0.00     0.002 A 
HETATM    6  C   UNL     1       7.390  -1.480  -3.641  1.00  0.00     0.017 A 
ENDROOT
BRANCH   1   7
HETATM    7  C   UNL     1       5.315  -0.048  -3.801  1.00  0.00     0.252 C 
HETATM    8  N   UNL     1       4.598  -0.948  -3.038  1.00  0.00    -0.352 N 
HETATM    9  H   UNL     1       5.102  -1.508  -2.363  1.00  0.00     0.163 HD
HETATM   10  O   UNL     1       4.801   0.877  -4.421  1.00  0.00    -0.268 OA
BRANCH   8  11
HETATM   11  C   UNL     1       3.152  -0.831  -2.884  1.00  0.00     0.084 C 
HETATM   12  C   UNL     1       2.526  -2.190  -2.579  1.00  0.00     0.026 C 
HETATM   13  C   UNL     1       2.836  -2.693  -1.167  1.00  0.00     0.016 C 
HETATM   14  C   UNL     1       2.501  -1.690  -0.022  1.00  0.00    -0.017 C 
HETATM   15  C   UNL     1       0.967  -1.569   0.127  1.00  0.00     0.020 C 
HETATM   16  C   UNL     1       3.106  -0.302  -0.393  1.00  0.00     0.016 C 
HETATM   17  C   UNL     1       2.781   0.186  -1.807  1.00  0.00     0.026 C 
BRANCH  14  18
HETATM   18  C   UNL     1       3.040  -2.188   1.344  1.00  0.00    -0.050 A 
HETATM   19  C   UNL     1       3.184  -3.560   1.626  1.00  0.00     0.008 A 
HETATM   20  C   UNL     1       3.649  -4.008   2.868  1.00  0.00     0.001 A 
HETATM   21  C   UNL     1       3.969  -3.095   3.866  1.00  0.00     0.000 A 
HETATM   22  C   UNL     1       3.814  -1.735   3.624  1.00  0.00     0.001 A 
HETATM   23  C   UNL     1       3.348  -1.289   2.383  1.00  0.00     0.008 A 
ENDBRANCH  14  18
ENDBRANCH   8  11
ENDBRANCH   1   7
BRANCH   3  24
HETATM   24  C   UNL     1       9.825   1.954  -4.557  1.00  0.00    -0.006 A 
HETATM   25  C   UNL     1      11.053   2.202  -3.897  1.00  0.00     0.131 A 
HETATM   26  N   UNL     1      11.895   3.246  -4.137  1.00  0.00    -0.240 NA
HETATM   27  C   UNL     1      11.457   4.076  -5.082  1.00  0.00     0.158 A 
HETATM   28  C   UNL     1      10.269   3.941  -5.790  1.00  0.00     0.085 A 
HETATM   29  N   UNL     1      12.095   5.219  -5.535  1.00  0.00    -0.291 N 
HETATM   30  N   UNL     1      10.170   5.014  -6.681  1.00  0.00    -0.300 N 
HETATM   31  C   UNL     1       9.432   2.877  -5.545  1.00  0.00     0.047 A 
HETATM   32  C   UNL     1       9.088   5.246  -7.592  1.00  0.00     0.161 C 
HETATM   33  C   UNL     1      11.315   5.820  -6.529  1.00  0.00     0.328 A 
HETATM   34  O   UNL     1      11.593   6.842  -7.133  1.00  0.00    -0.247 OA
HETATM   35  H   UNL     1      12.978   5.559  -5.199  1.00  0.00     0.172 HD
ENDBRANCH   3  24
TORSDOF 4
