REMARK  8 active torsions:
REMARK  status: ('A' for Active; 'I' for Inactive)
REMARK    1  A    between atoms: C_2  and  C_3 
REMARK    2  A    between atoms: C_3  and  N_4 
REMARK    3  A    between atoms: N_9  and  C_11 
REMARK    4  A    between atoms: C_11  and  C_12 
REMARK    5  A    between atoms: C_14  and  C_15 
REMARK    6  A    between atoms: C_15  and  C_16 
REMARK    7  A    between atoms: C_16  and  C_17 
REMARK    8  A    between atoms: C_17  and  O_18 
ROOT
HETATM    1  N   UNL     1       0.365   3.561  -0.047  1.00  0.00    -0.066 N 
HETATM    2  H   UNL     1      -0.181   3.553  -0.918  1.00  0.00     0.280 HD
HETATM    3  C   UNL     1      -0.539   3.221   1.118  1.00  0.00     0.246 C 
HETATM    4  C   UNL     1      -1.704   4.223   1.212  1.00  0.00     0.009 C 
HETATM    5  C   UNL     1      -2.601   3.886   2.418  1.00  0.00     0.246 C 
HETATM    6  N   UNL     1      -3.944   4.490   2.074  1.00  0.00    -0.066 N 
HETATM    7  H   UNL     1      -3.994   5.427   2.506  1.00  0.00     0.280 HD
HETATM    8  C   UNL     1      -4.017   4.669   0.578  1.00  0.00     0.236 C 
HETATM    9  C   UNL     1      -2.713   4.072   0.059  1.00  0.00     0.040 C 
HETATM   10  C   UNL     1      -1.133   5.655   1.311  1.00  0.00     0.014 C 
HETATM   11  C   UNL     1      -0.133   5.972   0.195  1.00  0.00     0.029 C 
HETATM   12  C   UNL     1       0.980   4.936   0.092  1.00  0.00     0.235 C 
ENDROOT
BRANCH   1  13
HETATM   13  C   UNL     1       1.452   2.508  -0.281  1.00  0.00     0.273 C 
BRANCH  13  14
HETATM   14  C   UNL     1       0.878   1.146  -0.576  1.00  0.00    -0.032 A 
HETATM   15  C   UNL     1       0.165   0.909  -1.765  1.00  0.00     0.012 A 
HETATM   16  C   UNL     1      -0.427  -0.334  -1.996  1.00  0.00     0.043 A 
HETATM   17  C   UNL     1      -0.300  -1.344  -1.050  1.00  0.00     0.116 A 
HETATM   18  C   UNL     1       0.420  -1.139   0.119  1.00  0.00     0.043 A 
HETATM   19  F   UNL     1      -0.884  -2.527  -1.267  1.00  0.00    -0.206 F 
HETATM   20  C   UNL     1       1.012   0.103   0.358  1.00  0.00     0.012 A 
ENDBRANCH  13  14
ENDBRANCH   1  13
BRANCH   6  21
HETATM   21  C   UNL     1      -5.136   3.757   2.662  1.00  0.00     0.280 C 
BRANCH  21  22
HETATM   22  C   UNL     1      -5.117   3.757   4.153  1.00  0.00     0.009 A 
HETATM   23  S   UNL     1      -5.195   5.247   5.000  1.00  0.00    -0.084 SA
HETATM   24  C   UNL     1      -5.126   4.470   6.517  1.00  0.00     0.058 A 
HETATM   25  C   UNL     1      -5.050   3.101   6.388  1.00  0.00     0.029 A 
HETATM   26  C   UNL     1      -5.048   2.686   5.021  1.00  0.00     0.018 A 
BRANCH  24  27
HETATM   27  C   UNL     1      -5.145   5.178   7.753  1.00  0.00    -0.057 C 
BRANCH  27  28
HETATM   28  C   UNL     1      -5.150   5.797   8.783  1.00  0.00    -0.075 C 
BRANCH  28  29
HETATM   29  C   UNL     1      -5.137   6.578  10.018  1.00  0.00     0.258 C 
BRANCH  29  30
HETATM   30  O   UNL     1      -3.847   6.504  10.605  1.00  0.00    -0.389 OA
HETATM   31  H   UNL     1      -3.757   5.609  10.974  1.00  0.00     0.210 HD
ENDBRANCH  29  30
ENDBRANCH  28  29
ENDBRANCH  27  28
ENDBRANCH  24  27
ENDBRANCH  21  22
ENDBRANCH   6  21
TORSDOF 8
