REMARK  7 active torsions:
REMARK  status: ('A' for Active; 'I' for Inactive)
REMARK    1  A    between atoms: C_2  and  C_3 
REMARK    2  A    between atoms: C_3  and  N_4 
REMARK    3  A    between atoms: C_7  and  C_8 
REMARK       I    between atoms: C_8  and  N_9 
REMARK    4  A    between atoms: N_9  and  C_10 
REMARK    5  A    between atoms: C_11  and  O_12 
REMARK    6  A    between atoms: C_16  and  C_17 
REMARK       I    between atoms: C_17  and  N_18 
REMARK    7  A    between atoms: C_23  and  C_24 
ROOT
HETATM    1  C   UNL     1       3.052   2.813  -4.226  1.00  0.00     0.259 C 
HETATM    2  N   UNL     1       1.980   3.619  -4.545  1.00  0.00    -0.320 N 
HETATM    3  O   UNL     1       4.232   3.146  -4.260  1.00  0.00    -0.267 OA
HETATM    4  H   UNL     1       1.080   3.184  -4.724  1.00  0.00     0.169 HD
ENDROOT
BRANCH   2   5
HETATM    5  C   UNL     1       2.014   5.025  -4.691  1.00  0.00     0.069 A 
HETATM    6  C   UNL     1       0.905   5.661  -5.282  1.00  0.00     0.095 A 
HETATM    7  C   UNL     1       0.902   7.054  -5.411  1.00  0.00     0.040 A 
HETATM    8  C   UNL     1       1.990   7.807  -4.957  1.00  0.00     0.020 A 
HETATM    9  C   UNL     1       3.091   7.177  -4.369  1.00  0.00     0.034 A 
HETATM   10  C   UNL     1       3.082   5.791  -4.212  1.00  0.00     0.049 A 
BRANCH   6  11
HETATM   11  O   UNL     1      -0.112   4.830  -5.687  1.00  0.00    -0.354 OA
HETATM   12  C   UNL     1      -1.198   5.434  -6.380  1.00  0.00     0.210 C 
ENDBRANCH   6  11
BRANCH   9  13
HETATM   13  C   UNL     1       4.189   8.016  -3.830  1.00  0.00     0.251 C 
HETATM   14  N   UNL     1       5.497   7.602  -3.888  1.00  0.00    -0.361 N 
HETATM   15  C   UNL     1       6.080   6.506  -4.632  1.00  0.00     0.149 C 
HETATM   16  H   UNL     1       6.133   8.253  -3.443  1.00  0.00     0.162 HD
HETATM   17  O   UNL     1       3.920   9.103  -3.324  1.00  0.00    -0.268 OA
ENDBRANCH   9  13
ENDBRANCH   2   5
BRANCH   1  18
HETATM   18  C   UNL     1       2.671   1.471  -3.854  1.00  0.00     0.076 C 
HETATM   19  C   UNL     1       2.316   0.422  -4.727  1.00  0.00     0.158 C 
HETATM   20  N   UNL     1       2.081  -0.723  -4.087  1.00  0.00    -0.183 NA
HETATM   21  N   UNL     1       2.371  -0.435  -2.799  1.00  0.00    -0.268 N 
HETATM   22  C   UNL     1       2.618   0.905  -2.588  1.00  0.00     0.052 C 
BRANCH  21  23
HETATM   23  C   UNL     1       2.444  -1.523  -1.826  1.00  0.00     0.106 C 
HETATM   24  C   UNL     1       1.044  -2.030  -1.480  1.00  0.00     0.034 C 
BRANCH  23  25
HETATM   25  C   UNL     1       3.357  -2.680  -2.282  1.00  0.00     0.022 C 
HETATM   26  C   UNL     1       4.801  -2.245  -2.504  1.00  0.00     0.007 C 
ENDBRANCH  23  25
ENDBRANCH  21  23
BRANCH  22  27
HETATM   27  C   UNL     1       2.798   1.559  -1.216  1.00  0.00     0.038 A 
HETATM   28  C   UNL     1       3.763   2.702  -1.011  1.00  0.00     0.011 A 
HETATM   29  C   UNL     1       2.298   2.971  -0.994  1.00  0.00     0.011 A 
ENDBRANCH  22  27
ENDBRANCH   1  18
TORSDOF 7
