REMARK  8 active torsions:
REMARK  status: ('A' for Active; 'I' for Inactive)
REMARK    1  A    between atoms: C_10  and  C_11 
REMARK    2  A    between atoms: C_11  and  C_12 
REMARK       I    between atoms: C_12  and  N_13 
REMARK    3  A    between atoms: N_13  and  N_14 
REMARK       I    between atoms: N_14  and  C_15 
REMARK    4  A    between atoms: C_15  and  C_16 
REMARK    5  A    between atoms: C_16  and  C_17 
REMARK    6  A    between atoms: C_17  and  C_18 
REMARK       I    between atoms: C_18  and  N_19 
REMARK    7  A    between atoms: N_19  and  C_20 
REMARK    8  A    between atoms: C_20  and  C_21 
ROOT
HETATM    1  C   UNL     1       4.076   4.229   0.073  1.00  0.00     0.240 C 
HETATM    2  N   UNL     1       3.041   3.694  -0.674  1.00  0.00    -0.267 N 
HETATM    3  O   UNL     1       4.022   5.370   0.533  1.00  0.00    -0.272 OA
HETATM    4  H   UNL     1       2.990   2.704  -0.914  1.00  0.00     0.190 HD
ENDROOT
BRANCH   2   5
HETATM    5  N   UNL     1       1.831   4.405  -0.701  1.00  0.00    -0.268 N 
HETATM    6  C   UNL     1       0.660   3.680  -0.790  1.00  0.00     0.236 C 
HETATM    7  O   UNL     1       0.636   2.471  -1.014  1.00  0.00    -0.272 OA
HETATM    8  H   UNL     1       1.862   5.334  -0.278  1.00  0.00     0.190 HD
BRANCH   6   9
HETATM    9  C   UNL     1      -0.580   4.513  -0.543  1.00  0.00     0.114 C 
BRANCH   9  10
HETATM   10  C   UNL     1      -1.837   3.837  -1.072  1.00  0.00     0.112 C 
BRANCH  10  11
HETATM   11  C   UNL     1      -2.410   2.864  -0.065  1.00  0.00     0.218 C 
HETATM   12  N   UNL     1      -1.872   1.604  -0.128  1.00  0.00    -0.355 N 
HETATM   13  H   UNL     1      -0.964   1.499  -0.584  1.00  0.00     0.162 HD
HETATM   14  O   UNL     1      -3.275   3.196   0.739  1.00  0.00    -0.274 OA
BRANCH  12  15
HETATM   15  C   UNL     1      -2.254   0.589   0.824  1.00  0.00     0.187 C 
BRANCH  15  16
HETATM   16  C   UNL     1      -1.855  -0.734   0.291  1.00  0.00     0.070 A 
HETATM   17  O   UNL     1      -0.639  -1.215   0.682  1.00  0.00    -0.325 OA
HETATM   18  C   UNL     1      -0.476  -2.420   0.078  1.00  0.00     0.142 A 
HETATM   19  C   UNL     1      -1.570  -2.722  -0.699  1.00  0.00     0.027 A 
HETATM   20  C   UNL     1      -2.463  -1.632  -0.563  1.00  0.00     0.036 A 
ENDBRANCH  15  16
ENDBRANCH  12  15
ENDBRANCH  10  11
ENDBRANCH   9  10
ENDBRANCH   6   9
ENDBRANCH   2   5
BRANCH   1  21
HETATM   21  C   UNL     1       5.235   3.288   0.299  1.00  0.00     0.146 C 
BRANCH  21  22
HETATM   22  C   UNL     1       6.422   3.442  -0.607  1.00  0.00    -0.015 A 
HETATM   23  C   UNL     1       6.601   4.242  -1.793  1.00  0.00     0.000 A 
HETATM   24  C   UNL     1       5.796   5.154  -2.511  1.00  0.00     0.021 A 
HETATM   25  C   UNL     1       7.893   4.002  -2.273  1.00  0.00     0.049 A 
HETATM   26  C   UNL     1       6.282   5.778  -3.671  1.00  0.00    -0.061 A 
HETATM   27  C   UNL     1       5.437   6.774  -4.411  1.00  0.00     0.048 C 
HETATM   28  C   UNL     1       7.581   5.509  -4.105  1.00  0.00     0.015 A 
HETATM   29  C   UNL     1       8.423   4.611  -3.427  1.00  0.00    -0.034 A 
HETATM   30  C   UNL     1       9.812   4.379  -3.948  1.00  0.00     0.050 C 
HETATM   31  N   UNL     1       8.478   3.106  -1.410  1.00  0.00    -0.358 N 
HETATM   32  H   UNL     1       9.421   2.760  -1.509  1.00  0.00     0.166 HD
HETATM   33  C   UNL     1       7.614   2.753  -0.411  1.00  0.00     0.013 A 
HETATM   34  C   UNL     1       8.013   1.789   0.649  1.00  0.00     0.068 C 
ENDBRANCH  21  22
ENDBRANCH   1  21
TORSDOF 8
