REMARK  4 active torsions:
REMARK  status: ('A' for Active; 'I' for Inactive)
REMARK    1  A    between atoms: O_2  and  C_3 
REMARK    2  A    between atoms: C_4  and  O_5 
REMARK    3  A    between atoms: C_9  and  N_10 
REMARK    4  A    between atoms: N_10  and  C_11 
ROOT
HETATM    1  C   UNL     1       3.162  -0.913   1.301  1.00  0.00     0.102 A 
HETATM    2  C   UNL     1       3.958  -0.306   2.288  1.00  0.00     0.118 A 
HETATM    3  C   UNL     1       4.614  -1.156   3.173  1.00  0.00     0.086 A 
HETATM    4  C   UNL     1       4.486  -2.539   3.103  1.00  0.00     0.010 A 
HETATM    5  C   UNL     1       5.262  -3.172   4.192  1.00  0.00     0.267 C 
HETATM    6  O   UNL     1       5.908  -2.062   4.823  1.00  0.00    -0.287 OA
HETATM    7  C   UNL     1       5.467  -0.865   4.325  1.00  0.00     0.299 C 
HETATM    8  O   UNL     1       5.771   0.192   4.831  1.00  0.00    -0.259 OA
HETATM    9  C   UNL     1       3.698  -3.138   2.133  1.00  0.00     0.015 A 
HETATM   10  C   UNL     1       3.028  -2.311   1.235  1.00  0.00     0.040 A 
ENDROOT
BRANCH   5  11
HETATM   11  N   UNL     1       4.388  -3.837   5.143  1.00  0.00    -0.346 N 
HETATM   12  H   UNL     1       4.023  -4.708   4.757  1.00  0.00     0.164 HD
BRANCH  11  13
HETATM   13  C   UNL     1       4.706  -3.949   6.491  1.00  0.00     0.102 A 
HETATM   14  N   UNL     1       5.594  -3.128   7.083  1.00  0.00    -0.351 N 
HETATM   15  H   UNL     1       6.051  -2.425   6.498  1.00  0.00     0.166 HD
HETATM   16  C   UNL     1       5.871  -3.143   8.395  1.00  0.00     0.109 A 
HETATM   17  C   UNL     1       5.206  -4.028   9.229  1.00  0.00     0.026 A 
HETATM   18 BR   UNL     1       5.586  -4.058  11.074  1.00  0.00    -0.050 Br
HETATM   19  C   UNL     1       4.247  -4.872   8.691  1.00  0.00     0.024 A 
HETATM   20  C   UNL     1       3.985  -4.821   7.320  1.00  0.00     0.050 A 
ENDBRANCH  11  13
ENDBRANCH   5  11
BRANCH   2  21
HETATM   21  O   UNL     1       3.910   1.052   2.398  1.00  0.00    -0.352 OA
HETATM   22  C   UNL     1       5.164   1.726   2.464  1.00  0.00     0.210 C 
ENDBRANCH   2  21
BRANCH   1  23
HETATM   23  O   UNL     1       2.408  -0.226   0.384  1.00  0.00    -0.353 OA
HETATM   24  C   UNL     1       3.161   0.703  -0.394  1.00  0.00     0.210 C 
ENDBRANCH   1  23
TORSDOF 4
