REMARK  5 active torsions:
REMARK  status: ('A' for Active; 'I' for Inactive)
REMARK    1  A    between atoms: N_2  and  C_4 
REMARK    2  A    between atoms: C_4  and  C_5 
REMARK    3  A    between atoms: C_5  and  N_6 
REMARK    4  A    between atoms: C_11  and  C_12 
REMARK    5  A    between atoms: C_14  and  O_15 
ROOT
HETATM    1  N   UNL     1       2.550   1.463   3.288  1.00  0.00    -0.332 N 
HETATM    2  C   UNL     1       1.865   2.448   3.982  1.00  0.00     0.279 C 
HETATM    3  O   UNL     1       0.838   2.987   3.618  1.00  0.00    -0.265 OA
HETATM    4  C   UNL     1       2.605   2.676   5.235  1.00  0.00     0.156 A 
HETATM    5  C   UNL     1       3.590   1.777   5.265  1.00  0.00     0.060 A 
HETATM    6  C   UNL     1       3.555   0.818   4.135  1.00  0.00     0.161 C 
HETATM    7  O   UNL     1       2.310   3.633   6.163  1.00  0.00    -0.303 OA
HETATM    8  C   UNL     1       3.165   3.707   7.243  1.00  0.00     0.090 A 
HETATM    9  C   UNL     1       4.267   2.850   7.401  1.00  0.00     0.051 A 
HETATM   10  C   UNL     1       4.498   1.778   6.406  1.00  0.00     0.196 A 
HETATM   11  O   UNL     1       5.372   0.936   6.533  1.00  0.00    -0.287 OA
HETATM   12  C   UNL     1       2.898   4.687   8.199  1.00  0.00     0.041 A 
HETATM   13  C   UNL     1       3.746   4.823   9.300  1.00  0.00     0.045 A 
HETATM   14  C   UNL     1       4.851   3.984   9.432  1.00  0.00     0.117 A 
HETATM   15  F   UNL     1       5.665   4.133  10.484  1.00  0.00    -0.206 F 
HETATM   16  C   UNL     1       5.122   2.994   8.495  1.00  0.00     0.060 A 
ENDROOT
BRANCH   6  17
HETATM   17  C   UNL     1       4.825   0.461   3.412  1.00  0.00    -0.028 A 
HETATM   18  C   UNL     1       5.056  -0.892   3.101  1.00  0.00     0.046 A 
HETATM   19  C   UNL     1       6.181  -1.272   2.378  1.00  0.00     0.066 A 
HETATM   20  C   UNL     1       7.102  -0.328   1.954  1.00  0.00     0.036 A 
HETATM   21  C   UNL     1       6.892   1.018   2.259  1.00  0.00     0.003 A 
HETATM   22  C   UNL     1       5.758   1.414   2.980  1.00  0.00     0.010 A 
BRANCH  19  23
HETATM   23  O   UNL     1       6.323  -2.598   2.100  1.00  0.00    -0.361 OA
HETATM   24  H   UNL     1       7.218  -2.746   1.746  1.00  0.00     0.217 HD
ENDBRANCH  19  23
ENDBRANCH   6  17
BRANCH   1  25
HETATM   25  C   UNL     1       2.341   1.191   1.866  1.00  0.00     0.155 C 
BRANCH  25  26
HETATM   26  C   UNL     1       1.507  -0.063   1.587  1.00  0.00     0.254 C 
BRANCH  26  27
HETATM   27  N   UNL     1       0.138   0.019   2.239  1.00  0.00    -0.077 N 
HETATM   28  C   UNL     1      -0.467  -1.343   2.420  1.00  0.00     0.269 C 
HETATM   29  H   UNL     1       0.275   0.432   3.173  1.00  0.00     0.279 HD
HETATM   30  C   UNL     1      -0.811   0.947   1.526  1.00  0.00     0.269 C 
ENDBRANCH  26  27
ENDBRANCH  25  26
ENDBRANCH   1  25
TORSDOF 5
