REMARK  6 active torsions:
REMARK  status: ('A' for Active; 'I' for Inactive)
REMARK    1  A    between atoms: C_2  and  O_3 
REMARK    2  A    between atoms: O_3  and  C_4 
REMARK    3  A    between atoms: C_8  and  C_9 
REMARK    4  A    between atoms: C_9  and  N_10 
REMARK       I    between atoms: N_10  and  C_11 
REMARK       I    between atoms: C_11  and  N_12 
REMARK    5  A    between atoms: N_12  and  C_13 
REMARK    6  A    between atoms: C_14  and  C_15 
ROOT
HETATM    1  N   UNL     1      -0.419  -2.553   3.856  1.00  0.00    -0.339 N 
HETATM    2  C   UNL     1      -1.597  -2.148   3.281  1.00  0.00     0.316 C 
HETATM    3  N   UNL     1      -2.040  -0.959   3.817  1.00  0.00    -0.338 N 
HETATM    4  O   UNL     1      -2.181  -2.768   2.402  1.00  0.00    -0.247 OA
HETATM    5  H   UNL     1       0.168  -1.824   4.231  1.00  0.00     0.164 HD
HETATM    6  H   UNL     1      -1.787  -0.813   4.786  1.00  0.00     0.164 HD
ENDROOT
BRANCH   1   7
HETATM    7  C   UNL     1       0.229  -3.780   3.450  1.00  0.00     0.163 C 
BRANCH   7   8
HETATM    8  C   UNL     1       1.288  -3.558   2.404  1.00  0.00    -0.035 A 
HETATM    9  C   UNL     1       0.953  -3.133   1.115  1.00  0.00     0.028 A 
HETATM   10  C   UNL     1       1.962  -2.982   0.179  1.00  0.00     0.120 A 
HETATM   11  N   UNL     1       3.264  -3.235   0.428  1.00  0.00    -0.237 NA
HETATM   12  C   UNL     1       3.571  -3.658   1.666  1.00  0.00     0.165 A 
HETATM   13  C   UNL     1       2.636  -3.810   2.681  1.00  0.00     0.066 A 
BRANCH  12  14
HETATM   14  O   UNL     1       4.877  -3.932   2.005  1.00  0.00    -0.324 OA
BRANCH  14  15
HETATM   15  C   UNL     1       5.808  -4.303   0.971  1.00  0.00     0.058 C 
HETATM   16  C   UNL     1       6.222  -3.114   0.092  1.00  0.00     0.045 C 
HETATM   17  C   UNL     1       5.328  -5.501   0.136  1.00  0.00     0.045 C 
HETATM   18  C   UNL     1       7.058  -4.757   1.752  1.00  0.00     0.045 C 
ENDBRANCH  14  15
ENDBRANCH  12  14
ENDBRANCH   7   8
ENDBRANCH   1   7
BRANCH   3  19
HETATM   19  C   UNL     1      -3.270  -0.366   3.374  1.00  0.00     0.095 A 
HETATM   20  C   UNL     1      -4.567  -0.456   4.150  1.00  0.00     0.043 A 
HETATM   21  C   UNL     1      -3.813   0.851   4.063  1.00  0.00     0.037 A 
BRANCH  20  22
HETATM   22  C   UNL     1      -4.679  -1.170   5.477  1.00  0.00    -0.052 A 
HETATM   23  C   UNL     1      -5.180  -0.515   6.615  1.00  0.00     0.007 A 
HETATM   24  C   UNL     1      -5.323  -1.177   7.837  1.00  0.00     0.001 A 
HETATM   25  C   UNL     1      -4.969  -2.519   7.946  1.00  0.00     0.000 A 
HETATM   26  C   UNL     1      -4.483  -3.196   6.832  1.00  0.00     0.001 A 
HETATM   27  C   UNL     1      -4.349  -2.529   5.611  1.00  0.00     0.007 A 
ENDBRANCH  20  22
ENDBRANCH   3  19
TORSDOF 6
