REMARK  3 active torsions:
REMARK  status: ('A' for Active; 'I' for Inactive)
REMARK    1  A    between atoms: C_4  and  N_5 
REMARK       I    between atoms: N_5  and  C_6 
REMARK    2  A    between atoms: C_6  and  C_7 
REMARK    3  A    between atoms: C_7  and  C_8 
ROOT
HETATM    1  C   UNL     1       2.412   1.692   0.829  1.00  0.00     0.286 C 
HETATM    2  N   UNL     1       1.201   1.632  -0.112  1.00  0.00    -0.056 N 
HETATM    3  H   UNL     1       0.444   2.221   0.283  1.00  0.00     0.278 HD
HETATM    4  H   UNL     1       1.457   2.053  -1.014  1.00  0.00     0.278 HD
HETATM    5  C   UNL     1       0.629   0.254  -0.326  1.00  0.00     0.209 C 
HETATM    6  C   UNL     1       1.764  -0.718  -0.698  1.00  0.00     0.115 C 
HETATM    7  N   UNL     1       2.799  -0.725   0.322  1.00  0.00    -0.353 N 
HETATM    8  C   UNL     1       3.272   0.418   0.909  1.00  0.00     0.249 C 
HETATM    9  O   UNL     1       4.349   0.406   1.497  1.00  0.00    -0.271 OA
HETATM   10  C   UNL     1      -0.438   0.310  -1.415  1.00  0.00     0.035 C 
HETATM   11  C   UNL     1      -1.003  -1.085  -1.677  1.00  0.00     0.002 C 
HETATM   12  C   UNL     1       0.095  -2.101  -1.993  1.00  0.00     0.002 C 
HETATM   13  C   UNL     1       1.194  -2.119  -0.929  1.00  0.00     0.027 C 
HETATM   14  H   UNL     1       3.461  -1.498   0.353  1.00  0.00     0.163 HD
ENDROOT
BRANCH   1  15
HETATM   15  C   UNL     1       2.049   2.223   2.218  1.00  0.00     0.146 C 
BRANCH  15  16
HETATM   16  C   UNL     1       0.785   1.601   2.727  1.00  0.00     0.224 C 
HETATM   17  N   UNL     1       0.692   0.572   3.595  1.00  0.00    -0.327 N 
HETATM   18  H   UNL     1      -0.287   0.338   3.748  1.00  0.00     0.169 HD
HETATM   19  O   UNL     1      -0.266   1.995   2.192  1.00  0.00    -0.273 OA
BRANCH  17  20
HETATM   20  C   UNL     1       1.584  -0.238   4.325  1.00  0.00     0.035 A 
HETATM   21  C   UNL     1       2.967  -0.094   4.403  1.00  0.00     0.036 A 
HETATM   22  C   UNL     1       3.753  -0.992   5.151  1.00  0.00    -0.060 A 
HETATM   23  C   UNL     1       5.241  -0.806   5.251  1.00  0.00     0.048 C 
HETATM   24  C   UNL     1       3.138  -2.033   5.850  1.00  0.00     0.007 A 
HETATM   25  C   UNL     1       1.758  -2.184   5.793  1.00  0.00     0.003 A 
HETATM   26  C   UNL     1       0.991  -1.294   5.038  1.00  0.00     0.029 A 
ENDBRANCH  17  20
ENDBRANCH  15  16
ENDBRANCH   1  15
TORSDOF 3
