REMARK  6 active torsions:
REMARK  status: ('A' for Active; 'I' for Inactive)
REMARK    1  A    between atoms: C_2  and  O_3 
REMARK    2  A    between atoms: O_3  and  C_4 
REMARK    3  A    between atoms: C_5  and  O_6 
REMARK    4  A    between atoms: C_9  and  C_10 
REMARK    5  A    between atoms: C_19  and  C_20 
REMARK    6  A    between atoms: C_22  and  O_23 
ROOT
HETATM    1  C   UNL     1       6.273  -4.748  -0.488  1.00  0.00     0.156 A 
HETATM    2  N   UNL     1       5.758  -6.086  -0.133  1.00  0.00    -0.343 N 
HETATM    3  C   UNL     1       6.514  -6.757   0.821  1.00  0.00     0.271 A 
HETATM    4  O   UNL     1       6.337  -7.881   1.250  1.00  0.00    -0.266 OA
HETATM    5  C   UNL     1       7.514  -5.821   1.162  1.00  0.00     0.128 A 
HETATM    6  C   UNL     1       7.418  -4.663   0.444  1.00  0.00     0.034 A 
HETATM    7  N   UNL     1       8.529  -5.693   2.028  1.00  0.00    -0.272 N 
HETATM    8  H   UNL     1       8.884  -6.359   2.707  1.00  0.00     0.189 HD
HETATM    9  N   UNL     1       9.072  -4.453   1.969  1.00  0.00    -0.173 NA
HETATM   10  C   UNL     1       8.377  -3.802   1.004  1.00  0.00     0.098 A 
HETATM   11  H   UNL     1       4.999  -6.546  -0.614  1.00  0.00     0.163 HD
ENDROOT
BRANCH   1  12
HETATM   12  C   UNL     1       6.762  -4.714  -1.918  1.00  0.00    -0.028 A 
HETATM   13  C   UNL     1       7.708  -5.634  -2.414  1.00  0.00     0.012 A 
HETATM   14  C   UNL     1       8.082  -5.625  -3.756  1.00  0.00     0.040 A 
HETATM   15  C   UNL     1       7.507  -4.700  -4.614  1.00  0.00     0.099 A 
HETATM   16  C   UNL     1       6.572  -3.765  -4.161  1.00  0.00     0.102 A 
HETATM   17  C   UNL     1       6.200  -3.778  -2.814  1.00  0.00     0.049 A 
BRANCH  15  18
HETATM   18  O   UNL     1       7.875  -4.725  -5.931  1.00  0.00    -0.358 OA
HETATM   19  H   UNL     1       7.346  -4.022  -6.356  1.00  0.00     0.218 HD
ENDBRANCH  15  18
BRANCH  16  20
HETATM   20  O   UNL     1       6.090  -2.922  -5.129  1.00  0.00    -0.349 OA
BRANCH  20  21
HETATM   21  C   UNL     1       5.262  -1.844  -4.698  1.00  0.00     0.171 C 
HETATM   22  C   UNL     1       4.915  -1.012  -5.920  1.00  0.00     0.034 C 
ENDBRANCH  20  21
ENDBRANCH  16  20
ENDBRANCH   1  12
BRANCH  10  23
HETATM   23  C   UNL     1       8.614  -2.385   0.741  1.00  0.00    -0.002 A 
HETATM   24  C   UNL     1       8.806  -1.509   1.825  1.00  0.00     0.050 A 
HETATM   25  C   UNL     1       9.007  -0.144   1.612  1.00  0.00     0.069 A 
HETATM   26  C   UNL     1       9.018   0.346   0.305  1.00  0.00     0.037 A 
HETATM   27  C   UNL     1       8.847  -0.515  -0.779  1.00  0.00     0.004 A 
HETATM   28  C   UNL     1       8.648  -1.880  -0.562  1.00  0.00     0.014 A 
BRANCH  25  29
HETATM   29  O   UNL     1       9.195   0.801   2.583  1.00  0.00    -0.356 OA
HETATM   30  C   UNL     1       9.280   0.334   3.925  1.00  0.00     0.210 C 
ENDBRANCH  25  29
ENDBRANCH  10  23
TORSDOF 6
