REMARK  4 active torsions:
REMARK  status: ('A' for Active; 'I' for Inactive)
REMARK       I    between atoms: C_2  and  N_3 
REMARK    1  A    between atoms: N_3  and  C_4 
REMARK    2  A    between atoms: C_7  and  C_8 
REMARK    3  A    between atoms: C_12  and  N_13 
REMARK    4  A    between atoms: C_20  and  C_21 
ROOT
HETATM    1  C   UNL     1       0.176  -6.369   0.066  1.00  0.00     0.105 C 
HETATM    2  C   UNL     1       0.743  -7.640   0.700  1.00  0.00     0.067 C 
HETATM    3  C   UNL     1       1.286  -7.552   2.116  1.00  0.00     0.020 C 
HETATM    4  N   UNL     1       1.737  -7.479   3.292  1.00  0.00    -0.096 N 
HETATM    5  C   UNL     1       0.813  -8.829   0.043  1.00  0.00     0.139 C 
HETATM    6  O   UNL     1       0.391  -8.962  -1.289  1.00  0.00    -0.279 OA
HETATM    7  C   UNL     1       0.086  -7.835  -1.922  1.00  0.00     0.175 A 
HETATM    8  C   UNL     1      -0.014  -6.565  -1.407  1.00  0.00     0.040 A 
HETATM    9  N   UNL     1      -0.137  -7.749  -3.254  1.00  0.00    -0.256 N 
HETATM   10  H   UNL     1      -0.132  -8.493  -3.942  1.00  0.00     0.191 HD
HETATM   11  N   UNL     1      -0.347  -6.488  -3.665  1.00  0.00    -0.172 NA
HETATM   12  C   UNL     1      -0.269  -5.742  -2.544  1.00  0.00     0.099 A 
ENDROOT
BRANCH   1  13
HETATM   13  C   UNL     1       1.007  -5.119   0.290  1.00  0.00    -0.044 A 
HETATM   14  C   UNL     1       2.245  -4.890  -0.330  1.00  0.00     0.010 A 
HETATM   15  C   UNL     1       2.930  -3.681  -0.145  1.00  0.00     0.030 A 
HETATM   16  C   UNL     1       2.408  -2.688   0.684  1.00  0.00     0.034 A 
HETATM   17  C   UNL     1       1.209  -2.937   1.358  1.00  0.00     0.030 A 
HETATM   18  C   UNL     1       0.519  -4.136   1.167  1.00  0.00     0.010 A 
BRANCH  16  19
HETATM   19  N   UNL     1       2.997  -1.422   0.884  1.00  0.00    -0.328 N 
HETATM   20  C   UNL     1       4.127  -0.912   0.274  1.00  0.00     0.218 C 
HETATM   21  C   UNL     1       4.402   0.517   0.678  1.00  0.00     0.117 C 
HETATM   22  O   UNL     1       4.846  -1.478  -0.542  1.00  0.00    -0.274 OA
HETATM   23  H   UNL     1       2.500  -0.802   1.510  1.00  0.00     0.169 HD
ENDBRANCH  16  19
ENDBRANCH   1  13
BRANCH   5  24
HETATM   24  N   UNL     1       1.294 -10.007   0.566  1.00  0.00    -0.282 NA
HETATM   25  H   UNL     1       1.271 -10.092   1.579  1.00  0.00     0.126 HD
HETATM   26  H   UNL     1       0.926 -10.824   0.085  1.00  0.00     0.126 HD
ENDBRANCH   5  24
BRANCH  12  27
HETATM   27  C   UNL     1      -0.373  -4.289  -2.632  1.00  0.00    -0.005 A 
HETATM   28  C   UNL     1      -1.249  -3.568  -1.814  1.00  0.00     0.014 A 
HETATM   29  C   UNL     1      -1.293  -2.172  -1.892  1.00  0.00     0.001 A 
HETATM   30  C   UNL     1      -0.469  -1.493  -2.790  1.00  0.00     0.000 A 
HETATM   31  C   UNL     1       0.394  -2.205  -3.620  1.00  0.00     0.001 A 
HETATM   32  C   UNL     1       0.438  -3.597  -3.544  1.00  0.00     0.014 A 
ENDBRANCH  12  27
TORSDOF 4
