REMARK  2 active torsions:
REMARK  status: ('A' for Active; 'I' for Inactive)
REMARK    1  A    between atoms: N_6  and  C_7 
REMARK    2  A    between atoms: C_11  and  N_12 
ROOT
HETATM    1  C   UNL     1       5.196   0.162   3.531  1.00  0.00     0.048 A 
HETATM    2  C   UNL     1       4.997   1.003   4.654  1.00  0.00     0.040 A 
HETATM    3 BR   UNL     1       3.392   2.013   4.863  1.00  0.00    -0.049 Br
HETATM    4  C   UNL     1       5.939   1.092   5.684  1.00  0.00     0.057 A 
HETATM    5  C   UNL     1       7.107   0.330   5.606  1.00  0.00     0.104 A 
HETATM    6  C   UNL     1       7.333  -0.511   4.511  1.00  0.00     0.038 A 
HETATM    7  C   UNL     1       6.383  -0.589   3.485  1.00  0.00     0.033 A 
ENDROOT
BRANCH   1   8
HETATM    8  N   UNL     1       4.239   0.091   2.507  1.00  0.00    -0.377 N 
HETATM    9  C   UNL     1       4.337   1.191   1.524  1.00  0.00     0.150 C 
HETATM   10  C   UNL     1       3.008   1.301   0.747  1.00  0.00     0.254 C 
HETATM   11  N   UNL     1       2.644  -0.042   0.103  1.00  0.00    -0.072 N 
HETATM   12  C   UNL     1       1.349   0.039  -0.649  1.00  0.00     0.269 C 
HETATM   13  H   UNL     1       3.385  -0.264  -0.573  1.00  0.00     0.279 HD
HETATM   14  C   UNL     1       2.624  -1.168   1.143  1.00  0.00     0.254 C 
HETATM   15  C   UNL     1       3.964  -1.227   1.911  1.00  0.00     0.150 C 
ENDBRANCH   1   8
BRANCH   5  16
HETATM   16  N   UNL     1       8.101   0.408   6.684  1.00  0.00    -0.116 N 
HETATM   17  O   UNL     1       7.902   1.228   7.590  1.00  0.00    -0.532 OA
HETATM   18  O   UNL     1       9.078  -0.351   6.617  1.00  0.00    -0.532 OA
ENDBRANCH   5  16
TORSDOF 2
