REMARK  3 active torsions:
REMARK  status: ('A' for Active; 'I' for Inactive)
REMARK    1  A    between atoms: C_2  and  C_3 
REMARK    2  A    between atoms: C_10  and  O_11 
REMARK    3  A    between atoms: C_10  and  C_12 
ROOT
HETATM    1  C   UNL     1       3.126   0.462   1.397  1.00  0.00    -0.058 A 
HETATM    2  C   UNL     1       2.948   1.852   1.492  1.00  0.00     0.020 A 
HETATM    3  C   UNL     1       3.228   2.478   2.699  1.00  0.00     0.018 A 
HETATM    4  C   UNL     1       3.694   1.736   3.785  1.00  0.00     0.045 A 
HETATM    5  N   UNL     1       3.923   2.560   4.875  1.00  0.00    -0.323 N 
HETATM    6  C   UNL     1       3.618   3.891   4.583  1.00  0.00     0.266 A 
HETATM    7  O   UNL     1       3.760   4.814   5.372  1.00  0.00    -0.269 OA
HETATM    8  C   UNL     1       3.134   3.942   3.084  1.00  0.00     0.198 A 
HETATM    9  C   UNL     1       3.884   0.372   3.724  1.00  0.00     0.031 A 
HETATM   10  C   UNL     1       3.590  -0.266   2.515  1.00  0.00     0.009 A 
HETATM   11  H   UNL     1       4.262   2.267   5.779  1.00  0.00     0.169 HD
ENDROOT
BRANCH   8  12
HETATM   12  O   UNL     1       4.008   4.713   2.272  1.00  0.00    -0.371 OA
HETATM   13  H   UNL     1       4.838   4.214   2.212  1.00  0.00     0.212 HD
ENDBRANCH   8  12
BRANCH   8  14
HETATM   14  C   UNL     1       1.676   4.312   2.951  1.00  0.00     0.018 A 
HETATM   15  C   UNL     1       1.043   4.984   1.842  1.00  0.00     0.002 A 
HETATM   16  C   UNL     1      -0.320   5.082   2.125  1.00  0.00     0.043 A 
HETATM   17  C   UNL     1       1.502   5.510   0.615  1.00  0.00     0.014 A 
HETATM   18  C   UNL     1      -1.241   5.671   1.248  1.00  0.00     0.030 A 
HETATM   19  N   UNL     1      -0.519   4.517   3.360  1.00  0.00    -0.365 N 
HETATM   20  C   UNL     1      -0.756   6.180   0.041  1.00  0.00     0.002 A 
HETATM   21  C   UNL     1       0.597   6.104  -0.273  1.00  0.00     0.001 A 
HETATM   22  H   UNL     1      -1.415   4.457   3.823  1.00  0.00     0.165 HD
HETATM   23  C   UNL     1       0.662   4.047   3.862  1.00  0.00     0.100 A 
ENDBRANCH   8  14
BRANCH   1  24
HETATM   24  C   UNL     1       2.779  -0.255   0.115  1.00  0.00     0.034 C 
HETATM   25  C   UNL     1       1.309  -0.646   0.072  1.00  0.00     0.010 C 
ENDBRANCH   1  24
TORSDOF 3
