REMARK  5 active torsions:
REMARK  status: ('A' for Active; 'I' for Inactive)
REMARK    1  A    between atoms: C_2  and  O_3 
REMARK    2  A    between atoms: O_3  and  C_4 
REMARK    3  A    between atoms: C_9  and  C_10 
REMARK       I    between atoms: C_10  and  N_11 
REMARK    4  A    between atoms: N_11  and  C_12 
REMARK    5  A    between atoms: C_12  and  C_13 
ROOT
HETATM    1  C   UNL     1       8.618  -1.553  -0.768  1.00  0.00     0.256 C 
HETATM    2  N   UNL     1       7.715  -1.682   0.258  1.00  0.00    -0.348 N 
HETATM    3  O   UNL     1       8.494  -0.708  -1.650  1.00  0.00    -0.267 OA
HETATM    4  H   UNL     1       7.872  -2.397   0.961  1.00  0.00     0.163 HD
ENDROOT
BRANCH   1   5
HETATM    5  C   UNL     1       9.786  -2.482  -0.790  1.00  0.00     0.084 A 
HETATM    6  C   UNL     1      10.070  -3.444   0.182  1.00  0.00     0.180 A 
HETATM    7  N   UNL     1      11.146  -4.271   0.128  1.00  0.00    -0.236 NA
HETATM    8  C   UNL     1      11.979  -4.136  -0.926  1.00  0.00     0.119 A 
HETATM    9  C   UNL     1      11.791  -3.214  -1.938  1.00  0.00     0.020 A 
HETATM   10  C   UNL     1      10.680  -2.378  -1.866  1.00  0.00     0.023 A 
BRANCH   6  11
HETATM   11  O   UNL     1       9.208  -3.582   1.254  1.00  0.00    -0.334 OA
BRANCH  11  12
HETATM   12  C   UNL     1       9.654  -4.505   2.250  1.00  0.00     0.173 C 
HETATM   13  C   UNL     1       8.632  -4.496   3.373  1.00  0.00     0.034 C 
ENDBRANCH  11  12
ENDBRANCH   6  11
ENDBRANCH   1   5
BRANCH   2  14
HETATM   14  C   UNL     1       6.548  -0.831   0.401  1.00  0.00     0.114 C 
HETATM   15  C   UNL     1       5.445  -1.223  -0.587  1.00  0.00     0.037 C 
BRANCH  14  16
HETATM   16  C   UNL     1       6.083  -0.867   1.848  1.00  0.00    -0.036 A 
HETATM   17  C   UNL     1       5.415  -1.981   2.385  1.00  0.00     0.010 A 
HETATM   18  C   UNL     1       5.033  -2.006   3.728  1.00  0.00     0.019 A 
HETATM   19  C   UNL     1       5.325  -0.921   4.550  1.00  0.00     0.011 A 
HETATM   20 BR   UNL     1       4.815  -0.958   6.370  1.00  0.00    -0.051 Br
HETATM   21  C   UNL     1       5.997   0.187   4.043  1.00  0.00     0.019 A 
HETATM   22  C   UNL     1       6.378   0.211   2.699  1.00  0.00     0.010 A 
ENDBRANCH  14  16
ENDBRANCH   2  14
TORSDOF 5
