REMARK  6 active torsions:
REMARK  status: ('A' for Active; 'I' for Inactive)
REMARK    1  A    between atoms: C_2  and  O_3 
REMARK    2  A    between atoms: O_3  and  C_4 
REMARK    3  A    between atoms: C_7  and  N_8 
REMARK    4  A    between atoms: N_8  and  C_9 
REMARK    5  A    between atoms: C_9  and  C_10 
REMARK    6  A    between atoms: C_18  and  O_19 
ROOT
HETATM    1  C   UNL     1      10.791  -1.388   1.469  1.00  0.00     0.024 A 
HETATM    2  C   UNL     1      11.583  -2.421   0.729  1.00  0.00     0.253 A 
HETATM    3  O   UNL     1      11.043  -3.393   0.207  1.00  0.00    -0.268 OA
HETATM    4  N   UNL     1      12.939  -2.242   0.653  1.00  0.00    -0.322 N 
HETATM    5  C   UNL     1      13.611  -1.155   1.219  1.00  0.00     0.045 A 
HETATM    6  C   UNL     1      12.880  -0.195   1.922  1.00  0.00    -0.006 A 
HETATM    7  C   UNL     1      14.991  -1.032   1.075  1.00  0.00     0.033 A 
HETATM    8  C   UNL     1      15.650   0.072   1.627  1.00  0.00     0.039 A 
HETATM    9  C   UNL     1      14.929   1.046   2.322  1.00  0.00     0.069 A 
HETATM   10  C   UNL     1      13.546   0.902   2.476  1.00  0.00     0.050 A 
HETATM   11  C   UNL     1      11.432  -0.354   2.046  1.00  0.00     0.027 A 
HETATM   12  H   UNL     1      13.449  -2.952   0.145  1.00  0.00     0.169 HD
ENDROOT
BRANCH   1  13
HETATM   13  C   UNL     1       9.306  -1.651   1.478  1.00  0.00     0.136 C 
BRANCH  13  14
HETATM   14  N   UNL     1       8.571  -0.509   2.024  1.00  0.00    -0.289 NA
HETATM   15  H   UNL     1       8.854   0.370   1.598  1.00  0.00     0.128 HD
BRANCH  14  16
HETATM   16  C   UNL     1       7.176  -0.555   2.124  1.00  0.00     0.008 A 
HETATM   17  C   UNL     1       6.510   0.613   2.525  1.00  0.00     0.026 A 
HETATM   18  C   UNL     1       5.121   0.646   2.703  1.00  0.00     0.038 A 
HETATM   19  C   UNL     1       4.366  -0.503   2.494  1.00  0.00     0.068 A 
HETATM   20  C   UNL     1       5.017  -1.679   2.126  1.00  0.00     0.038 A 
HETATM   21  C   UNL     1       6.409  -1.711   1.962  1.00  0.00     0.026 A 
BRANCH  19  22
HETATM   22  O   UNL     1       3.008  -0.609   2.618  1.00  0.00    -0.352 OA
BRANCH  22  23
HETATM   23  C   UNL     1       2.308   0.549   3.067  1.00  0.00     0.171 C 
HETATM   24  C   UNL     1       0.829   0.211   3.127  1.00  0.00     0.034 C 
ENDBRANCH  22  23
ENDBRANCH  19  22
ENDBRANCH  14  16
ENDBRANCH  13  14
ENDBRANCH   1  13
BRANCH   9  25
HETATM   25  O   UNL     1      15.451   2.172   2.897  1.00  0.00    -0.356 OA
HETATM   26  C   UNL     1      16.820   2.454   2.633  1.00  0.00     0.210 C 
ENDBRANCH   9  25
TORSDOF 6
