REMARK  5 active torsions:
REMARK  status: ('A' for Active; 'I' for Inactive)
REMARK    1  A    between atoms: C_4  and  C_5 
REMARK    2  A    between atoms: C_5  and  N_6 
REMARK    3  A    between atoms: N_6  and  C_9 
REMARK    4  A    between atoms: C_12  and  O_13 
REMARK    5  A    between atoms: O_13  and  C_14 
ROOT
HETATM    1  C   UNL     1      10.865   2.060  -3.875  1.00  0.00     0.164 A 
HETATM    2  N   UNL     1      10.034   2.716  -4.711  1.00  0.00    -0.236 NA
HETATM    3  C   UNL     1      10.605   3.329  -5.778  1.00  0.00     0.142 A 
HETATM    4  C   UNL     1      11.968   3.321  -6.038  1.00  0.00     0.062 A 
HETATM    5  C   UNL     1      12.492   3.989  -7.187  1.00  0.00     0.101 C 
HETATM    6  N   UNL     1      12.910   4.534  -8.121  1.00  0.00    -0.191 NA
HETATM    7  C   UNL     1      12.800   2.645  -5.146  1.00  0.00     0.028 A 
HETATM    8  C   UNL     1      12.240   2.007  -4.040  1.00  0.00     0.059 A 
ENDROOT
BRANCH   1   9
HETATM    9  O   UNL     1      10.351   1.427  -2.760  1.00  0.00    -0.329 OA
BRANCH   9  10
HETATM   10  C   UNL     1       8.936   1.200  -2.808  1.00  0.00     0.130 C 
HETATM   11  C   UNL     1       8.672  -0.101  -2.035  1.00  0.00     0.034 C 
HETATM   12  C   UNL     1       8.995   0.032  -0.544  1.00  0.00     0.035 C 
HETATM   13  C   UNL     1       8.281   1.212   0.124  1.00  0.00     0.186 C 
HETATM   14  C   UNL     1       8.514   2.508  -0.660  1.00  0.00     0.035 C 
HETATM   15  C   UNL     1       8.190   2.372  -2.152  1.00  0.00     0.034 C 
BRANCH  13  16
HETATM   16  N   UNL     1       6.799   0.967   0.201  1.00  0.00    -0.067 N 
HETATM   17  H   UNL     1       6.415   0.710  -0.717  1.00  0.00     0.278 HD
HETATM   18  H   UNL     1       6.324   1.847   0.447  1.00  0.00     0.278 HD
BRANCH  16  19
HETATM   19  C   UNL     1       6.337  -0.060   1.190  1.00  0.00     0.280 C 
BRANCH  19  20
HETATM   20  C   UNL     1       4.862  -0.220   1.139  1.00  0.00     0.027 A 
HETATM   21  S   UNL     1       4.079  -0.770  -0.289  1.00  0.00    -0.077 SA
HETATM   22  C   UNL     1       2.558  -0.644   0.502  1.00  0.00     0.071 A 
HETATM   23  C   UNL     1       1.296  -1.001  -0.205  1.00  0.00     0.078 C 
HETATM   24  N   UNL     1       2.616  -0.222   1.746  1.00  0.00    -0.258 NA
HETATM   25  C   UNL     1       3.921   0.001   2.121  1.00  0.00     0.133 A 
ENDBRANCH  19  20
ENDBRANCH  16  19
ENDBRANCH  13  16
ENDBRANCH   9  10
ENDBRANCH   1   9
TORSDOF 5
