REMARK  6 active torsions:
REMARK  status: ('A' for Active; 'I' for Inactive)
REMARK    1  A    between atoms: C_2  and  C_3 
REMARK    2  A    between atoms: C_2  and  C_9 
REMARK    3  A    between atoms: C_9  and  N_10 
REMARK       I    between atoms: N_10  and  C_11 
REMARK       I    between atoms: C_11  and  N_12 
REMARK    4  A    between atoms: N_12  and  C_13 
REMARK    5  A    between atoms: C_14  and  O_15 
REMARK    6  A    between atoms: O_15  and  C_16 
ROOT
HETATM    1  N   UNL     1       2.476   2.253  -0.809  1.00  0.00    -0.342 N 
HETATM    2  C   UNL     1       2.984   3.045  -1.795  1.00  0.00     0.320 C 
HETATM    3  N   UNL     1       3.960   2.474  -2.564  1.00  0.00    -0.306 N 
HETATM    4  O   UNL     1       2.498   4.160  -1.964  1.00  0.00    -0.247 OA
HETATM    5  H   UNL     1       1.746   2.726  -0.287  1.00  0.00     0.164 HD
HETATM    6  H   UNL     1       3.814   1.490  -2.715  1.00  0.00     0.171 HD
ENDROOT
BRANCH   1   7
HETATM    7  C   UNL     1       3.061   1.076  -0.183  1.00  0.00     0.138 C 
BRANCH   7   8
HETATM    8  C   UNL     1       2.356  -0.281  -0.497  1.00  0.00    -0.004 C 
HETATM    9  C   UNL     1       3.056  -1.350   0.384  1.00  0.00     0.021 C 
HETATM   10  C   UNL     1       2.623  -0.711  -1.958  1.00  0.00     0.021 C 
BRANCH   8  11
HETATM   11  C   UNL     1       0.840  -0.201  -0.226  1.00  0.00    -0.046 A 
HETATM   12  C   UNL     1       0.249  -0.722   0.933  1.00  0.00     0.027 A 
HETATM   13  C   UNL     1      -1.128  -0.628   1.104  1.00  0.00     0.116 A 
HETATM   14  N   UNL     1      -1.960  -0.047   0.219  1.00  0.00    -0.273 NA
HETATM   15  C   UNL     1      -1.389   0.467  -0.886  1.00  0.00     0.116 A 
HETATM   16  C   UNL     1      -0.025   0.417  -1.145  1.00  0.00     0.027 A 
ENDBRANCH   8  11
ENDBRANCH   7   8
ENDBRANCH   1   7
BRANCH   3  17
HETATM   17  C   UNL     1       4.617   3.159  -3.612  1.00  0.00     0.070 A 
HETATM   18  C   UNL     1       5.142   4.454  -3.471  1.00  0.00     0.101 A 
HETATM   19  C   UNL     1       5.776   5.069  -4.556  1.00  0.00     0.039 A 
HETATM   20  C   UNL     1       5.864   4.411  -5.784  1.00  0.00     0.003 A 
HETATM   21  C   UNL     1       5.359   3.120  -5.921  1.00  0.00     0.002 A 
HETATM   22  C   UNL     1       4.755   2.488  -4.833  1.00  0.00     0.032 A 
BRANCH  18  23
HETATM   23  O   UNL     1       5.197   5.024  -2.224  1.00  0.00    -0.288 OA
BRANCH  23  24
HETATM   24  C   UNL     1       4.522   6.274  -2.178  1.00  0.00     0.505 C 
HETATM   25  F   UNL     1       4.320   6.576  -0.868  1.00  0.00    -0.184 F 
HETATM   26  F   UNL     1       5.357   7.236  -2.655  1.00  0.00    -0.184 F 
ENDBRANCH  23  24
ENDBRANCH  18  23
ENDBRANCH   3  17
TORSDOF 6
