REMARK  6 active torsions:
REMARK  status: ('A' for Active; 'I' for Inactive)
REMARK    1  A    between atoms: O_2  and  C_3 
REMARK    2  A    between atoms: C_4  and  O_5 
REMARK    3  A    between atoms: C_8  and  C_9 
REMARK    4  A    between atoms: C_13  and  C_14 
REMARK       I    between atoms: C_14  and  N_15 
REMARK    5  A    between atoms: N_15  and  C_16 
REMARK    6  A    between atoms: C_19  and  O_20 
ROOT
HETATM    1  C   UNL     1       4.318  -5.014  -1.518  1.00  0.00     0.063 A 
HETATM    2  N   UNL     1       4.849  -5.312  -2.747  1.00  0.00    -0.277 N 
HETATM    3  H   UNL     1       5.025  -4.670  -3.512  1.00  0.00     0.189 HD
HETATM    4  N   UNL     1       5.126  -6.616  -2.933  1.00  0.00    -0.169 NA
HETATM    5  C   UNL     1       4.747  -7.194  -1.773  1.00  0.00     0.147 A 
HETATM    6  C   UNL     1       4.237  -6.230  -0.869  1.00  0.00     0.071 A 
ENDROOT
BRANCH   5   7
HETATM    7  C   UNL     1       4.865  -8.647  -1.553  1.00  0.00     0.276 C 
HETATM    8  N   UNL     1       5.364  -9.295  -2.666  1.00  0.00    -0.320 N 
HETATM    9  H   UNL     1       5.564  -8.670  -3.443  1.00  0.00     0.169 HD
HETATM   10  O   UNL     1       4.538  -9.170  -0.494  1.00  0.00    -0.266 OA
BRANCH   8  11
HETATM   11  C   UNL     1       5.601 -10.669  -2.829  1.00  0.00     0.052 A 
HETATM   12  C   UNL     1       5.387 -11.640  -1.853  1.00  0.00     0.149 A 
HETATM   13  N   UNL     1       5.624 -12.965  -2.031  1.00  0.00    -0.235 NA
HETATM   14  C   UNL     1       6.094 -13.342  -3.237  1.00  0.00     0.163 A 
HETATM   15  C   UNL     1       6.337 -12.457  -4.273  1.00  0.00     0.060 A 
HETATM   16  C   UNL     1       6.088 -11.102  -4.063  1.00  0.00     0.035 A 
BRANCH  14  17
HETATM   17  O   UNL     1       6.359 -14.672  -3.493  1.00  0.00    -0.339 OA
HETATM   18  C   UNL     1       6.110 -15.513  -2.371  1.00  0.00     0.211 C 
ENDBRANCH  14  17
ENDBRANCH   8  11
ENDBRANCH   5   7
BRANCH   1  19
HETATM   19  C   UNL     1       3.911  -3.671  -1.116  1.00  0.00    -0.005 A 
HETATM   20  C   UNL     1       4.671  -2.546  -1.468  1.00  0.00     0.053 A 
HETATM   21  C   UNL     1       4.259  -1.258  -1.101  1.00  0.00     0.102 A 
HETATM   22  C   UNL     1       3.056  -1.087  -0.389  1.00  0.00     0.101 A 
HETATM   23  C   UNL     1       2.314  -2.209  -0.011  1.00  0.00     0.040 A 
HETATM   24  C   UNL     1       2.741  -3.490  -0.371  1.00  0.00     0.017 A 
BRANCH  21  25
HETATM   25  O   UNL     1       4.940  -0.109  -1.419  1.00  0.00    -0.353 OA
HETATM   26  C   UNL     1       6.281  -0.244  -1.866  1.00  0.00     0.210 C 
ENDBRANCH  21  25
BRANCH  22  27
HETATM   27  O   UNL     1       2.708   0.203  -0.077  1.00  0.00    -0.353 OA
HETATM   28  C   UNL     1       1.340   0.438   0.234  1.00  0.00     0.210 C 
ENDBRANCH  22  27
ENDBRANCH   1  19
TORSDOF 6
