REMARK  5 active torsions:
REMARK  status: ('A' for Active; 'I' for Inactive)
REMARK    1  A    between atoms: C_6  and  N_7 
REMARK       I    between atoms: N_7  and  C_8 
REMARK    2  A    between atoms: C_8  and  C_9 
REMARK    3  A    between atoms: C_9  and  O_10 
REMARK    4  A    between atoms: O_10  and  C_11 
REMARK    5  A    between atoms: C_18  and  C_19 
ROOT
HETATM    1  C   UNL     1       1.056   0.120   0.317  1.00  0.00     0.073 C 
HETATM    2  C   UNL     1       2.474  -0.268   0.521  1.00  0.00     0.065 A 
HETATM    3  N   UNL     1       3.310   0.565   1.154  1.00  0.00    -0.177 NA
HETATM    4  N   UNL     1       4.470  -0.112   1.203  1.00  0.00    -0.262 N 
HETATM    5  H   UNL     1       5.272   0.339   1.636  1.00  0.00     0.191 HD
HETATM    6  C   UNL     1       4.416  -1.348   0.614  1.00  0.00     0.137 A 
HETATM    7  C   UNL     1       3.120  -1.478   0.151  1.00  0.00     0.046 A 
ENDROOT
BRANCH   6   8
HETATM    8  N   UNL     1       5.480  -2.215   0.475  1.00  0.00    -0.309 N 
HETATM    9  C   UNL     1       6.569  -2.355   1.294  1.00  0.00     0.247 C 
HETATM   10  O   UNL     1       7.536  -3.011   0.898  1.00  0.00    -0.271 OA
HETATM   11  H   UNL     1       5.464  -2.865  -0.303  1.00  0.00     0.170 HD
BRANCH   9  12
HETATM   12  C   UNL     1       6.486  -1.863   2.735  1.00  0.00     0.278 C 
BRANCH  12  13
HETATM   13  O   UNL     1       6.679  -0.458   2.858  1.00  0.00    -0.342 OA
BRANCH  13  14
HETATM   14  C   UNL     1       6.812  -0.112   4.180  1.00  0.00     0.069 A 
HETATM   15  C   UNL     1       7.996   0.512   4.565  1.00  0.00     0.037 A 
HETATM   16  C   UNL     1       8.195   0.850   5.904  1.00  0.00     0.003 A 
HETATM   17  C   UNL     1       7.205   0.578   6.849  1.00  0.00     0.000 A 
HETATM   18  C   UNL     1       6.005  -0.012   6.453  1.00  0.00     0.003 A 
HETATM   19  C   UNL     1       5.801  -0.347   5.115  1.00  0.00     0.037 A 
ENDBRANCH  13  14
ENDBRANCH  12  13
ENDBRANCH   9  12
ENDBRANCH   6   8
BRANCH   7  20
HETATM   20  C   UNL     1       2.573  -2.722  -0.350  1.00  0.00    -0.020 A 
HETATM   21  C   UNL     1       1.670  -3.435   0.453  1.00  0.00     0.014 A 
HETATM   22  C   UNL     1       1.202  -4.686   0.049  1.00  0.00     0.020 A 
HETATM   23  C   UNL     1       1.635  -5.222  -1.162  1.00  0.00     0.011 A 
HETATM   24 BR   UNL     1       1.033  -6.934  -1.692  1.00  0.00    -0.051 Br
HETATM   25  C   UNL     1       2.518  -4.513  -1.978  1.00  0.00     0.020 A 
HETATM   26  C   UNL     1       2.985  -3.259  -1.573  1.00  0.00     0.014 A 
ENDBRANCH   7  20
TORSDOF 5
