REMARK  4 active torsions:
REMARK  status: ('A' for Active; 'I' for Inactive)
REMARK    1  A    between atoms: C_4  and  N_5 
REMARK    2  A    between atoms: N_5  and  N_6 
REMARK       I    between atoms: N_6  and  C_7 
REMARK    3  A    between atoms: C_7  and  C_8 
REMARK    4  A    between atoms: C_9  and  C_10 
ROOT
HETATM    1  C   UNL     1       6.856   4.914  -0.744  1.00  0.00     0.081 A 
HETATM    2  C   UNL     1       7.728   3.828  -1.065  1.00  0.00     0.106 A 
HETATM    3  N   UNL     1       8.880   4.270  -1.595  1.00  0.00    -0.173 NA
HETATM    4  N   UNL     1       8.753   5.602  -1.617  1.00  0.00    -0.288 N 
HETATM    5  H   UNL     1       9.521   6.153  -1.988  1.00  0.00     0.188 HD
HETATM    6  C   UNL     1       7.576   6.040  -1.099  1.00  0.00     0.128 A 
ENDROOT
BRANCH   1   7
HETATM    7  C   UNL     1       5.534   4.946  -0.140  1.00  0.00     0.270 C 
HETATM    8  N   UNL     1       4.724   3.864  -0.439  1.00  0.00    -0.283 N 
HETATM    9  H   UNL     1       4.993   3.125  -1.079  1.00  0.00     0.184 HD
HETATM   10  O   UNL     1       5.176   5.882   0.571  1.00  0.00    -0.266 OA
BRANCH   8  11
HETATM   11  N   UNL     1       3.403   3.879   0.038  1.00  0.00    -0.203 NA
HETATM   12  H   UNL     1       3.365   3.906   1.057  1.00  0.00     0.153 HD
BRANCH  11  13
HETATM   13  C   UNL     1       2.537   2.929  -0.545  1.00  0.00     0.028 A 
HETATM   14  C   UNL     1       2.539   2.662  -1.922  1.00  0.00     0.032 A 
HETATM   15  C   UNL     1       1.620   1.768  -2.494  1.00  0.00    -0.060 A 
HETATM   16  C   UNL     1       1.605   1.531  -3.975  1.00  0.00     0.048 C 
HETATM   17  C   UNL     1       0.662   1.161  -1.676  1.00  0.00     0.007 A 
HETATM   18  C   UNL     1       0.628   1.438  -0.311  1.00  0.00     0.002 A 
HETATM   19  C   UNL     1       1.552   2.324   0.246  1.00  0.00     0.025 A 
ENDBRANCH  11  13
ENDBRANCH   8  11
ENDBRANCH   1   7
BRANCH   2  20
HETATM   20  C   UNL     1       7.547   2.403  -0.804  1.00  0.00     0.017 A 
HETATM   21  C   UNL     1       7.490   1.447  -1.829  1.00  0.00     0.046 A 
HETATM   22 CL   UNL     1       7.534   1.873  -3.505  1.00  0.00    -0.083 Cl
HETATM   23  C   UNL     1       7.342   0.091  -1.517  1.00  0.00     0.025 A 
HETATM   24  C   UNL     1       7.240  -0.319  -0.186  1.00  0.00     0.002 A 
HETATM   25  C   UNL     1       7.285   0.624   0.837  1.00  0.00     0.001 A 
HETATM   26  C   UNL     1       7.441   1.978   0.532  1.00  0.00     0.016 A 
ENDBRANCH   2  20
TORSDOF 4
