REMARK  8 active torsions:
REMARK  status: ('A' for Active; 'I' for Inactive)
REMARK    1  A    between atoms: C_2  and  O_3 
REMARK    2  A    between atoms: O_3  and  C_4 
REMARK    3  A    between atoms: C_4  and  C_5 
REMARK    4  A    between atoms: C_5  and  C_6 
REMARK    5  A    between atoms: C_6  and  N_7 
REMARK    6  A    between atoms: C_12  and  C_13 
REMARK    7  A    between atoms: C_23  and  C_24 
REMARK    8  A    between atoms: C_25  and  O_26 
ROOT
HETATM    1  N   UNL     1       2.851  -6.135  -0.400  1.00  0.00    -0.334 N 
HETATM    2  C   UNL     1       2.364  -7.394  -0.041  1.00  0.00     0.273 A 
HETATM    3  O   UNL     1       1.520  -7.678   0.790  1.00  0.00    -0.266 OA
HETATM    4  C   UNL     1       3.121  -8.278  -0.844  1.00  0.00     0.129 A 
HETATM    5  C   UNL     1       4.020  -7.638  -1.646  1.00  0.00     0.034 A 
HETATM    6  C   UNL     1       3.923  -6.173  -1.431  1.00  0.00     0.159 A 
HETATM    7  N   UNL     1       3.234  -9.594  -1.055  1.00  0.00    -0.272 N 
HETATM    8  H   UNL     1       2.720 -10.360  -0.627  1.00  0.00     0.189 HD
HETATM    9  N   UNL     1       4.187  -9.865  -1.982  1.00  0.00    -0.173 NA
HETATM   10  C   UNL     1       4.696  -8.656  -2.347  1.00  0.00     0.101 A 
ENDROOT
BRANCH  10  11
HETATM   11  C   UNL     1       5.773  -8.576  -3.348  1.00  0.00     0.028 A 
HETATM   12  C   UNL     1       6.153  -9.697  -4.113  1.00  0.00     0.078 A 
HETATM   13  C   UNL     1       7.156  -9.618  -5.079  1.00  0.00     0.037 A 
HETATM   14  C   UNL     1       7.811  -8.411  -5.301  1.00  0.00     0.003 A 
HETATM   15  C   UNL     1       7.465  -7.290  -4.550  1.00  0.00     0.001 A 
HETATM   16  C   UNL     1       6.460  -7.374  -3.579  1.00  0.00     0.017 A 
BRANCH  12  17
HETATM   17  O   UNL     1       5.573 -10.932  -3.961  1.00  0.00    -0.360 OA
HETATM   18  H   UNL     1       4.945 -10.845  -3.207  1.00  0.00     0.217 HD
ENDBRANCH  12  17
ENDBRANCH  10  11
BRANCH   6  19
HETATM   19  C   UNL     1       3.523  -5.497  -2.725  1.00  0.00    -0.031 A 
HETATM   20  C   UNL     1       2.532  -5.996  -3.591  1.00  0.00     0.011 A 
HETATM   21  C   UNL     1       2.202  -5.321  -4.770  1.00  0.00     0.024 A 
HETATM   22  C   UNL     1       2.840  -4.126  -5.088  1.00  0.00     0.034 A 
HETATM   23 CL   UNL     1       2.431  -3.294  -6.537  1.00  0.00    -0.084 Cl
HETATM   24  C   UNL     1       3.802  -3.596  -4.234  1.00  0.00     0.024 A 
HETATM   25  C   UNL     1       4.137  -4.275  -3.060  1.00  0.00     0.011 A 
ENDBRANCH   6  19
BRANCH   1  26
HETATM   26  C   UNL     1       2.472  -4.909   0.278  1.00  0.00     0.129 C 
BRANCH  26  27
HETATM   27  C   UNL     1       3.000  -4.812   1.711  1.00  0.00     0.046 C 
BRANCH  27  28
HETATM   28  C   UNL     1       4.521  -4.805   1.818  1.00  0.00     0.169 C 
BRANCH  28  29
HETATM   29  O   UNL     1       5.044  -3.702   1.080  1.00  0.00    -0.387 OA
BRANCH  29  30
HETATM   30  C   UNL     1       6.474  -3.665   1.019  1.00  0.00     0.113 C 
HETATM   31  C   UNL     1       7.107  -3.420   2.386  1.00  0.00     0.039 C 
HETATM   32  C   UNL     1       6.843  -2.532   0.066  1.00  0.00     0.039 C 
ENDBRANCH  29  30
ENDBRANCH  28  29
ENDBRANCH  27  28
ENDBRANCH  26  27
ENDBRANCH   1  26
TORSDOF 8
