REMARK  8 active torsions:
REMARK  status: ('A' for Active; 'I' for Inactive)
REMARK    1  A    between atoms: C_2  and  C_3 
REMARK    2  A    between atoms: C_3  and  O_4 
REMARK    3  A    between atoms: O_4  and  C_5 
REMARK    4  A    between atoms: C_7  and  C_8 
REMARK    5  A    between atoms: N_9  and  C_10 
REMARK    6  A    between atoms: C_10  and  C_11 
REMARK    7  A    between atoms: C_24  and  C_25 
REMARK    8  A    between atoms: C_26  and  O_27 
ROOT
HETATM    1  C   UNL     1       5.111   5.838  -1.020  1.00  0.00     0.159 C 
HETATM    2  N   UNL     1       5.533   6.874  -1.999  1.00  0.00    -0.329 N 
HETATM    3  C   UNL     1       5.694   8.139  -1.412  1.00  0.00     0.273 C 
HETATM    4  O   UNL     1       5.812   9.226  -1.946  1.00  0.00    -0.266 OA
HETATM    5  C   UNL     1       5.643   7.866  -0.025  1.00  0.00     0.129 A 
HETATM    6  C   UNL     1       5.336   6.566   0.250  1.00  0.00     0.034 A 
HETATM    7  N   UNL     1       5.838   8.506   1.134  1.00  0.00    -0.272 N 
HETATM    8  H   UNL     1       6.081   9.480   1.297  1.00  0.00     0.189 HD
HETATM    9  N   UNL     1       5.719   7.661   2.191  1.00  0.00    -0.173 NA
HETATM   10  C   UNL     1       5.391   6.456   1.651  1.00  0.00     0.101 A 
ENDROOT
BRANCH   1  11
HETATM   11  C   UNL     1       5.932   4.577  -1.035  1.00  0.00    -0.028 A 
HETATM   12  C   UNL     1       7.325   4.568  -0.849  1.00  0.00     0.046 A 
HETATM   13  C   UNL     1       8.049   3.371  -0.833  1.00  0.00     0.069 A 
HETATM   14  C   UNL     1       7.379   2.162  -1.021  1.00  0.00     0.037 A 
HETATM   15  C   UNL     1       6.001   2.151  -1.231  1.00  0.00     0.003 A 
HETATM   16  C   UNL     1       5.285   3.347  -1.244  1.00  0.00     0.010 A 
BRANCH  13  17
HETATM   17  O   UNL     1       9.395   3.518  -0.637  1.00  0.00    -0.348 OA
BRANCH  17  18
HETATM   18  C   UNL     1      10.152   2.323  -0.447  1.00  0.00     0.202 C 
BRANCH  18  19
HETATM   19  C   UNL     1      11.573   2.724  -0.187  1.00  0.00    -0.011 C 
HETATM   20  C   UNL     1      12.627   2.300  -0.897  1.00  0.00     0.009 C 
ENDBRANCH  18  19
ENDBRANCH  17  18
ENDBRANCH  13  17
ENDBRANCH   1  11
BRANCH   2  21
HETATM   21  C   UNL     1       5.313   6.707  -3.419  1.00  0.00     0.165 C 
BRANCH  21  22
HETATM   22  C   UNL     1       6.491   7.152  -4.248  1.00  0.00    -0.037 A 
HETATM   23  C   UNL     1       7.698   6.446  -4.225  1.00  0.00     0.028 A 
HETATM   24  C   UNL     1       8.757   6.913  -4.989  1.00  0.00     0.116 A 
HETATM   25  N   UNL     1       8.696   8.013  -5.769  1.00  0.00    -0.273 NA
HETATM   26  C   UNL     1       7.527   8.687  -5.770  1.00  0.00     0.116 A 
HETATM   27  C   UNL     1       6.413   8.301  -5.040  1.00  0.00     0.028 A 
ENDBRANCH  21  22
ENDBRANCH   2  21
BRANCH  10  28
HETATM   28  C   UNL     1       5.221   5.281   2.510  1.00  0.00     0.028 A 
HETATM   29  C   UNL     1       5.908   5.167   3.732  1.00  0.00     0.078 A 
HETATM   30  C   UNL     1       5.806   4.021   4.518  1.00  0.00     0.037 A 
HETATM   31  C   UNL     1       4.991   2.970   4.105  1.00  0.00     0.003 A 
HETATM   32  C   UNL     1       4.274   3.074   2.915  1.00  0.00     0.001 A 
HETATM   33  C   UNL     1       4.383   4.224   2.125  1.00  0.00     0.017 A 
BRANCH  29  34
HETATM   34  O   UNL     1       6.711   6.166   4.221  1.00  0.00    -0.360 OA
HETATM   35  H   UNL     1       6.547   6.950   3.648  1.00  0.00     0.217 HD
ENDBRANCH  29  34
ENDBRANCH  10  28
TORSDOF 8
