REMARK  6 active torsions:
REMARK  status: ('A' for Active; 'I' for Inactive)
REMARK    1  A    between atoms: C_7  and  C_8 
REMARK    2  A    between atoms: N_9  and  N_10 
REMARK       I    between atoms: N_10  and  C_11 
REMARK    3  A    between atoms: C_11  and  C_12 
REMARK    4  A    between atoms: C_12  and  N_13 
REMARK       I    between atoms: N_13  and  C_14 
REMARK    5  A    between atoms: C_14  and  C_15 
REMARK    6  A    between atoms: C_15  and  C_16 
ROOT
HETATM    1  N   UNL     1       3.112  -4.528   0.259  1.00  0.00    -0.246 N 
HETATM    2  C   UNL     1       3.790  -5.683   0.601  1.00  0.00     0.255 C 
HETATM    3  O   UNL     1       3.261  -6.747   0.924  1.00  0.00    -0.270 OA
HETATM    4  H   UNL     1       3.640  -3.760  -0.164  1.00  0.00     0.192 HD
ENDROOT
BRANCH   1   5
HETATM    5  N   UNL     1       1.747  -4.525   0.170  1.00  0.00    -0.184 NA
HETATM    6  C   UNL     1       1.237  -3.399  -0.212  1.00  0.00     0.153 C 
BRANCH   6   7
HETATM    7  C   UNL     1      -0.192  -3.267  -0.426  1.00  0.00     0.018 A 
HETATM    8  C   UNL     1      -0.821  -2.062  -0.714  1.00  0.00     0.018 A 
HETATM    9  C   UNL     1      -0.277  -0.685  -0.843  1.00  0.00     0.069 C 
HETATM   10  N   UNL     1      -2.158  -2.320  -0.886  1.00  0.00    -0.358 N 
HETATM   11  H   UNL     1      -2.862  -1.630  -1.108  1.00  0.00     0.166 HD
HETATM   12  C   UNL     1      -2.420  -3.658  -0.722  1.00  0.00     0.043 A 
HETATM   13  C   UNL     1      -1.208  -4.280  -0.419  1.00  0.00     0.004 A 
HETATM   14  C   UNL     1      -3.631  -4.355  -0.824  1.00  0.00     0.030 A 
HETATM   15  C   UNL     1      -1.216  -5.676  -0.202  1.00  0.00     0.014 A 
HETATM   16  C   UNL     1      -2.418  -6.388  -0.299  1.00  0.00     0.001 A 
HETATM   17  C   UNL     1      -3.607  -5.735  -0.608  1.00  0.00     0.002 A 
ENDBRANCH   6   7
ENDBRANCH   1   5
BRANCH   2  18
HETATM   18  C   UNL     1       5.303  -5.604   0.359  1.00  0.00     0.227 C 
BRANCH  18  19
HETATM   19  N   UNL     1       6.006  -4.400   0.792  1.00  0.00    -0.352 N 
HETATM   20  C   UNL     1       5.977  -3.228   0.072  1.00  0.00     0.222 C 
HETATM   21  O   UNL     1       5.128  -3.020  -0.793  1.00  0.00    -0.273 OA
HETATM   22  H   UNL     1       6.709  -4.514   1.510  1.00  0.00     0.162 HD
BRANCH  20  23
HETATM   23  C   UNL     1       7.045  -2.217   0.443  1.00  0.00     0.141 C 
BRANCH  23  24
HETATM   24  C   UNL     1       6.553  -1.138   1.370  1.00  0.00    -0.050 A 
HETATM   25  C   UNL     1       6.740  -1.246   2.755  1.00  0.00     0.007 A 
HETATM   26  C   UNL     1       6.305  -0.231   3.608  1.00  0.00     0.001 A 
HETATM   27  C   UNL     1       5.674   0.897   3.088  1.00  0.00     0.000 A 
HETATM   28  C   UNL     1       5.471   1.009   1.714  1.00  0.00     0.001 A 
HETATM   29  C   UNL     1       5.904  -0.005   0.858  1.00  0.00     0.007 A 
ENDBRANCH  23  24
ENDBRANCH  20  23
ENDBRANCH  18  19
ENDBRANCH   2  18
TORSDOF 6
