REMARK  3 active torsions:
REMARK  status: ('A' for Active; 'I' for Inactive)
REMARK    1  A    between atoms: C_3  and  C_4 
REMARK       I    between atoms: C_4  and  N_5 
REMARK    2  A    between atoms: N_5  and  C_6 
REMARK    3  A    between atoms: C_13  and  C_14 
REMARK       I    between atoms: C_14  and  N_15 
ROOT
HETATM    1  C   UNL     1       0.444   3.041   2.708  1.00  0.00     0.035 A 
HETATM    2  C   UNL     1      -0.452   2.559   3.676  1.00  0.00     0.046 A 
HETATM    3  C   UNL     1      -1.399   3.433   4.251  1.00  0.00     0.030 A 
HETATM    4  C   UNL     1      -1.415   4.760   3.846  1.00  0.00     0.063 A 
HETATM    5  N   UNL     1      -2.416   5.347   4.567  1.00  0.00    -0.277 N 
HETATM    6  H   UNL     1      -2.711   6.317   4.532  1.00  0.00     0.189 HD
HETATM    7  N   UNL     1      -3.062   4.514   5.403  1.00  0.00    -0.168 NA
HETATM    8  C   UNL     1      -2.442   3.327   5.217  1.00  0.00     0.156 A 
HETATM    9  C   UNL     1      -0.537   5.273   2.889  1.00  0.00     0.034 A 
HETATM   10  C   UNL     1       0.390   4.384   2.327  1.00  0.00     0.032 A 
ENDROOT
BRANCH   1  11
HETATM   11  N   UNL     1       1.359   2.113   2.176  1.00  0.00    -0.325 N 
HETATM   12  C   UNL     1       2.330   2.320   1.211  1.00  0.00     0.252 C 
HETATM   13  O   UNL     1       2.551   3.368   0.610  1.00  0.00    -0.270 OA
HETATM   14  H   UNL     1       1.339   1.174   2.568  1.00  0.00     0.169 HD
BRANCH  12  15
HETATM   15  C   UNL     1       3.104   1.043   0.864  1.00  0.00     0.229 C 
HETATM   16  C   UNL     1       2.501   0.381  -0.390  1.00  0.00     0.056 C 
HETATM   17  C   UNL     1       3.197   0.808  -1.673  1.00  0.00     0.018 C 
HETATM   18  C   UNL     1       2.695  -1.045  -0.015  1.00  0.00    -0.018 A 
HETATM   19  C   UNL     1       2.977  -1.124   1.341  1.00  0.00     0.076 A 
HETATM   20  C   UNL     1       2.574  -2.195  -0.776  1.00  0.00     0.010 A 
HETATM   21  O   UNL     1       3.045   0.094   1.963  1.00  0.00    -0.335 OA
HETATM   22  C   UNL     1       3.147  -2.331   1.987  1.00  0.00     0.037 A 
HETATM   23  C   UNL     1       3.040  -3.497   1.228  1.00  0.00     0.003 A 
HETATM   24  C   UNL     1       2.756  -3.429  -0.146  1.00  0.00     0.001 A 
ENDBRANCH  12  15
ENDBRANCH   1  11
BRANCH   8  25
HETATM   25  C   UNL     1      -2.854   2.124   5.953  1.00  0.00     0.270 C 
HETATM   26  N   UNL     1      -3.900   2.323   6.812  1.00  0.00    -0.365 N 
HETATM   27  H   UNL     1      -4.304   3.251   6.876  1.00  0.00     0.159 HD
HETATM   28  H   UNL     1      -4.258   1.555   7.355  1.00  0.00     0.159 HD
HETATM   29  O   UNL     1      -2.330   1.022   5.830  1.00  0.00    -0.266 OA
ENDBRANCH   8  25
TORSDOF 3
