REMARK  8 active torsions:
REMARK  status: ('A' for Active; 'I' for Inactive)
REMARK    1  A    between atoms: C_2  and  O_3 
REMARK    2  A    between atoms: O_3  and  C_4 
REMARK    3  A    between atoms: C_5  and  N_6 
REMARK       I    between atoms: N_9  and  C_10 
REMARK    4  A    between atoms: C_10  and  C_11 
REMARK    5  A    between atoms: C_14  and  C_15 
REMARK       I    between atoms: C_15  and  N_16 
REMARK    6  A    between atoms: N_16  and  C_17 
REMARK    7  A    between atoms: C_17  and  C_18 
REMARK    8  A    between atoms: N_23  and  C_24 
ROOT
HETATM    1  C   UNL     1       2.733   5.504   1.130  1.00  0.00     0.098 A 
HETATM    2  C   UNL     1       3.167   6.931   1.059  1.00  0.00     0.206 A 
HETATM    3  O   UNL     1       3.699   7.396   0.052  1.00  0.00    -0.286 OA
HETATM    4  C   UNL     1       2.966   7.778   2.270  1.00  0.00     0.098 A 
HETATM    5  C   UNL     1       2.519   7.163   3.380  1.00  0.00     0.112 A 
HETATM    6  N   UNL     1       2.173   5.816   3.476  1.00  0.00    -0.360 N 
HETATM    7  C   UNL     1       2.238   5.074   2.301  1.00  0.00     0.112 A 
ENDROOT
BRANCH   1   8
HETATM    8  C   UNL     1       2.734   4.648  -0.086  1.00  0.00     0.259 C 
HETATM    9  N   UNL     1       3.473   3.467  -0.094  1.00  0.00    -0.346 N 
HETATM   10  C   UNL     1       3.794   2.645   1.074  1.00  0.00     0.141 C 
HETATM   11  C   UNL     1       3.446   2.658  -1.315  1.00  0.00     0.141 C 
HETATM   12  C   UNL     1       2.700   1.563   1.266  1.00  0.00     0.115 C 
HETATM   13  N   UNL     1       2.565   0.726   0.037  1.00  0.00    -0.278 NA
HETATM   14  C   UNL     1       2.387   1.543  -1.204  1.00  0.00     0.115 C 
HETATM   15  O   UNL     1       2.101   5.027  -1.071  1.00  0.00    -0.267 OA
BRANCH  13  16
HETATM   16  C   UNL     1       1.701  -0.392   0.188  1.00  0.00     0.044 A 
HETATM   17  C   UNL     1       1.818  -1.319   1.252  1.00  0.00     0.090 A 
HETATM   18  C   UNL     1       0.925  -2.389   1.418  1.00  0.00     0.038 A 
HETATM   19  C   UNL     1      -0.080  -2.615   0.489  1.00  0.00     0.003 A 
HETATM   20  C   UNL     1      -0.194  -1.764  -0.601  1.00  0.00     0.002 A 
HETATM   21  C   UNL     1       0.680  -0.677  -0.745  1.00  0.00     0.026 A 
BRANCH  17  22
HETATM   22  O   UNL     1       2.801  -1.254   2.212  1.00  0.00    -0.350 OA
BRANCH  22  23
HETATM   23  C   UNL     1       4.068  -1.653   1.676  1.00  0.00     0.171 C 
HETATM   24  C   UNL     1       4.799  -2.419   2.765  1.00  0.00     0.034 C 
ENDBRANCH  22  23
ENDBRANCH  17  22
ENDBRANCH  13  16
ENDBRANCH   1   8
BRANCH   4  25
HETATM   25  C   UNL     1       3.231   9.243   2.341  1.00  0.00     0.257 C 
HETATM   26  N   UNL     1       3.594   9.836   1.159  1.00  0.00    -0.356 N 
HETATM   27  H   UNL     1       3.738   9.244   0.341  1.00  0.00     0.162 HD
HETATM   28  O   UNL     1       3.107   9.869   3.391  1.00  0.00    -0.267 OA
BRANCH  26  29
HETATM   29  C   UNL     1       3.826  11.260   1.040  1.00  0.00     0.126 C 
BRANCH  29  30
HETATM   30  C   UNL     1       5.247  11.669   1.450  1.00  0.00    -0.005 C 
HETATM   31  C   UNL     1       6.291  11.114   0.479  1.00  0.00     0.011 C 
HETATM   32  C   UNL     1       5.353  13.194   1.516  1.00  0.00     0.011 C 
ENDBRANCH  29  30
ENDBRANCH  26  29
ENDBRANCH   4  25
BRANCH   6  33
HETATM   33  C   UNL     1       2.029   5.205   4.819  1.00  0.00     0.088 C 
HETATM   34  C   UNL     1       0.969   4.108   4.951  1.00  0.00     0.026 C 
HETATM   35  C   UNL     1       1.480   3.280   6.122  1.00  0.00     0.002 C 
HETATM   36  C   UNL     1       2.977   3.202   5.865  1.00  0.00     0.002 C 
HETATM   37  C   UNL     1       3.349   4.562   5.281  1.00  0.00     0.026 C 
ENDBRANCH   6  33
TORSDOF 8
