REMARK  7 active torsions:
REMARK  status: ('A' for Active; 'I' for Inactive)
REMARK    1  A    between atoms: C_2  and  O_3 
REMARK    2  A    between atoms: O_3  and  C_4 
REMARK    3  A    between atoms: C_4  and  C_5 
REMARK    4  A    between atoms: C_6  and  C_7 
REMARK    5  A    between atoms: C_18  and  S_19 
REMARK    6  A    between atoms: S_19  and  C_20 
REMARK    7  A    between atoms: C_20  and  C_21 
ROOT
HETATM    1  C   UNL     1       5.262   0.020  -0.504  1.00  0.00     0.070 C 
HETATM    2  C   UNL     1       6.175   1.130   0.024  1.00  0.00     0.204 C 
HETATM    3  N   UNL     1       6.859   0.710   1.254  1.00  0.00    -0.082 N 
HETATM    4  C   UNL     1       6.913  -0.582   1.693  1.00  0.00     0.726 A 
HETATM    5  N   UNL     1       6.235  -1.531   1.023  1.00  0.00    -0.192 N 
HETATM    6  N   UNL     1       7.534   1.539   2.074  1.00  0.00    -0.128 NA
HETATM    7  C   UNL     1       8.022   0.666   2.965  1.00  0.00     0.226 A 
HETATM    8  N   UNL     1       7.660  -0.645   2.764  1.00  0.00    -0.035 NA
HETATM    9  C   UNL     1       5.344  -1.244  -0.009  1.00  0.00     0.037 C 
HETATM   10  C   UNL     1       4.527  -2.413  -0.503  1.00  0.00     0.070 C 
HETATM   11  H   UNL     1       6.211  -2.470   1.415  1.00  0.00     0.184 HD
ENDROOT
BRANCH   7  12
HETATM   12  S   UNL     1       9.088   1.134   4.260  1.00  0.00    -0.083 SA
BRANCH  12  13
HETATM   13  C   UNL     1       8.720   2.906   4.383  1.00  0.00     0.123 C 
BRANCH  13  14
HETATM   14  C   UNL     1       9.624   3.592   5.381  1.00  0.00    -0.027 A 
HETATM   15  C   UNL     1       9.347   3.643   6.757  1.00  0.00     0.041 A 
HETATM   16 CL   UNL     1       7.921   2.937   7.431  1.00  0.00    -0.084 Cl
HETATM   17  C   UNL     1      10.231   4.277   7.636  1.00  0.00     0.024 A 
HETATM   18  C   UNL     1      11.401   4.866   7.157  1.00  0.00     0.002 A 
HETATM   19  C   UNL     1      11.692   4.820   5.798  1.00  0.00     0.001 A 
HETATM   20  C   UNL     1      10.814   4.185   4.917  1.00  0.00     0.009 A 
ENDBRANCH  13  14
ENDBRANCH  12  13
ENDBRANCH   7  12
BRANCH   2  21
HETATM   21  C   UNL     1       7.235   1.582  -0.984  1.00  0.00    -0.006 A 
HETATM   22  C   UNL     1       7.428   2.936  -1.314  1.00  0.00     0.042 A 
HETATM   23 CL   UNL     1       6.470   4.203  -0.633  1.00  0.00    -0.084 Cl
HETATM   24  C   UNL     1       8.417   3.314  -2.229  1.00  0.00     0.024 A 
HETATM   25  C   UNL     1       9.235   2.354  -2.823  1.00  0.00     0.002 A 
HETATM   26  C   UNL     1       9.068   1.012  -2.503  1.00  0.00     0.001 A 
HETATM   27  C   UNL     1       8.081   0.628  -1.593  1.00  0.00     0.011 A 
ENDBRANCH   2  21
BRANCH   1  28
HETATM   28  C   UNL     1       4.212   0.409  -1.482  1.00  0.00     0.293 C 
HETATM   29  O   UNL     1       3.189  -0.223  -1.691  1.00  0.00    -0.259 OA
BRANCH  28  30
HETATM   30  O   UNL     1       4.534   1.584  -2.072  1.00  0.00    -0.318 OA
BRANCH  30  31
HETATM   31  C   UNL     1       3.596   2.095  -3.032  1.00  0.00     0.174 C 
HETATM   32  C   UNL     1       2.531   2.918  -2.332  1.00  0.00     0.034 C 
ENDBRANCH  30  31
ENDBRANCH  28  30
ENDBRANCH   1  28
TORSDOF 7
