REMARK  7 active torsions:
REMARK  status: ('A' for Active; 'I' for Inactive)
REMARK    1  A    between atoms: C_2  and  N_3 
REMARK       I    between atoms: N_3  and  C_4 
REMARK    2  A    between atoms: C_4  and  C_5 
REMARK    3  A    between atoms: C_8  and  C_9 
REMARK       I    between atoms: C_9  and  N_10 
REMARK    4  A    between atoms: N_13  and  C_14 
REMARK    5  A    between atoms: C_15  and  O_16 
REMARK    6  A    between atoms: N_26  and  C_27 
REMARK    7  A    between atoms: C_27  and  C_28 
ROOT
HETATM    1  C   UNL     1       1.981  -2.786  -0.472  1.00  0.00     0.098 A 
HETATM    2  C   UNL     1       0.964  -2.241   0.473  1.00  0.00     0.206 A 
HETATM    3  O   UNL     1       0.905  -1.035   0.709  1.00  0.00    -0.286 OA
HETATM    4  C   UNL     1       0.045  -3.209   1.136  1.00  0.00     0.098 A 
HETATM    5  C   UNL     1       0.253  -4.517   0.913  1.00  0.00     0.111 A 
HETATM    6  N   UNL     1       1.271  -5.036   0.122  1.00  0.00    -0.364 N 
HETATM    7  C   UNL     1       2.072  -4.125  -0.563  1.00  0.00     0.111 A 
ENDROOT
BRANCH   4   8
HETATM    8  C   UNL     1      -1.207  -2.763   1.783  1.00  0.00     0.259 C 
HETATM    9  N   UNL     1      -1.481  -3.133   3.085  1.00  0.00    -0.345 N 
HETATM   10  C   UNL     1      -2.818  -2.855   3.621  1.00  0.00     0.146 C 
HETATM   11  C   UNL     1      -0.690  -4.007   3.967  1.00  0.00     0.146 C 
HETATM   12  C   UNL     1      -3.591  -4.170   3.823  1.00  0.00     0.143 C 
HETATM   13  N   UNL     1      -2.815  -5.081   4.709  1.00  0.00    -0.376 N 
HETATM   14  C   UNL     1      -1.438  -5.338   4.232  1.00  0.00     0.143 C 
HETATM   15  O   UNL     1      -2.000  -2.109   1.105  1.00  0.00    -0.267 OA
BRANCH  13  16
HETATM   16  C   UNL     1      -3.586  -6.166   5.182  1.00  0.00     0.064 A 
HETATM   17  C   UNL     1      -4.683  -5.952   6.061  1.00  0.00     0.094 A 
HETATM   18  C   UNL     1      -5.458  -7.032   6.510  1.00  0.00     0.039 A 
HETATM   19  C   UNL     1      -5.168  -8.331   6.097  1.00  0.00     0.003 A 
HETATM   20  C   UNL     1      -4.094  -8.562   5.248  1.00  0.00     0.002 A 
HETATM   21  C   UNL     1      -3.311  -7.493   4.801  1.00  0.00     0.032 A 
BRANCH  17  22
HETATM   22  O   UNL     1      -4.891  -4.657   6.483  1.00  0.00    -0.354 OA
HETATM   23  C   UNL     1      -6.160  -4.353   7.044  1.00  0.00     0.210 C 
ENDBRANCH  17  22
ENDBRANCH  13  16
ENDBRANCH   4   8
BRANCH   1  24
HETATM   24  C   UNL     1       2.865  -1.954  -1.341  1.00  0.00     0.257 C 
HETATM   25  N   UNL     1       2.675  -0.599  -1.244  1.00  0.00    -0.353 N 
HETATM   26  H   UNL     1       1.975  -0.266  -0.579  1.00  0.00     0.163 HD
HETATM   27  O   UNL     1       3.677  -2.473  -2.103  1.00  0.00    -0.267 OA
BRANCH  25  28
HETATM   28  C   UNL     1       3.311   0.399  -2.094  1.00  0.00     0.076 C 
HETATM   29  C   UNL     1       2.890   0.253  -3.555  1.00  0.00     0.032 C 
HETATM   30  C   UNL     1       4.830   0.418  -1.946  1.00  0.00     0.032 C 
ENDBRANCH  25  28
ENDBRANCH   1  24
BRANCH   6  31
HETATM   31  C   UNL     1       1.469  -6.492  -0.057  1.00  0.00     0.132 C 
BRANCH  31  32
HETATM   32  C   UNL     1       0.210  -7.232  -0.567  1.00  0.00     0.004 C 
HETATM   33  C   UNL     1      -0.396  -6.629  -1.845  1.00  0.00     0.006 C 
HETATM   34  C   UNL     1       0.450  -6.892  -3.086  1.00  0.00     0.000 C 
HETATM   35  C   UNL     1       0.705  -8.383  -3.275  1.00  0.00     0.000 C 
HETATM   36  C   UNL     1       1.329  -9.013  -2.034  1.00  0.00     0.000 C 
HETATM   37  C   UNL     1       0.507  -8.729  -0.777  1.00  0.00     0.006 C 
ENDBRANCH  31  32
ENDBRANCH   6  31
TORSDOF 7
