REMARK  2 active torsions:
REMARK  status: ('A' for Active; 'I' for Inactive)
REMARK    1  A    between atoms: O_1  and  C_2 
REMARK    2  A    between atoms: C_24  and  C_25 
ROOT
HETATM    1  C   UNL     1       2.311  -0.041  -0.032  1.00  0.00     0.066 A 
HETATM    2  C   UNL     1       2.996   1.167  -0.031  1.00  0.00     0.039 A 
HETATM    3  C   UNL     1       4.393   1.185  -0.031  1.00  0.00     0.033 A 
HETATM    4  C   UNL     1       5.067  -0.045  -0.031  1.00  0.00     0.044 A 
HETATM    5  N   UNL     1       6.437  -0.291  -0.032  1.00  0.00    -0.353 N 
HETATM    6  H   UNL     1       7.143   0.429  -0.031  1.00  0.00     0.166 HD
HETATM    7  C   UNL     1       6.660  -1.634  -0.032  1.00  0.00     0.073 A 
HETATM    8  C   UNL     1       7.816  -2.378  -0.033  1.00  0.00     0.072 A 
HETATM    9  N   UNL     1       9.139  -2.044  -0.033  1.00  0.00    -0.353 N 
HETATM   10  H   UNL     1       9.516  -1.108  -0.032  1.00  0.00     0.166 HD
HETATM   11  C   UNL     1       9.913  -3.204  -0.034  1.00  0.00     0.043 A 
HETATM   12  C   UNL     1      11.308  -3.338  -0.034  1.00  0.00     0.030 A 
HETATM   13  C   UNL     1      11.838  -4.631  -0.035  1.00  0.00     0.002 A 
HETATM   14  C   UNL     1      11.008  -5.749  -0.036  1.00  0.00     0.001 A 
HETATM   15  C   UNL     1       9.614  -5.609  -0.036  1.00  0.00     0.014 A 
HETATM   16  C   UNL     1       9.049  -4.319  -0.035  1.00  0.00     0.004 A 
HETATM   17  C   UNL     1       7.788  -3.734  -0.034  1.00  0.00     0.014 A 
HETATM   18  C   UNL     1       6.539  -4.392  -0.034  1.00  0.00    -0.010 A 
HETATM   19  C   UNL     1       6.263  -5.834  -0.035  1.00  0.00     0.163 A 
HETATM   20  N   UNL     1       4.817  -5.806  -0.035  1.00  0.00    -0.353 N 
HETATM   21  C   UNL     1       4.224  -4.548  -0.034  1.00  0.00     0.253 A 
HETATM   22  O   UNL     1       3.006  -4.424  -0.034  1.00  0.00    -0.268 OA
HETATM   23  C   UNL     1       5.332  -3.632  -0.034  1.00  0.00     0.054 A 
HETATM   24  C   UNL     1       5.428  -2.214  -0.033  1.00  0.00     0.022 A 
HETATM   25  C   UNL     1       4.389  -1.284  -0.032  1.00  0.00     0.007 A 
HETATM   26  C   UNL     1       2.981  -1.267  -0.032  1.00  0.00     0.051 A 
HETATM   27  H   UNL     1       4.229  -6.626  -0.035  1.00  0.00     0.163 HD
ENDROOT
BRANCH   1  28
HETATM   28  O   UNL     1       0.945  -0.072  -0.032  1.00  0.00    -0.361 OA
HETATM   29  H   UNL     1       0.612   0.840  -0.031  1.00  0.00     0.217 HD
ENDBRANCH   1  28
TORSDOF 2
