REMARK  5 active torsions:
REMARK  status: ('A' for Active; 'I' for Inactive)
REMARK    1  A    between atoms: C_2  and  N_3 
REMARK       I    between atoms: N_3  and  C_4 
REMARK    2  A    between atoms: C_4  and  C_5 
REMARK    3  A    between atoms: C_13  and  C_14 
REMARK    4  A    between atoms: C_15  and  O_16 
REMARK    5  A    between atoms: C_19  and  O_20 
ROOT
HETATM    1  C   UNL     1       1.784   1.675   2.110  1.00  0.00     0.046 A 
HETATM    2  C   UNL     1       2.299   2.964   2.374  1.00  0.00     0.008 A 
HETATM    3  C   UNL     1       1.375   4.025   2.309  1.00  0.00     0.068 A 
HETATM    4  C   UNL     1       1.817   5.316   2.564  1.00  0.00     0.032 A 
HETATM    5  C   UNL     1       3.147   5.595   2.884  1.00  0.00     0.002 A 
HETATM    6  C   UNL     1       4.066   4.559   2.957  1.00  0.00     0.001 A 
HETATM    7  C   UNL     1       3.647   3.253   2.707  1.00  0.00     0.015 A 
HETATM    8  N   UNL     1       0.075   3.849   2.019  1.00  0.00    -0.247 NA
HETATM    9  C   UNL     1      -0.382   2.606   1.738  1.00  0.00     0.071 A 
HETATM   10  C   UNL     1       0.440   1.495   1.779  1.00  0.00     0.050 A 
ENDROOT
BRANCH   9  11
HETATM   11  C   UNL     1      -1.812   2.496   1.427  1.00  0.00     0.026 A 
HETATM   12  C   UNL     1      -2.386   3.103   0.297  1.00  0.00     0.083 A 
HETATM   13  C   UNL     1      -3.746   2.950  -0.010  1.00  0.00     0.074 A 
HETATM   14  C   UNL     1      -4.572   2.213   0.835  1.00  0.00     0.070 A 
HETATM   15  C   UNL     1      -4.024   1.622   1.975  1.00  0.00     0.038 A 
HETATM   16  C   UNL     1      -2.663   1.758   2.267  1.00  0.00     0.019 A 
BRANCH  12  17
HETATM   17  O   UNL     1      -1.591   3.786  -0.593  1.00  0.00    -0.355 OA
HETATM   18  C   UNL     1      -1.768   5.194  -0.433  1.00  0.00     0.210 C 
ENDBRANCH  12  17
BRANCH  14  19
HETATM   19  O   UNL     1      -5.909   1.988   0.661  1.00  0.00    -0.356 OA
HETATM   20  C   UNL     1      -6.518   2.583  -0.478  1.00  0.00     0.210 C 
ENDBRANCH  14  19
ENDBRANCH   9  11
BRANCH   1  21
HETATM   21  C   UNL     1       2.642   0.464   2.160  1.00  0.00     0.253 C 
HETATM   22  N   UNL     1       2.136  -0.565   2.929  1.00  0.00    -0.349 N 
HETATM   23  H   UNL     1       1.336  -0.356   3.512  1.00  0.00     0.163 HD
HETATM   24  O   UNL     1       3.705   0.433   1.555  1.00  0.00    -0.268 OA
BRANCH  22  25
HETATM   25  C   UNL     1       2.824  -1.842   3.177  1.00  0.00     0.022 C 
HETATM   26  C   UNL     1       4.126  -1.614   3.961  1.00  0.00     0.037 C 
HETATM   27  C   UNL     1       3.120  -2.579   1.861  1.00  0.00     0.037 C 
HETATM   28  C   UNL     1       1.890  -2.727   4.022  1.00  0.00     0.037 C 
ENDBRANCH  22  25
ENDBRANCH   1  21
TORSDOF 5
