REMARK  6 active torsions:
REMARK  status: ('A' for Active; 'I' for Inactive)
REMARK    1  A    between atoms: C_4  and  C_5 
REMARK    2  A    between atoms: C_5  and  N_6 
REMARK    3  A    between atoms: C_8  and  C_9 
REMARK       I    between atoms: C_9  and  N_10 
REMARK    4  A    between atoms: N_10  and  N_11 
REMARK    5  A    between atoms: C_12  and  C_13 
REMARK    6  A    between atoms: C_14  and  O_15 
ROOT
HETATM    1  C   UNL     1       6.692  -3.051  -1.103  1.00  0.00     0.273 C 
HETATM    2  N   UNL     1       7.018  -4.318  -1.557  1.00  0.00    -0.243 N 
HETATM    3  O   UNL     1       7.481  -2.114  -1.007  1.00  0.00    -0.266 OA
HETATM    4  H   UNL     1       6.339  -5.058  -1.684  1.00  0.00     0.192 HD
ENDROOT
BRANCH   2   5
HETATM    5  N   UNL     1       8.283  -4.517  -2.019  1.00  0.00    -0.183 NA
HETATM    6  C   UNL     1       8.553  -5.697  -2.491  1.00  0.00     0.153 C 
BRANCH   6   7
HETATM    7  C   UNL     1       9.881  -6.001  -3.084  1.00  0.00     0.027 A 
HETATM    8  C   UNL     1      10.778  -4.945  -3.333  1.00  0.00     0.078 A 
HETATM    9  C   UNL     1      11.996  -5.182  -3.953  1.00  0.00     0.038 A 
HETATM   10  C   UNL     1      12.339  -6.476  -4.330  1.00  0.00     0.015 A 
HETATM   11  C   UNL     1      11.477  -7.553  -4.083  1.00  0.00    -0.025 A 
HETATM   12  C   UNL     1      10.225  -7.340  -3.444  1.00  0.00    -0.012 A 
HETATM   13  C   UNL     1      11.865  -8.845  -4.473  1.00  0.00     0.012 A 
HETATM   14  C   UNL     1       9.423  -8.489  -3.209  1.00  0.00     0.013 A 
HETATM   15  C   UNL     1       9.827  -9.769  -3.600  1.00  0.00     0.001 A 
HETATM   16  C   UNL     1      11.046  -9.946  -4.236  1.00  0.00     0.001 A 
BRANCH   8  17
HETATM   17  O   UNL     1      10.530  -3.637  -3.010  1.00  0.00    -0.360 OA
HETATM   18  H   UNL     1       9.688  -3.592  -2.506  1.00  0.00     0.217 HD
ENDBRANCH   8  17
ENDBRANCH   6   7
ENDBRANCH   2   5
BRANCH   1  19
HETATM   19  C   UNL     1       5.279  -2.775  -0.752  1.00  0.00     0.049 A 
HETATM   20  C   UNL     1       4.945  -1.430  -0.573  1.00  0.00     0.108 A 
HETATM   21  N   UNL     1       3.673  -1.055  -0.298  1.00  0.00    -0.361 N 
HETATM   22  C   UNL     1       2.695  -1.980  -0.170  1.00  0.00     0.090 A 
HETATM   23  C   UNL     1       2.984  -3.335  -0.313  1.00  0.00     0.018 A 
HETATM   24  C   UNL     1       4.285  -3.739  -0.606  1.00  0.00     0.020 A 
BRANCH  21  25
HETATM   25  C   UNL     1       3.352   0.388  -0.143  1.00  0.00     0.166 C 
BRANCH  25  26
HETATM   26  C   UNL     1       2.680   0.926  -1.379  1.00  0.00    -0.040 A 
HETATM   27  C   UNL     1       1.396   1.489  -1.297  1.00  0.00     0.009 A 
HETATM   28  C   UNL     1       0.774   2.002  -2.436  1.00  0.00     0.001 A 
HETATM   29  C   UNL     1       1.424   1.962  -3.667  1.00  0.00     0.000 A 
HETATM   30  C   UNL     1       2.701   1.415  -3.761  1.00  0.00     0.001 A 
HETATM   31  C   UNL     1       3.329   0.905  -2.624  1.00  0.00     0.009 A 
ENDBRANCH  25  26
ENDBRANCH  21  25
ENDBRANCH   1  19
TORSDOF 6
