REMARK  8 active torsions:
REMARK  status: ('A' for Active; 'I' for Inactive)
REMARK    1  A    between atoms: C_2  and  C_3 
REMARK    2  A    between atoms: C_3  and  N_4 
REMARK    3  A    between atoms: C_7  and  C_8 
REMARK       I    between atoms: C_8  and  N_9 
REMARK    4  A    between atoms: N_9  and  N_10 
REMARK       I    between atoms: N_10  and  C_11 
REMARK    5  A    between atoms: C_11  and  C_12 
REMARK    6  A    between atoms: C_12  and  O_13 
REMARK    7  A    between atoms: O_13  and  C_14 
REMARK    8  A    between atoms: C_23  and  C_24 
ROOT
HETATM    1  C   UNL     1       0.510  -0.842  -4.898  1.00  0.00     0.273 C 
HETATM    2  N   UNL     1       1.199  -0.656  -6.081  1.00  0.00    -0.263 N 
HETATM    3  O   UNL     1      -0.690  -0.611  -4.778  1.00  0.00    -0.266 OA
HETATM    4  H   UNL     1       2.217  -0.601  -6.073  1.00  0.00     0.190 HD
ENDROOT
BRANCH   2   5
HETATM    5  N   UNL     1       0.553   0.021  -7.128  1.00  0.00    -0.265 N 
HETATM    6  C   UNL     1       1.190   1.119  -7.671  1.00  0.00     0.260 C 
HETATM    7  O   UNL     1       2.354   1.413  -7.399  1.00  0.00    -0.269 OA
HETATM    8  H   UNL     1      -0.468  -0.016  -7.141  1.00  0.00     0.190 HD
BRANCH   6   9
HETATM    9  C   UNL     1       0.349   1.926  -8.656  1.00  0.00     0.280 C 
BRANCH   9  10
HETATM   10  O   UNL     1      -0.956   1.376  -8.807  1.00  0.00    -0.342 OA
BRANCH  10  11
HETATM   11  C   UNL     1      -1.718   1.883  -9.825  1.00  0.00     0.069 A 
HETATM   12  C   UNL     1      -2.888   1.171 -10.094  1.00  0.00     0.037 A 
HETATM   13  C   UNL     1      -3.749   1.574 -11.118  1.00  0.00     0.009 A 
HETATM   14  C   UNL     1      -3.451   2.703 -11.887  1.00  0.00    -0.062 A 
HETATM   15  C   UNL     1      -4.362   3.151 -12.991  1.00  0.00     0.048 C 
HETATM   16  C   UNL     1      -2.287   3.426 -11.603  1.00  0.00     0.009 A 
HETATM   17  C   UNL     1      -1.426   3.021 -10.577  1.00  0.00     0.037 A 
ENDBRANCH  10  11
ENDBRANCH   9  10
ENDBRANCH   6   9
ENDBRANCH   2   5
BRANCH   1  18
HETATM   18  C   UNL     1       1.340  -1.372  -3.841  1.00  0.00     0.077 A 
HETATM   19  C   UNL     1       1.907  -2.665  -3.829  1.00  0.00     0.158 A 
HETATM   20  N   UNL     1       2.637  -2.902  -2.743  1.00  0.00    -0.183 NA
HETATM   21  N   UNL     1       2.536  -1.763  -2.028  1.00  0.00    -0.268 N 
HETATM   22  C   UNL     1       1.779  -0.793  -2.659  1.00  0.00     0.052 A 
BRANCH  21  23
HETATM   23  C   UNL     1       3.180  -1.678  -0.717  1.00  0.00     0.106 C 
HETATM   24  C   UNL     1       4.424  -2.568  -0.587  1.00  0.00     0.034 C 
BRANCH  23  25
HETATM   25  C   UNL     1       2.176  -1.905   0.430  1.00  0.00     0.022 C 
HETATM   26  C   UNL     1       1.556  -3.296   0.480  1.00  0.00     0.007 C 
ENDBRANCH  23  25
ENDBRANCH  21  23
BRANCH  22  27
HETATM   27  C   UNL     1       1.542   0.613  -2.106  1.00  0.00     0.038 A 
HETATM   28  C   UNL     1       1.391   1.780  -3.057  1.00  0.00     0.011 A 
HETATM   29  C   UNL     1       0.209   1.299  -2.286  1.00  0.00     0.011 A 
ENDBRANCH  22  27
ENDBRANCH   1  18
TORSDOF 8
