REMARK  7 active torsions:
REMARK  status: ('A' for Active; 'I' for Inactive)
REMARK    1  A    between atoms: C_3  and  S_4 
REMARK    2  A    between atoms: S_4  and  N_5 
REMARK    3  A    between atoms: N_5  and  C_6 
REMARK    4  A    between atoms: C_6  and  C_7 
REMARK    5  A    between atoms: C_20  and  C_21 
REMARK    6  A    between atoms: C_25  and  N_26 
REMARK    7  A    between atoms: N_26  and  C_27 
ROOT
HETATM    1  C   UNL     1       1.001   0.108   0.975  1.00  0.00     0.050 C 
HETATM    2  C   UNL     1       2.432   0.191   0.522  1.00  0.00    -0.039 A 
HETATM    3  C   UNL     1       2.988   1.306  -0.129  1.00  0.00     0.081 A 
HETATM    4  C   UNL     1       4.329   1.282  -0.554  1.00  0.00     0.039 A 
HETATM    5  C   UNL     1       5.163   0.184  -0.292  1.00  0.00    -0.003 A 
HETATM    6  C   UNL     1       4.601  -0.928   0.346  1.00  0.00     0.014 A 
HETATM    7  C   UNL     1       3.258  -0.926   0.738  1.00  0.00     0.009 A 
ENDROOT
BRANCH   5   8
HETATM    8  C   UNL     1       6.575   0.197  -0.703  1.00  0.00     0.098 A 
HETATM    9  N   UNL     1       6.871  -0.735  -1.629  1.00  0.00    -0.172 NA
HETATM   10  N   UNL     1       8.086  -0.759  -2.142  1.00  0.00    -0.262 N 
HETATM   11  H   UNL     1       8.281  -1.463  -2.846  1.00  0.00     0.191 HD
HETATM   12  C   UNL     1       9.076   0.083  -1.799  1.00  0.00     0.129 A 
HETATM   13  C   UNL     1       8.800   1.081  -0.825  1.00  0.00     0.022 A 
HETATM   14  C   UNL     1       7.520   1.125  -0.238  1.00  0.00     0.009 A 
HETATM   15  C   UNL     1       9.752   2.053  -0.425  1.00  0.00     0.016 A 
HETATM   16  C   UNL     1       7.258   2.090   0.769  1.00  0.00     0.015 A 
HETATM   17  C   UNL     1       8.218   3.023   1.153  1.00  0.00     0.001 A 
HETATM   18  C   UNL     1       9.464   3.011   0.548  1.00  0.00     0.001 A 
BRANCH  12  19
HETATM   19  N   UNL     1      10.319   0.017  -2.426  1.00  0.00    -0.370 N 
HETATM   20  H   UNL     1      11.081   0.102  -1.749  1.00  0.00     0.161 HD
BRANCH  19  21
HETATM   21  C   UNL     1      10.655  -0.870  -3.547  1.00  0.00     0.083 C 
HETATM   22  C   UNL     1       9.953  -0.414  -4.836  1.00  0.00     0.025 C 
HETATM   23  C   UNL     1      10.486   0.919  -5.360  1.00  0.00     0.002 C 
HETATM   24  C   UNL     1      11.998   0.883  -5.553  1.00  0.00     0.000 C 
HETATM   25  C   UNL     1      12.718   0.449  -4.281  1.00  0.00     0.002 C 
HETATM   26  C   UNL     1      12.180  -0.881  -3.750  1.00  0.00     0.025 C 
ENDBRANCH  19  21
ENDBRANCH  12  19
ENDBRANCH   5   8
BRANCH   3  27
HETATM   27  S   UNL     1       2.063   2.806  -0.470  1.00  0.00     0.242 S 
HETATM   28  O   UNL     1       2.696   3.460  -1.595  1.00  0.00    -0.206 OA
HETATM   29  O   UNL     1       0.655   2.494  -0.471  1.00  0.00    -0.206 OA
BRANCH  27  30
HETATM   30  N   UNL     1       2.386   3.718   0.921  1.00  0.00    -0.208 NA
HETATM   31  H   UNL     1       2.363   3.125   1.755  1.00  0.00     0.140 HD
BRANCH  30  32
HETATM   32  C   UNL     1       3.612   4.531   0.851  1.00  0.00     0.182 C 
BRANCH  32  33
HETATM   33  C   UNL     1       3.970   4.970   2.227  1.00  0.00     0.119 A 
HETATM   34  N   UNL     1       4.960   4.508   2.967  1.00  0.00    -0.232 NA
HETATM   35  C   UNL     1       4.919   5.244   4.130  1.00  0.00     0.085 A 
HETATM   36  C   UNL     1       3.862   6.148   4.108  1.00  0.00     0.062 A 
HETATM   37  C   UNL     1       5.756   5.198   5.255  1.00  0.00     0.034 A 
HETATM   38  N   UNL     1       3.267   5.946   2.891  1.00  0.00    -0.342 N 
HETATM   39  C   UNL     1       3.577   7.021   5.159  1.00  0.00     0.032 A 
HETATM   40  H   UNL     1       2.452   6.430   2.539  1.00  0.00     0.167 HD
HETATM   41  C   UNL     1       4.424   6.963   6.272  1.00  0.00     0.002 A 
HETATM   42  C   UNL     1       5.497   6.069   6.321  1.00  0.00     0.002 A 
ENDBRANCH  32  33
ENDBRANCH  30  32
ENDBRANCH  27  30
ENDBRANCH   3  27
TORSDOF 7
