REMARK  6 active torsions:
REMARK  status: ('A' for Active; 'I' for Inactive)
REMARK    1  A    between atoms: N_4  and  C_5 
REMARK    2  A    between atoms: C_13  and  C_14 
REMARK       I    between atoms: C_14  and  N_15 
REMARK    3  A    between atoms: N_15  and  C_16 
REMARK    4  A    between atoms: C_16  and  C_17 
REMARK    5  A    between atoms: C_17  and  O_18 
REMARK    6  A    between atoms: C_17  and  C_19 
ROOT
HETATM    1  C   UNL     1       5.373  -7.733   1.833  1.00  0.00     0.257 C 
HETATM    2  N   UNL     1       6.053  -6.974   0.913  1.00  0.00    -0.354 N 
HETATM    3  O   UNL     1       4.994  -8.873   1.579  1.00  0.00    -0.267 OA
HETATM    4  H   UNL     1       6.498  -6.114   1.214  1.00  0.00     0.162 HD
ENDROOT
BRANCH   1   5
HETATM    5  C   UNL     1       5.160  -7.126   3.140  1.00  0.00     0.098 C 
HETATM    6  C   UNL     1       4.582  -7.753   4.277  1.00  0.00     0.070 C 
HETATM    7  C   UNL     1       4.083  -9.149   4.399  1.00  0.00     0.073 C 
HETATM    8  N   UNL     1       4.487  -6.928   5.323  1.00  0.00    -0.170 NA
HETATM    9  N   UNL     1       5.093  -5.771   4.929  1.00  0.00    -0.221 N 
HETATM   10  C   UNL     1       5.406  -5.841   3.580  1.00  0.00     0.145 C 
HETATM   11 CL   UNL     1       5.862  -4.461   2.673  1.00  0.00    -0.061 Cl
BRANCH   9  12
HETATM   12  C   UNL     1       5.321  -4.758   5.912  1.00  0.00     0.060 A 
HETATM   13  C   UNL     1       6.286  -3.756   5.756  1.00  0.00     0.031 A 
HETATM   14  C   UNL     1       6.481  -2.799   6.758  1.00  0.00     0.002 A 
HETATM   15  C   UNL     1       5.727  -2.839   7.928  1.00  0.00     0.000 A 
HETATM   16  C   UNL     1       4.781  -3.844   8.107  1.00  0.00     0.002 A 
HETATM   17  C   UNL     1       4.584  -4.802   7.110  1.00  0.00     0.031 A 
ENDBRANCH   9  12
ENDBRANCH   1   5
BRANCH   2  18
HETATM   18  C   UNL     1       6.509  -7.532  -0.349  1.00  0.00     0.159 C 
BRANCH  18  19
HETATM   19  C   UNL     1       6.873  -6.453  -1.385  1.00  0.00     0.169 C 
BRANCH  19  20
HETATM   20  O   UNL     1       7.845  -5.566  -0.820  1.00  0.00    -0.389 OA
HETATM   21  H   UNL     1       8.032  -4.889  -1.495  1.00  0.00     0.210 HD
ENDBRANCH  19  20
BRANCH  19  22
HETATM   22  C   UNL     1       5.669  -5.685  -1.897  1.00  0.00    -0.025 A 
HETATM   23  C   UNL     1       5.292  -4.447  -1.352  1.00  0.00     0.053 A 
HETATM   24  C   UNL     1       4.174  -3.773  -1.840  1.00  0.00     0.138 A 
HETATM   25  F   UNL     1       3.855  -2.586  -1.302  1.00  0.00    -0.204 F 
HETATM   26  C   UNL     1       3.408  -4.317  -2.867  1.00  0.00     0.072 A 
HETATM   27 CL   UNL     1       2.030  -3.486  -3.475  1.00  0.00    -0.081 Cl
HETATM   28  C   UNL     1       3.761  -5.551  -3.411  1.00  0.00     0.028 A 
HETATM   29  C   UNL     1       4.885  -6.231  -2.928  1.00  0.00     0.012 A 
ENDBRANCH  19  22
ENDBRANCH  18  19
ENDBRANCH   2  18
TORSDOF 6
