REMARK  8 active torsions:
REMARK  status: ('A' for Active; 'I' for Inactive)
REMARK    1  A    between atoms: O_2  and  C_3 
REMARK    2  A    between atoms: C_4  and  O_5 
REMARK    3  A    between atoms: C_8  and  C_9 
REMARK    4  A    between atoms: C_9  and  N_10 
REMARK    5  A    between atoms: C_19  and  C_20 
REMARK    6  A    between atoms: C_20  and  N_21 
REMARK    7  A    between atoms: C_25  and  O_26 
REMARK    8  A    between atoms: C_25  and  C_27 
ROOT
HETATM    1  N   UNL     1       5.426   3.411   4.760  1.00  0.00    -0.061 N 
HETATM    2  H   UNL     1       4.562   3.799   4.364  1.00  0.00     0.280 HD
HETATM    3  C   UNL     1       5.073   3.128   6.208  1.00  0.00     0.276 C 
HETATM    4  C   UNL     1       6.119   2.400   7.006  1.00  0.00     0.002 A 
HETATM    5  C   UNL     1       7.379   2.966   7.204  1.00  0.00     0.076 A 
HETATM    6  O   UNL     1       7.677   4.206   6.716  1.00  0.00    -0.349 OA
HETATM    7  C   UNL     1       7.795   4.206   5.287  1.00  0.00     0.203 C 
HETATM    8  C   UNL     1       6.455   4.524   4.615  1.00  0.00     0.262 C 
HETATM    9  C   UNL     1       5.849   1.151   7.598  1.00  0.00     0.020 A 
HETATM   10  C   UNL     1       6.831   0.456   8.329  1.00  0.00    -0.032 A 
HETATM   11  C   UNL     1       8.081   1.061   8.518  1.00  0.00     0.011 A 
HETATM   12  C   UNL     1       8.344   2.321   7.974  1.00  0.00     0.038 A 
ENDROOT
BRANCH  10  13
HETATM   13  C   UNL     1       6.549  -0.927   8.870  1.00  0.00     0.273 C 
BRANCH  13  14
HETATM   14  N   UNL     1       6.457  -1.018  10.382  1.00  0.00    -0.067 N 
HETATM   15  H   UNL     1       7.339  -0.645  10.758  1.00  0.00     0.280 HD
HETATM   16  C   UNL     1       5.335  -0.177  10.945  1.00  0.00     0.238 C 
HETATM   17  C   UNL     1       5.276  -0.332  12.455  1.00  0.00     0.071 C 
HETATM   18  C   UNL     1       5.045  -1.798  12.873  1.00  0.00     0.089 C 
HETATM   19  C   UNL     1       6.243  -2.591  12.313  1.00  0.00     0.071 C 
HETATM   20  C   UNL     1       6.367  -2.471  10.803  1.00  0.00     0.238 C 
BRANCH  18  21
HETATM   21  O   UNL     1       5.166  -1.835  14.295  1.00  0.00    -0.385 OA
HETATM   22  H   UNL     1       4.405  -2.304  14.688  1.00  0.00     0.211 HD
ENDBRANCH  18  21
BRANCH  18  23
HETATM   23  C   UNL     1       3.666  -2.328  12.494  1.00  0.00    -0.006 A 
HETATM   24  C   UNL     1       3.454  -3.634  12.051  1.00  0.00     0.126 A 
HETATM   25  N   UNL     1       2.266  -4.123  11.636  1.00  0.00    -0.272 NA
HETATM   26  C   UNL     1       1.194  -3.314  11.732  1.00  0.00     0.116 A 
HETATM   27  C   UNL     1       1.267  -2.024  12.219  1.00  0.00     0.020 A 
HETATM   28  C   UNL     1       2.513  -1.534  12.608  1.00  0.00     0.013 A 
ENDBRANCH  18  23
ENDBRANCH  13  14
ENDBRANCH  10  13
BRANCH   1  29
HETATM   29  C   UNL     1       5.729   2.202   3.895  1.00  0.00     0.274 C 
BRANCH  29  30
HETATM   30  C   UNL     1       4.684   1.122   3.969  1.00  0.00    -0.030 A 
HETATM   31  C   UNL     1       4.960  -0.068   4.654  1.00  0.00     0.048 A 
HETATM   32  C   UNL     1       3.961  -1.019   4.864  1.00  0.00     0.102 A 
HETATM   33  C   UNL     1       2.666  -0.819   4.367  1.00  0.00     0.101 A 
HETATM   34  C   UNL     1       2.406   0.336   3.624  1.00  0.00     0.040 A 
HETATM   35  C   UNL     1       3.404   1.302   3.429  1.00  0.00     0.012 A 
BRANCH  32  36
HETATM   36  O   UNL     1       4.290  -2.067   5.687  1.00  0.00    -0.353 OA
HETATM   37  C   UNL     1       4.370  -3.294   4.955  1.00  0.00     0.210 C 
ENDBRANCH  32  36
BRANCH  33  38
HETATM   38  O   UNL     1       1.729  -1.760   4.695  1.00  0.00    -0.353 OA
HETATM   39  C   UNL     1       0.516  -1.760   3.949  1.00  0.00     0.210 C 
ENDBRANCH  33  38
ENDBRANCH  29  30
ENDBRANCH   1  29
TORSDOF 8
