REMARK  5 active torsions:
REMARK  status: ('A' for Active; 'I' for Inactive)
REMARK    1  A    between atoms: O_2  and  C_3 
REMARK    2  A    between atoms: C_6  and  N_7 
REMARK       I    between atoms: N_7  and  C_8 
REMARK    3  A    between atoms: C_8  and  C_9 
REMARK    4  A    between atoms: C_9  and  N_10 
REMARK    5  A    between atoms: N_10  and  C_11 
ROOT
HETATM    1  C   UNL     1       4.770  -3.829   4.295  1.00  0.00     0.195 C 
ENDROOT
BRANCH   1   2
HETATM    2  C   UNL     1       5.551  -2.562   4.637  1.00  0.00     0.235 C 
HETATM    3  N   UNL     1       5.160  -1.694   5.615  1.00  0.00    -0.326 N 
HETATM    4  H   UNL     1       5.874  -0.991   5.768  1.00  0.00     0.169 HD
HETATM    5  O   UNL     1       6.595  -2.297   4.026  1.00  0.00    -0.272 OA
BRANCH   3   6
HETATM    6  C   UNL     1       4.007  -1.577   6.412  1.00  0.00     0.034 A 
HETATM    7  C   UNL     1       2.801  -2.240   6.195  1.00  0.00     0.032 A 
HETATM    8  C   UNL     1       1.712  -2.060   7.063  1.00  0.00     0.039 A 
HETATM    9  C   UNL     1       1.811  -1.199   8.153  1.00  0.00     0.068 A 
HETATM   10  C   UNL     1       2.999  -0.498   8.349  1.00  0.00     0.039 A 
HETATM   11  C   UNL     1       4.084  -0.682   7.486  1.00  0.00     0.032 A 
BRANCH   9  12
HETATM   12  O   UNL     1       0.831  -0.945   9.070  1.00  0.00    -0.356 OA
HETATM   13  C   UNL     1      -0.322  -1.776   9.019  1.00  0.00     0.210 C 
ENDBRANCH   9  12
ENDBRANCH   3   6
ENDBRANCH   1   2
BRANCH   1  14
HETATM   14  N   UNL     1       3.810  -3.543   3.226  1.00  0.00    -0.284 NA
HETATM   15  H   UNL     1       4.240  -3.014   2.467  1.00  0.00     0.128 HD
BRANCH  14  16
HETATM   16  C   UNL     1       2.956  -4.540   2.749  1.00  0.00     0.009 A 
HETATM   17  C   UNL     1       2.268  -4.302   1.548  1.00  0.00     0.035 A 
HETATM   18  C   UNL     1       1.316  -5.203   1.038  1.00  0.00    -0.024 A 
HETATM   19  C   UNL     1       1.018  -6.373   1.766  1.00  0.00    -0.026 A 
HETATM   20  C   UNL     1       0.648  -4.960  -0.174  1.00  0.00     0.012 A 
HETATM   21  C   UNL     1       1.678  -6.601   2.981  1.00  0.00     0.014 A 
HETATM   22  C   UNL     1       0.063  -7.273   1.265  1.00  0.00     0.012 A 
HETATM   23  C   UNL     1       2.622  -5.688   3.469  1.00  0.00     0.024 A 
HETATM   24  C   UNL     1      -0.591  -7.018   0.058  1.00  0.00     0.001 A 
HETATM   25  C   UNL     1      -0.299  -5.863  -0.661  1.00  0.00     0.001 A 
ENDBRANCH  14  16
ENDBRANCH   1  14
TORSDOF 5
