REMARK  7 active torsions:
REMARK  status: ('A' for Active; 'I' for Inactive)
REMARK    1  A    between atoms: C_2  and  O_3 
REMARK    2  A    between atoms: O_3  and  C_4 
REMARK    3  A    between atoms: C_4  and  C_5 
REMARK    4  A    between atoms: C_6  and  C_7 
REMARK    5  A    between atoms: C_18  and  S_19 
REMARK    6  A    between atoms: S_19  and  C_20 
REMARK    7  A    between atoms: C_20  and  C_21 
ROOT
HETATM    1  C   UNL     1       5.279   0.352  -0.244  1.00  0.00     0.070 A 
HETATM    2  C   UNL     1       6.382   0.947   0.628  1.00  0.00     0.203 A 
HETATM    3  N   UNL     1       7.150  -0.102   1.313  1.00  0.00    -0.082 N 
HETATM    4  C   UNL     1       6.923  -1.441   1.162  1.00  0.00     0.726 A 
HETATM    5  N   UNL     1       5.952  -1.856   0.330  1.00  0.00    -0.192 N 
HETATM    6  N   UNL     1       8.191   0.126   2.138  1.00  0.00    -0.128 NA
HETATM    7  C   UNL     1       8.481  -1.122   2.527  1.00  0.00     0.226 A 
HETATM    8  N   UNL     1       7.748  -2.113   1.922  1.00  0.00    -0.035 NA
HETATM    9  C   UNL     1       5.116  -0.990  -0.365  1.00  0.00     0.037 A 
HETATM   10  C   UNL     1       4.081  -1.652  -1.243  1.00  0.00     0.070 C 
HETATM   11  H   UNL     1       5.776  -2.854   0.241  1.00  0.00     0.184 HD
ENDROOT
BRANCH   7  12
HETATM   12  S   UNL     1       9.693  -1.423   3.739  1.00  0.00    -0.083 SA
BRANCH  12  13
HETATM   13  C   UNL     1       9.454  -3.204   3.989  1.00  0.00     0.123 C 
BRANCH  13  14
HETATM   14  C   UNL     1      10.219  -3.706   5.191  1.00  0.00    -0.027 A 
HETATM   15  C   UNL     1       9.641  -3.826   6.466  1.00  0.00     0.041 A 
HETATM   16 CL   UNL     1       7.990  -3.415   6.770  1.00  0.00    -0.084 Cl
HETATM   17  C   UNL     1      10.395  -4.291   7.549  1.00  0.00     0.024 A 
HETATM   18  C   UNL     1      11.737  -4.631   7.378  1.00  0.00     0.002 A 
HETATM   19  C   UNL     1      12.328  -4.505   6.124  1.00  0.00     0.001 A 
HETATM   20  C   UNL     1      11.577  -4.047   5.040  1.00  0.00     0.009 A 
ENDBRANCH  13  14
ENDBRANCH  12  13
ENDBRANCH   7  12
BRANCH   2  21
HETATM   21  C   UNL     1       5.885   1.970   1.650  1.00  0.00    -0.028 A 
HETATM   22  C   UNL     1       4.831   1.683   2.534  1.00  0.00     0.011 A 
HETATM   23  C   UNL     1       4.398   2.643   3.454  1.00  0.00     0.024 A 
HETATM   24  C   UNL     1       5.019   3.889   3.504  1.00  0.00     0.034 A 
HETATM   25 CL   UNL     1       4.481   5.068   4.635  1.00  0.00    -0.084 Cl
HETATM   26  C   UNL     1       6.073   4.186   2.645  1.00  0.00     0.024 A 
HETATM   27  C   UNL     1       6.506   3.231   1.724  1.00  0.00     0.011 A 
ENDBRANCH   2  21
BRANCH   1  28
HETATM   28  C   UNL     1       4.349   1.300  -0.898  1.00  0.00     0.293 C 
HETATM   29  O   UNL     1       3.157   1.088  -1.058  1.00  0.00    -0.259 OA
BRANCH  28  30
HETATM   30  O   UNL     1       5.010   2.429  -1.254  1.00  0.00    -0.318 OA
BRANCH  30  31
HETATM   31  C   UNL     1       4.189   3.467  -1.814  1.00  0.00     0.174 C 
HETATM   32  C   UNL     1       3.492   4.252  -0.716  1.00  0.00     0.034 C 
ENDBRANCH  30  31
ENDBRANCH  28  30
ENDBRANCH   1  28
TORSDOF 7
