REMARK  7 active torsions:
REMARK  status: ('A' for Active; 'I' for Inactive)
REMARK    1  A    between atoms: C_2  and  N_3 
REMARK    2  A    between atoms: C_6  and  C_7 
REMARK    3  A    between atoms: C_7  and  O_8 
REMARK    4  A    between atoms: O_8  and  C_9 
REMARK    5  A    between atoms: C_9  and  C_10 
REMARK    6  A    between atoms: C_12  and  N_13 
REMARK    7  A    between atoms: C_22  and  N_23 
ROOT
HETATM    1  O   UNL     1       5.408   2.726   3.844  1.00  0.00    -0.310 OA
ENDROOT
BRANCH   1   2
HETATM    2  C   UNL     1       4.671   3.515   3.009  1.00  0.00     0.299 C 
HETATM    3  O   UNL     1       4.550   4.728   3.136  1.00  0.00    -0.259 OA
BRANCH   2   4
HETATM    4  C   UNL     1       4.008   2.773   1.956  1.00  0.00     0.103 A 
HETATM    5  C   UNL     1       3.281   3.331   0.880  1.00  0.00     0.160 A 
HETATM    6  N   UNL     1       2.765   2.411   0.064  1.00  0.00    -0.182 NA
HETATM    7  N   UNL     1       3.114   1.241   0.642  1.00  0.00    -0.250 N 
HETATM    8  C   UNL     1       3.918   1.406   1.754  1.00  0.00     0.136 A 
BRANCH   7   9
HETATM    9  C   UNL     1       2.626  -0.013   0.071  1.00  0.00     0.104 C 
HETATM   10  C   UNL     1       3.492  -0.443  -1.111  1.00  0.00     0.034 C 
HETATM   11  C   UNL     1       1.148   0.057  -0.323  1.00  0.00     0.034 C 
ENDBRANCH   7   9
BRANCH   8  12
HETATM   12  N   UNL     1       4.442   0.371   2.452  1.00  0.00    -0.383 N 
HETATM   13  H   UNL     1       5.155   0.573   3.155  1.00  0.00     0.157 HD
HETATM   14  H   UNL     1       4.563  -0.550   2.040  1.00  0.00     0.157 HD
ENDBRANCH   8  12
ENDBRANCH   2   4
ENDBRANCH   1   2
BRANCH   1  15
HETATM   15  C   UNL     1       6.033   3.431   4.928  1.00  0.00     0.259 C 
BRANCH  15  16
HETATM   16  C   UNL     1       7.204   4.303   4.523  1.00  0.00     0.152 A 
HETATM   17  N   UNL     1       7.890   3.980   3.411  1.00  0.00    -0.219 NA
HETATM   18  C   UNL     1       8.925   4.770   3.096  1.00  0.00     0.115 A 
HETATM   19  C   UNL     1       9.334   5.857   3.877  1.00  0.00     0.033 A 
HETATM   20  C   UNL     1       8.561   6.087   5.020  1.00  0.00     0.072 A 
HETATM   21  C   UNL     1      10.440   6.696   3.594  1.00  0.00     0.017 A 
HETATM   22  N   UNL     1       7.516   5.321   5.348  1.00  0.00    -0.231 NA
HETATM   23  C   UNL     1       8.900   7.153   5.844  1.00  0.00     0.032 A 
HETATM   24  C   UNL     1       9.985   7.990   5.564  1.00  0.00     0.002 A 
HETATM   25  C   UNL     1      10.760   7.759   4.436  1.00  0.00     0.001 A 
BRANCH  18  26
HETATM   26  N   UNL     1       9.595   4.417   1.917  1.00  0.00    -0.286 NA
HETATM   27  H   UNL     1       9.086   3.632   1.516  1.00  0.00     0.125 HD
HETATM   28  H   UNL     1       9.625   5.200   1.274  1.00  0.00     0.125 HD
ENDBRANCH  18  26
ENDBRANCH  15  16
ENDBRANCH   1  15
TORSDOF 7
