REMARK  9 active torsions:
REMARK  status: ('A' for Active; 'I' for Inactive)
REMARK    1  A    between atoms: C_3  and  O_4 
REMARK    2  A    between atoms: C_5  and  C_6 
REMARK    3  A    between atoms: C_16  and  N_17 
REMARK    4  A    between atoms: N_17  and  C_18 
REMARK    5  A    between atoms: C_18  and  N_19 
REMARK       I    between atoms: N_19  and  C_20 
REMARK    6  A    between atoms: C_20  and  C_21 
REMARK    7  A    between atoms: C_24  and  O_25 
REMARK    8  A    between atoms: O_25  and  C_26 
REMARK    9  A    between atoms: C_26  and  C_27 
ROOT
HETATM    1  N   UNL     1       5.403  -2.848   0.760  1.00  0.00    -0.333 N 
HETATM    2  H   UNL     1       6.330  -3.224   0.578  1.00  0.00     0.168 HD
ENDROOT
BRANCH   1   3
HETATM    3  C   UNL     1       5.371  -1.517   1.224  1.00  0.00     0.035 A 
HETATM    4  C   UNL     1       4.291  -0.939   1.891  1.00  0.00     0.048 A 
HETATM    5  C   UNL     1       4.347   0.384   2.375  1.00  0.00     0.053 A 
HETATM    6  C   UNL     1       5.534   1.116   2.194  1.00  0.00     0.086 A 
HETATM    7  C   UNL     1       6.630   0.555   1.524  1.00  0.00    -0.026 A 
HETATM    8  C   UNL     1       7.924   1.305   1.360  1.00  0.00     0.051 C 
HETATM    9  C   UNL     1       6.540  -0.766   1.060  1.00  0.00     0.039 A 
BRANCH   5  10
HETATM   10  C   UNL     1       3.156   0.911   3.040  1.00  0.00     0.183 A 
HETATM   11  O   UNL     1       3.321   2.044   3.799  1.00  0.00    -0.289 OA
HETATM   12  C   UNL     1       2.078   2.285   4.307  1.00  0.00     0.106 A 
HETATM   13  C   UNL     1       1.225   1.306   3.824  1.00  0.00     0.093 A 
HETATM   14  C   UNL     1       1.701   3.316   5.157  1.00  0.00     0.040 A 
HETATM   15  N   UNL     1       1.921   0.439   3.017  1.00  0.00    -0.221 NA
HETATM   16  C   UNL     1      -0.123   1.335   4.201  1.00  0.00     0.034 A 
HETATM   17  C   UNL     1      -0.546   2.362   5.059  1.00  0.00     0.002 A 
HETATM   18  C   UNL     1       0.351   3.332   5.528  1.00  0.00     0.003 A 
ENDBRANCH   5  10
BRANCH   6  19
HETATM   19  O   UNL     1       5.692   2.398   2.656  1.00  0.00    -0.359 OA
HETATM   20  H   UNL     1       4.920   2.642   3.200  1.00  0.00     0.218 HD
ENDBRANCH   6  19
ENDBRANCH   1   3
BRANCH   1  21
HETATM   21  C   UNL     1       4.433  -3.811   0.648  1.00  0.00     0.179 C 
HETATM   22  S   UNL     1       4.969  -5.388   0.494  1.00  0.00    -0.040 SA
BRANCH  21  23
HETATM   23  N   UNL     1       3.128  -3.373   0.584  1.00  0.00    -0.299 N 
HETATM   24  C   UNL     1       1.969  -4.144   0.603  1.00  0.00     0.257 C 
HETATM   25  O   UNL     1       1.840  -5.226   1.161  1.00  0.00    -0.267 OA
HETATM   26  H   UNL     1       3.055  -2.470   0.141  1.00  0.00     0.171 HD
BRANCH  24  27
HETATM   27  C   UNL     1       0.782  -3.541  -0.058  1.00  0.00     0.032 A 
HETATM   28  C   UNL     1       0.500  -2.171  -0.004  1.00  0.00     0.020 A 
HETATM   29  C   UNL     1      -0.620  -1.660  -0.674  1.00  0.00     0.038 A 
HETATM   30  C   UNL     1      -1.461  -2.512  -1.392  1.00  0.00     0.068 A 
HETATM   31  C   UNL     1      -1.200  -3.883  -1.403  1.00  0.00     0.038 A 
HETATM   32  C   UNL     1      -0.085  -4.399  -0.743  1.00  0.00     0.020 A 
BRANCH  30  33
HETATM   33  O   UNL     1      -2.573  -2.140  -2.092  1.00  0.00    -0.351 OA
BRANCH  33  34
HETATM   34  C   UNL     1      -2.658  -0.794  -2.567  1.00  0.00     0.179 C 
BRANCH  34  35
HETATM   35  C   UNL     1      -1.716  -0.531  -3.754  1.00  0.00     0.002 C 
HETATM   36  C   UNL     1      -1.992  -1.493  -4.912  1.00  0.00     0.011 C 
HETATM   37  C   UNL     1      -1.846   0.917  -4.224  1.00  0.00     0.011 C 
ENDBRANCH  34  35
ENDBRANCH  33  34
ENDBRANCH  30  33
ENDBRANCH  24  27
ENDBRANCH  21  23
ENDBRANCH   1  21
TORSDOF 9
