REMARK  5 active torsions:
REMARK  status: ('A' for Active; 'I' for Inactive)
REMARK    1  A    between atoms: O_2  and  C_3 
REMARK    2  A    between atoms: C_5  and  C_6 
REMARK    3  A    between atoms: C_12  and  C_13 
REMARK    4  A    between atoms: C_15  and  O_16 
REMARK    5  A    between atoms: C_18  and  O_19 
ROOT
HETATM    1  C   UNL     1       6.253  -2.502  -2.017  1.00  0.00     0.098 A 
HETATM    2  N   UNL     1       6.847  -1.388  -2.513  1.00  0.00    -0.173 NA
HETATM    3  N   UNL     1       7.872  -1.833  -3.279  1.00  0.00    -0.272 N 
HETATM    4  H   UNL     1       8.467  -1.158  -3.750  1.00  0.00     0.189 HD
HETATM    5  C   UNL     1       7.929  -3.172  -3.289  1.00  0.00     0.128 A 
HETATM    6  C   UNL     1       6.911  -3.642  -2.510  1.00  0.00     0.034 A 
HETATM    7  C   UNL     1       6.932  -5.119  -2.497  1.00  0.00     0.156 A 
HETATM    8  N   UNL     1       8.090  -5.364  -3.378  1.00  0.00    -0.343 N 
HETATM    9  C   UNL     1       8.696  -4.210  -3.862  1.00  0.00     0.271 A 
HETATM   10  O   UNL     1       9.649  -4.135  -4.614  1.00  0.00    -0.266 OA
HETATM   11  H   UNL     1       8.413  -6.281  -3.648  1.00  0.00     0.163 HD
ENDROOT
BRANCH   7  12
HETATM   12  C   UNL     1       5.636  -5.631  -3.076  1.00  0.00    -0.028 A 
HETATM   13  C   UNL     1       5.259  -5.394  -4.417  1.00  0.00     0.049 A 
HETATM   14  C   UNL     1       4.057  -5.892  -4.924  1.00  0.00     0.101 A 
HETATM   15  C   UNL     1       3.229  -6.638  -4.080  1.00  0.00     0.099 A 
HETATM   16  C   UNL     1       3.573  -6.889  -2.760  1.00  0.00     0.040 A 
HETATM   17  C   UNL     1       4.774  -6.387  -2.260  1.00  0.00     0.012 A 
BRANCH  14  18
HETATM   18  O   UNL     1       3.586  -5.729  -6.201  1.00  0.00    -0.353 OA
HETATM   19  C   UNL     1       4.379  -4.935  -7.077  1.00  0.00     0.210 C 
ENDBRANCH  14  18
BRANCH  15  20
HETATM   20  O   UNL     1       2.046  -7.144  -4.547  1.00  0.00    -0.358 OA
HETATM   21  H   UNL     1       1.995  -6.844  -5.476  1.00  0.00     0.218 HD
ENDBRANCH  15  20
ENDBRANCH   7  12
BRANCH   1  22
HETATM   22  C   UNL     1       5.103  -2.414  -1.119  1.00  0.00    -0.002 A 
HETATM   23  C   UNL     1       4.198  -1.347  -1.235  1.00  0.00     0.050 A 
HETATM   24  C   UNL     1       3.087  -1.243  -0.392  1.00  0.00     0.069 A 
HETATM   25  C   UNL     1       2.876  -2.218   0.583  1.00  0.00     0.037 A 
HETATM   26  C   UNL     1       3.774  -3.279   0.717  1.00  0.00     0.004 A 
HETATM   27  C   UNL     1       4.884  -3.375  -0.125  1.00  0.00     0.014 A 
BRANCH  24  28
HETATM   28  O   UNL     1       2.293  -0.153  -0.623  1.00  0.00    -0.356 OA
HETATM   29  C   UNL     1       1.173   0.022   0.235  1.00  0.00     0.210 C 
ENDBRANCH  24  28
ENDBRANCH   1  22
TORSDOF 5
