REMARK  7 active torsions:
REMARK  status: ('A' for Active; 'I' for Inactive)
REMARK    1  A    between atoms: C_2  and  C_3 
REMARK    2  A    between atoms: C_3  and  C_4 
REMARK    3  A    between atoms: C_8  and  C_9 
REMARK       I    between atoms: C_9  and  N_10 
REMARK    4  A    between atoms: N_10  and  C_11 
REMARK    5  A    between atoms: C_11  and  C_12 
REMARK    6  A    between atoms: C_12  and  N_13 
REMARK    7  A    between atoms: C_16  and  C_17 
ROOT
HETATM    1  C   UNL     1       8.904   0.928   1.379  1.00  0.00     0.150 C 
ENDROOT
BRANCH   1   2
HETATM    2  N   UNL     1       8.341   0.960   2.720  1.00  0.00    -0.354 N 
HETATM    3  C   UNL     1       8.664   1.988   3.594  1.00  0.00     0.272 C 
HETATM    4  O   UNL     1       9.720   2.607   3.510  1.00  0.00    -0.266 OA
HETATM    5  H   UNL     1       7.369   0.666   2.845  1.00  0.00     0.162 HD
BRANCH   3   6
HETATM    6  C   UNL     1       7.625   2.250   4.595  1.00  0.00     0.146 A 
HETATM    7  N   UNL     1       6.536   1.459   4.688  1.00  0.00    -0.169 NA
HETATM    8  N   UNL     1       5.805   2.026   5.668  1.00  0.00    -0.282 N 
HETATM    9  C   UNL     1       6.368   3.161   6.184  1.00  0.00     0.030 A 
HETATM   10  H   UNL     1       4.919   1.600   5.923  1.00  0.00     0.189 HD
HETATM   11  C   UNL     1       7.567   3.316   5.524  1.00  0.00     0.065 A 
BRANCH   9  12
HETATM   12  C   UNL     1       5.696   3.982   7.231  1.00  0.00     0.058 C 
BRANCH  12  13
HETATM   13  C   UNL     1       4.689   4.952   6.611  1.00  0.00     0.002 C 
HETATM   14  C   UNL     1       3.995   5.793   7.671  1.00  0.00     0.005 C 
ENDBRANCH  12  13
ENDBRANCH   9  12
ENDBRANCH   3   6
ENDBRANCH   1   2
BRANCH   1  15
HETATM   15  C   UNL     1      10.431   0.739   1.336  1.00  0.00     0.254 C 
BRANCH  15  16
HETATM   16  N   UNL     1      10.841  -0.386   2.272  1.00  0.00    -0.069 N 
HETATM   17  H   UNL     1      10.336  -0.190   3.150  1.00  0.00     0.280 HD
HETATM   18  C   UNL     1      12.326  -0.398   2.580  1.00  0.00     0.244 C 
HETATM   19  C   UNL     1      12.901  -1.536   1.727  1.00  0.00     0.046 C 
HETATM   20  C   UNL     1      11.774  -2.567   1.847  1.00  0.00     0.039 C 
HETATM   21  C   UNL     1      10.481  -1.768   1.783  1.00  0.00     0.235 C 
BRANCH  19  22
HETATM   22  C   UNL     1      13.305  -1.060   0.334  1.00  0.00    -0.046 A 
HETATM   23  C   UNL     1      14.407  -0.182   0.162  1.00  0.00    -0.055 A 
HETATM   24  C   UNL     1      15.288   0.286   1.294  1.00  0.00     0.049 C 
HETATM   25  C   UNL     1      14.706   0.318  -1.119  1.00  0.00     0.007 A 
HETATM   26  C   UNL     1      13.974  -0.074  -2.234  1.00  0.00     0.001 A 
HETATM   27  C   UNL     1      12.937  -0.983  -2.087  1.00  0.00     0.001 A 
HETATM   28  C   UNL     1      12.612  -1.475  -0.820  1.00  0.00     0.008 A 
ENDBRANCH  19  22
ENDBRANCH  15  16
ENDBRANCH   1  15
TORSDOF 7
