REMARK  13 active torsions:
REMARK  status: ('A' for Active; 'I' for Inactive)
REMARK    1  A    between atoms: O_2  and  C_3 
REMARK    2  A    between atoms: C_6  and  C_7 
REMARK    3  A    between atoms: C_7  and  C_8 
REMARK    4  A    between atoms: C_9  and  C_10 
REMARK    5  A    between atoms: N_17  and  C_18 
REMARK    6  A    between atoms: C_18  and  C_19 
REMARK    7  A    between atoms: C_19  and  O_20 
REMARK    8  A    between atoms: C_19  and  C_21 
REMARK    9  A    between atoms: C_21  and  N_22 
REMARK   10  A    between atoms: N_22  and  C_25 
REMARK   11  A    between atoms: C_25  and  C_26 
REMARK   12  A    between atoms: C_26  and  C_27 
REMARK   13  A    between atoms: C_32  and  O_33 
ROOT
HETATM    1  C   UNL     1      -1.123   8.052  -0.490  1.00  0.00     0.162 C 
ENDROOT
BRANCH   1   2
HETATM    2  N   UNL     1      -0.173   6.959  -0.351  1.00  0.00    -0.353 N 
HETATM    3  C   UNL     1       1.199   7.081  -0.277  1.00  0.00     0.045 A 
HETATM    4  C   UNL     1       1.707   5.802  -0.013  1.00  0.00     0.002 A 
HETATM    5  C   UNL     1       2.039   8.200  -0.406  1.00  0.00     0.030 A 
HETATM    6  C   UNL     1       0.598   4.900  -0.021  1.00  0.00    -0.008 A 
HETATM    7  C   UNL     1       3.099   5.664   0.190  1.00  0.00     0.014 A 
HETATM    8  C   UNL     1      -0.544   5.647  -0.209  1.00  0.00     0.103 A 
HETATM    9  C   UNL     1       3.937   6.777   0.079  1.00  0.00     0.001 A 
HETATM   10  C   UNL     1       3.413   8.025  -0.227  1.00  0.00     0.002 A 
BRANCH   6  11
HETATM   11  C   UNL     1       0.575   3.479   0.127  1.00  0.00     0.018 C 
HETATM   12  C   UNL     1       1.554   2.651  -0.275  1.00  0.00     0.056 C 
BRANCH  12  13
HETATM   13  C   UNL     1       1.436   1.185  -0.056  1.00  0.00     0.182 C 
HETATM   14  O   UNL     1       0.392   0.698   0.371  1.00  0.00    -0.288 OA
BRANCH  13  15
HETATM   15  C   UNL     1       2.627   0.315  -0.308  1.00  0.00     0.014 A 
HETATM   16  C   UNL     1       3.774   0.740  -0.993  1.00  0.00     0.018 A 
HETATM   17  C   UNL     1       4.879  -0.112  -1.135  1.00  0.00     0.037 A 
HETATM   18  C   UNL     1       4.850  -1.400  -0.603  1.00  0.00     0.068 A 
HETATM   19  C   UNL     1       3.694  -1.842   0.041  1.00  0.00     0.037 A 
HETATM   20  C   UNL     1       2.593  -0.993   0.191  1.00  0.00     0.018 A 
BRANCH  18  21
HETATM   21  O   UNL     1       5.866  -2.312  -0.660  1.00  0.00    -0.356 OA
HETATM   22  C   UNL     1       7.144  -1.822  -1.050  1.00  0.00     0.210 C 
ENDBRANCH  18  21
ENDBRANCH  13  15
ENDBRANCH  12  13
ENDBRANCH   6  11
ENDBRANCH   1   2
BRANCH   1  23
HETATM   23  C   UNL     1      -1.336   8.876   0.794  1.00  0.00     0.162 C 
BRANCH  23  24
HETATM   24  O   UNL     1      -0.345   9.909   0.968  1.00  0.00    -0.392 OA
HETATM   25  H   UNL     1      -0.283  10.417   0.134  1.00  0.00     0.210 HD
ENDBRANCH  23  24
BRANCH  23  26
HETATM   26  C   UNL     1      -1.357   8.047   2.093  1.00  0.00     0.265 C 
BRANCH  26  27
HETATM   27  N   UNL     1      -1.246   9.014   3.246  1.00  0.00    -0.072 N 
HETATM   28  H   UNL     1      -0.404   9.585   3.049  1.00  0.00     0.277 HD
HETATM   29  H   UNL     1      -2.021   9.686   3.197  1.00  0.00     0.277 HD
BRANCH  27  30
HETATM   30  C   UNL     1      -1.200   8.424   4.616  1.00  0.00     0.237 C 
BRANCH  30  31
HETATM   31  C   UNL     1       0.130   7.727   4.907  1.00  0.00     0.068 C 
BRANCH  31  32
HETATM   32  C   UNL     1       0.146   7.172   6.293  1.00  0.00    -0.029 A 
HETATM   33  C   UNL     1      -0.538   5.997   6.742  1.00  0.00     0.001 A 
HETATM   34  C   UNL     1      -0.288   5.863   8.106  1.00  0.00     0.043 A 
HETATM   35  C   UNL     1      -1.358   5.037   6.115  1.00  0.00     0.051 A 
HETATM   36  C   UNL     1      -0.826   4.823   8.872  1.00  0.00     0.033 A 
HETATM   37  N   UNL     1       0.542   6.897   8.471  1.00  0.00    -0.365 N 
HETATM   38  C   UNL     1      -1.646   3.889   8.225  1.00  0.00     0.039 A 
HETATM   39  C   UNL     1      -1.910   3.986   6.861  1.00  0.00     0.069 A 
HETATM   40  H   UNL     1       0.903   7.038   9.406  1.00  0.00     0.165 HD
HETATM   41  C   UNL     1       0.802   7.697   7.388  1.00  0.00     0.096 A 
BRANCH  39  42
HETATM   42  O   UNL     1      -2.695   3.136   6.129  1.00  0.00    -0.356 OA
HETATM   43  C   UNL     1      -3.188   1.980   6.799  1.00  0.00     0.210 C 
ENDBRANCH  39  42
ENDBRANCH  31  32
ENDBRANCH  30  31
ENDBRANCH  27  30
ENDBRANCH  26  27
ENDBRANCH  23  26
ENDBRANCH   1  23
TORSDOF 13
