REMARK  4 active torsions:
REMARK  status: ('A' for Active; 'I' for Inactive)
REMARK    1  A    between atoms: C_7  and  C_8 
REMARK    2  A    between atoms: N_9  and  C_10 
REMARK    3  A    between atoms: C_10  and  C_11 
REMARK       I    between atoms: C_11  and  N_12 
REMARK    4  A    between atoms: N_12  and  C_13 
ROOT
HETATM    1  C   UNL     1       3.409  -2.202  -0.465  1.00  0.00     0.158 A 
HETATM    2  N   UNL     1       4.286  -3.336  -0.706  1.00  0.00    -0.326 N 
HETATM    3  C   UNL     1       4.374  -4.175   0.384  1.00  0.00     0.255 A 
HETATM    4  O   UNL     1       5.123  -5.120   0.538  1.00  0.00    -0.267 OA
HETATM    5  C   UNL     1       3.419  -3.680   1.383  1.00  0.00     0.040 A 
HETATM    6  C   UNL     1       2.831  -2.514   0.885  1.00  0.00    -0.015 A 
HETATM    7  C   UNL     1       3.094  -4.220   2.613  1.00  0.00     0.017 A 
HETATM    8  C   UNL     1       2.134  -3.550   3.372  1.00  0.00     0.001 A 
HETATM    9  C   UNL     1       1.538  -2.368   2.892  1.00  0.00     0.001 A 
HETATM   10  C   UNL     1       1.888  -1.839   1.645  1.00  0.00     0.011 A 
ENDROOT
BRANCH   1  11
HETATM   11  C   UNL     1       2.272  -2.136  -1.439  1.00  0.00     0.004 A 
HETATM   12  C   UNL     1       1.459  -3.161  -1.920  1.00  0.00     0.015 A 
HETATM   13  C   UNL     1       1.435  -4.620  -1.630  1.00  0.00     0.069 C 
HETATM   14  N   UNL     1       0.566  -2.609  -2.805  1.00  0.00    -0.359 N 
HETATM   15  H   UNL     1      -0.142  -3.122  -3.311  1.00  0.00     0.166 HD
HETATM   16  C   UNL     1       0.763  -1.255  -2.916  1.00  0.00     0.043 A 
HETATM   17  C   UNL     1       1.822  -0.925  -2.075  1.00  0.00     0.001 A 
HETATM   18  C   UNL     1       0.085  -0.310  -3.696  1.00  0.00     0.030 A 
HETATM   19  C   UNL     1       2.224   0.427  -2.010  1.00  0.00     0.014 A 
HETATM   20  C   UNL     1       1.557   1.387  -2.781  1.00  0.00     0.001 A 
HETATM   21  C   UNL     1       0.503   1.020  -3.613  1.00  0.00     0.002 A 
ENDBRANCH   1  11
BRANCH   2  22
HETATM   22  C   UNL     1       5.094  -3.458  -1.911  1.00  0.00     0.229 C 
BRANCH  22  23
HETATM   23  C   UNL     1       6.363  -2.601  -1.918  1.00  0.00     0.235 C 
HETATM   24  N   UNL     1       6.979  -2.467  -0.691  1.00  0.00    -0.355 N 
HETATM   25  H   UNL     1       6.647  -3.097   0.033  1.00  0.00     0.162 HD
HETATM   26  O   UNL     1       6.843  -2.187  -2.970  1.00  0.00    -0.272 OA
BRANCH  24  27
HETATM   27  C   UNL     1       8.301  -1.879  -0.491  1.00  0.00     0.084 C 
HETATM   28  C   UNL     1       9.429  -2.745  -1.083  1.00  0.00     0.025 C 
HETATM   29  C   UNL     1      10.078  -2.128  -2.319  1.00  0.00     0.002 C 
HETATM   30  C   UNL     1      10.608  -0.717  -2.065  1.00  0.00     0.000 C 
HETATM   31  C   UNL     1       9.821   0.063  -1.011  1.00  0.00     0.002 C 
HETATM   32  C   UNL     1       8.374  -0.403  -0.913  1.00  0.00     0.025 C 
ENDBRANCH  24  27
ENDBRANCH  22  23
ENDBRANCH   2  22
TORSDOF 4
