REMARK  8 active torsions:
REMARK  status: ('A' for Active; 'I' for Inactive)
REMARK    1  A    between atoms: C_7  and  S_8 
REMARK    2  A    between atoms: S_8  and  C_9 
REMARK    3  A    between atoms: C_9  and  C_10 
REMARK    4  A    between atoms: C_10  and  N_11 
REMARK       I    between atoms: N_11  and  C_12 
REMARK       I    between atoms: C_12  and  N_13 
REMARK    5  A    between atoms: N_13  and  C_14 
REMARK    6  A    between atoms: C_14  and  C_15 
REMARK    7  A    between atoms: C_17  and  O_18 
REMARK    8  A    between atoms: C_20  and  O_21 
ROOT
HETATM    1  N   UNL     1       2.034  -3.344   3.777  1.00  0.00    -0.342 N 
HETATM    2  C   UNL     1       2.396  -3.073   5.057  1.00  0.00     0.316 C 
HETATM    3  N   UNL     1       3.587  -2.452   5.234  1.00  0.00    -0.339 N 
HETATM    4  O   UNL     1       1.638  -3.379   5.971  1.00  0.00    -0.248 OA
HETATM    5  H   UNL     1       1.077  -3.678   3.741  1.00  0.00     0.164 HD
HETATM    6  H   UNL     1       4.222  -2.359   4.461  1.00  0.00     0.164 HD
ENDROOT
BRANCH   1   7
HETATM    7  C   UNL     1       2.672  -2.909   2.542  1.00  0.00     0.139 C 
BRANCH   7   8
HETATM    8  C   UNL     1       2.110  -3.636   1.337  1.00  0.00     0.165 C 
BRANCH   8   9
HETATM    9  S   UNL     1       2.932  -3.082  -0.135  1.00  0.00     0.179 S 
HETATM   10  O   UNL     1       4.331  -3.452  -0.073  1.00  0.00    -0.222 OA
HETATM   11  O   UNL     1       2.512  -1.727  -0.428  1.00  0.00    -0.222 OA
BRANCH   9  12
HETATM   12  C   UNL     1       2.236  -4.074  -1.375  1.00  0.00     0.093 A 
HETATM   13  C   UNL     1       1.173  -3.743  -2.203  1.00  0.00     0.028 A 
HETATM   14  C   UNL     1       0.362  -2.503  -2.330  1.00  0.00     0.070 C 
HETATM   15  N   UNL     1       0.937  -4.832  -3.006  1.00  0.00    -0.358 N 
HETATM   16  H   UNL     1       0.231  -4.881  -3.728  1.00  0.00     0.166 HD
HETATM   17  C   UNL     1       1.786  -5.866  -2.687  1.00  0.00     0.044 A 
HETATM   18  C   UNL     1       2.625  -5.418  -1.664  1.00  0.00     0.014 A 
HETATM   19  C   UNL     1       1.870  -7.153  -3.232  1.00  0.00     0.030 A 
HETATM   20  C   UNL     1       3.599  -6.313  -1.167  1.00  0.00     0.015 A 
HETATM   21  C   UNL     1       3.695  -7.604  -1.701  1.00  0.00     0.001 A 
HETATM   22  C   UNL     1       2.841  -8.016  -2.718  1.00  0.00     0.002 A 
ENDBRANCH   9  12
ENDBRANCH   8   9
ENDBRANCH   7   8
ENDBRANCH   1   7
BRANCH   3  23
HETATM   23  C   UNL     1       4.107  -2.151   6.548  1.00  0.00     0.163 C 
BRANCH  23  24
HETATM   24  C   UNL     1       4.736  -0.783   6.556  1.00  0.00    -0.038 A 
HETATM   25  C   UNL     1       3.917   0.357   6.579  1.00  0.00     0.048 A 
HETATM   26  C   UNL     1       4.470   1.642   6.560  1.00  0.00     0.102 A 
HETATM   27  C   UNL     1       5.870   1.793   6.512  1.00  0.00     0.101 A 
HETATM   28  C   UNL     1       6.686   0.657   6.484  1.00  0.00     0.040 A 
HETATM   29  C   UNL     1       6.123  -0.622   6.502  1.00  0.00     0.012 A 
BRANCH  26  30
HETATM   30  O   UNL     1       3.736   2.802   6.582  1.00  0.00    -0.353 OA
HETATM   31  C   UNL     1       2.321   2.684   6.619  1.00  0.00     0.210 C 
ENDBRANCH  26  30
BRANCH  27  32
HETATM   32  O   UNL     1       6.337   3.085   6.496  1.00  0.00    -0.353 OA
HETATM   33  C   UNL     1       7.740   3.278   6.390  1.00  0.00     0.210 C 
ENDBRANCH  27  32
ENDBRANCH  23  24
ENDBRANCH   3  23
TORSDOF 8
