REMARK  3 active torsions:
REMARK  status: ('A' for Active; 'I' for Inactive)
REMARK    1  A    between atoms: C_2  and  O_3 
REMARK    2  A    between atoms: O_3  and  C_4 
REMARK    3  A    between atoms: C_10  and  N_11 
REMARK       I    between atoms: N_11  and  C_12 
REMARK       I    between atoms: C_12  and  N_13 
ROOT
HETATM    1  N   UNL     1       2.434  -5.019  -1.550  1.00  0.00    -0.306 N 
HETATM    2  C   UNL     1       2.490  -3.869  -0.799  1.00  0.00     0.323 C 
HETATM    3  N   UNL     1       1.938  -2.730  -1.394  1.00  0.00    -0.328 N 
HETATM    4  C   UNL     1       1.114  -2.766  -2.616  1.00  0.00     0.185 C 
HETATM    5  C   UNL     1       0.843  -1.386  -3.103  1.00  0.00     0.035 A 
HETATM    6  C   UNL     1       1.222  -0.204  -2.505  1.00  0.00    -0.020 A 
HETATM    7  C   UNL     1       1.996  -0.207  -1.240  1.00  0.00     0.061 C 
HETATM    8  C   UNL     1       1.784  -1.546  -0.514  1.00  0.00     0.132 C 
HETATM    9  N   UNL     1       0.150  -1.076  -4.243  1.00  0.00    -0.357 N 
HETATM   10  H   UNL     1      -0.257  -1.738  -4.888  1.00  0.00     0.166 HD
HETATM   11  C   UNL     1       0.079   0.294  -4.390  1.00  0.00     0.043 A 
HETATM   12  C   UNL     1       0.749   0.867  -3.306  1.00  0.00    -0.001 A 
HETATM   13  C   UNL     1      -0.522   1.063  -5.395  1.00  0.00     0.030 A 
HETATM   14  C   UNL     1      -0.436   2.455  -5.285  1.00  0.00     0.002 A 
HETATM   15  C   UNL     1       0.226   3.053  -4.215  1.00  0.00     0.001 A 
HETATM   16  C   UNL     1       0.822   2.271  -3.219  1.00  0.00     0.014 A 
HETATM   17  O   UNL     1       2.977  -3.817   0.330  1.00  0.00    -0.247 OA
HETATM   18  H   UNL     1       2.153  -4.959  -2.515  1.00  0.00     0.171 HD
ENDROOT
BRANCH   1  19
HETATM   19  C   UNL     1       2.787  -6.336  -1.161  1.00  0.00     0.071 A 
HETATM   20  C   UNL     1       2.685  -7.345  -2.142  1.00  0.00     0.117 A 
HETATM   21  C   UNL     1       2.931  -8.685  -1.802  1.00  0.00     0.069 A 
HETATM   22 CL   UNL     1       2.687  -9.987  -2.910  1.00  0.00    -0.081 Cl
HETATM   23  C   UNL     1       3.347  -9.011  -0.510  1.00  0.00     0.027 A 
HETATM   24  C   UNL     1       3.492  -8.011   0.449  1.00  0.00     0.004 A 
HETATM   25  C   UNL     1       3.202  -6.682   0.127  1.00  0.00     0.032 A 
BRANCH  20  26
HETATM   26  O   UNL     1       2.270  -6.947  -3.396  1.00  0.00    -0.347 OA
BRANCH  26  27
HETATM   27  C   UNL     1       3.270  -7.176  -4.399  1.00  0.00     0.171 C 
HETATM   28  C   UNL     1       3.301  -5.970  -5.320  1.00  0.00     0.034 C 
ENDBRANCH  26  27
ENDBRANCH  20  26
ENDBRANCH   1  19
TORSDOF 3
