REMARK  11 active torsions:
REMARK  status: ('A' for Active; 'I' for Inactive)
REMARK    1  A    between atoms: C_2  and  O_3 
REMARK    2  A    between atoms: O_3  and  C_4 
REMARK    3  A    between atoms: C_5  and  N_6 
REMARK       I    between atoms: N_6  and  C_7 
REMARK    4  A    between atoms: C_7  and  C_8 
REMARK    5  A    between atoms: C_9  and  C_10 
REMARK    6  A    between atoms: C_10  and  N_11 
REMARK    7  A    between atoms: C_24  and  N_25 
REMARK    8  A    between atoms: N_25  and  C_26 
REMARK    9  A    between atoms: C_30  and  O_31 
REMARK   10  A    between atoms: O_31  and  C_32 
REMARK   11  A    between atoms: C_32  and  C_33 
ROOT
HETATM    1  C   UNL     1       4.700   1.088  -1.240  1.00  0.00     0.097 A 
HETATM    2  C   UNL     1       5.808   0.240  -1.312  1.00  0.00     0.069 A 
HETATM    3  C   UNL     1       7.093   0.795  -1.346  1.00  0.00     0.048 A 
HETATM    4  C   UNL     1       7.331   2.187  -1.252  1.00  0.00     0.023 A 
HETATM    5  C   UNL     1       6.194   3.023  -1.173  1.00  0.00     0.071 A 
HETATM    6  N   UNL     1       6.271   4.356  -1.086  1.00  0.00    -0.259 NA
HETATM    7  C   UNL     1       7.492   4.927  -1.070  1.00  0.00     0.142 A 
HETATM    8  C   UNL     1       8.674   4.218  -1.163  1.00  0.00     0.089 A 
HETATM    9  C   UNL     1       9.907   4.941  -1.153  1.00  0.00     0.103 C 
HETATM   10  N   UNL     1      10.920   5.505  -1.174  1.00  0.00    -0.191 NA
HETATM   11  C   UNL     1       8.619   2.813  -1.276  1.00  0.00     0.067 A 
HETATM   12  C   UNL     1       4.920   2.469  -1.195  1.00  0.00     0.071 A 
ENDROOT
BRANCH  11  13
HETATM   13  N   UNL     1       9.839   2.096  -1.406  1.00  0.00    -0.354 N 
HETATM   14  H   UNL     1      10.579   2.623  -1.872  1.00  0.00     0.166 HD
BRANCH  13  15
HETATM   15  C   UNL     1      10.340   0.896  -0.865  1.00  0.00     0.034 A 
HETATM   16  C   UNL     1      11.347   0.228  -1.580  1.00  0.00     0.056 A 
HETATM   17  C   UNL     1      11.828  -1.014  -1.160  1.00  0.00     0.069 A 
HETATM   18 CL   UNL     1      13.060  -1.777  -2.096  1.00  0.00    -0.081 Cl
HETATM   19  C   UNL     1      11.290  -1.620  -0.025  1.00  0.00     0.091 A 
HETATM   20  C   UNL     1      10.315  -0.953   0.719  1.00  0.00     0.041 A 
HETATM   21  C   UNL     1       9.839   0.296   0.295  1.00  0.00     0.032 A 
BRANCH  19  22
HETATM   22  O   UNL     1      11.785  -2.825   0.394  1.00  0.00    -0.344 OA
BRANCH  22  23
HETATM   23  C   UNL     1      10.811  -3.880   0.352  1.00  0.00     0.235 C 
BRANCH  23  24
HETATM   24  C   UNL     1      11.271  -5.054  -0.490  1.00  0.00     0.058 A 
HETATM   25  N   UNL     1      10.296  -5.884  -0.954  1.00  0.00    -0.263 NA
HETATM   26  C   UNL     1      10.687  -6.968  -1.663  1.00  0.00     0.117 A 
HETATM   27  C   UNL     1      12.006  -7.272  -1.948  1.00  0.00     0.019 A 
HETATM   28  C   UNL     1      12.990  -6.418  -1.471  1.00  0.00     0.003 A 
HETATM   29  C   UNL     1      12.623  -5.302  -0.724  1.00  0.00     0.029 A 
ENDBRANCH  23  24
ENDBRANCH  22  23
ENDBRANCH  19  22
ENDBRANCH  13  15
ENDBRANCH  11  13
BRANCH   2  30
HETATM   30  N   UNL     1       5.759  -1.167  -1.200  1.00  0.00    -0.321 N 
HETATM   31  C   UNL     1       4.715  -2.012  -1.430  1.00  0.00     0.245 C 
HETATM   32  O   UNL     1       4.520  -3.000  -0.726  1.00  0.00    -0.268 OA
HETATM   33  H   UNL     1       6.428  -1.550  -0.539  1.00  0.00     0.169 HD
BRANCH  31  34
HETATM   34  C   UNL     1       4.059  -1.881  -2.762  1.00  0.00     0.072 C 
HETATM   35  C   UNL     1       3.147  -2.806  -3.106  1.00  0.00     0.006 C 
BRANCH  35  36
HETATM   36  C   UNL     1       2.637  -3.026  -4.487  1.00  0.00     0.261 C 
BRANCH  36  37
HETATM   37  N   UNL     1       3.130  -4.355  -5.021  1.00  0.00    -0.076 N 
HETATM   38  H   UNL     1       4.099  -4.454  -4.689  1.00  0.00     0.279 HD
HETATM   39  C   UNL     1       2.368  -5.531  -4.472  1.00  0.00     0.269 C 
HETATM   40  C   UNL     1       3.189  -4.391  -6.519  1.00  0.00     0.269 C 
ENDBRANCH  36  37
ENDBRANCH  35  36
ENDBRANCH  31  34
ENDBRANCH   2  30
BRANCH   1  41
HETATM   41  O   UNL     1       3.451   0.530  -1.178  1.00  0.00    -0.349 OA
BRANCH  41  42
HETATM   42  C   UNL     1       2.459   1.281  -0.469  1.00  0.00     0.171 C 
HETATM   43  C   UNL     1       1.297   0.354  -0.162  1.00  0.00     0.034 C 
ENDBRANCH  41  42
ENDBRANCH   1  41
TORSDOF 11
