REMARK  4 active torsions:
REMARK  status: ('A' for Active; 'I' for Inactive)
REMARK    1  A    between atoms: C_8  and  C_9 
REMARK       I    between atoms: C_9  and  N_10 
REMARK    2  A    between atoms: N_10  and  C_11 
REMARK    3  A    between atoms: C_12  and  N_13 
REMARK    4  A    between atoms: C_16  and  O_17 
ROOT
HETATM    1  C   UNL     1       5.318   0.074   0.716  1.00  0.00     0.256 C 
HETATM    2  N   UNL     1       5.925  -0.942   0.009  1.00  0.00    -0.321 N 
HETATM    3  O   UNL     1       5.568   1.245   0.433  1.00  0.00    -0.267 OA
HETATM    4  H   UNL     1       6.776  -0.681  -0.472  1.00  0.00     0.169 HD
ENDROOT
BRANCH   2   5
HETATM    5  C   UNL     1       5.552  -2.293  -0.094  1.00  0.00     0.061 A 
HETATM    6  C   UNL     1       6.535  -3.317  -0.058  1.00  0.00     0.057 A 
HETATM    7  C   UNL     1       6.054  -4.626  -0.265  1.00  0.00     0.031 A 
HETATM    8  C   UNL     1       4.706  -4.905  -0.530  1.00  0.00     0.002 A 
HETATM    9  C   UNL     1       3.777  -3.877  -0.576  1.00  0.00     0.002 A 
HETATM   10  C   UNL     1       4.196  -2.574  -0.343  1.00  0.00     0.032 A 
BRANCH   6  11
HETATM   11  N   UNL     1       7.888  -3.083   0.181  1.00  0.00    -0.379 N 
HETATM   12  C   UNL     1       8.923  -4.027  -0.253  1.00  0.00     0.125 C 
HETATM   13  C   UNL     1      10.027  -3.241  -0.959  1.00  0.00     0.051 C 
HETATM   14  C   UNL     1      10.543  -2.064  -0.128  1.00  0.00     0.121 C 
HETATM   15  C   UNL     1       9.422  -1.230   0.496  1.00  0.00     0.051 C 
HETATM   16  C   UNL     1       8.372  -2.112   1.170  1.00  0.00     0.125 C 
BRANCH  14  17
HETATM   17  O   UNL     1      11.441  -2.527   0.881  1.00  0.00    -0.395 OA
HETATM   18  H   UNL     1      10.951  -3.071   1.519  1.00  0.00     0.210 HD
ENDBRANCH  14  17
ENDBRANCH   6  11
ENDBRANCH   2   5
BRANCH   1  19
HETATM   19  C   UNL     1       4.493  -0.219   1.932  1.00  0.00     0.033 A 
HETATM   20  C   UNL     1       4.705  -1.364   2.713  1.00  0.00     0.025 A 
HETATM   21  C   UNL     1       3.985  -1.513   3.889  1.00  0.00    -0.042 A 
HETATM   22  C   UNL     1       3.081  -0.530   4.332  1.00  0.00    -0.019 A 
HETATM   23  C   UNL     1       4.048  -2.664   4.869  1.00  0.00     0.078 A 
HETATM   24  C   UNL     1       2.543  -0.945   5.611  1.00  0.00    -0.019 A 
HETATM   25  C   UNL     1       2.871   0.613   3.578  1.00  0.00     0.014 A 
HETATM   26  C   UNL     1       3.097  -2.201   5.950  1.00  0.00    -0.043 A 
HETATM   27  C   UNL     1       1.661  -0.317   6.473  1.00  0.00     0.013 A 
HETATM   28  C   UNL     1       2.776  -2.844   7.133  1.00  0.00     0.008 A 
HETATM   29  C   UNL     1       1.885  -2.210   8.000  1.00  0.00     0.001 A 
HETATM   30  C   UNL     1       1.335  -0.958   7.674  1.00  0.00     0.001 A 
HETATM   31  C   UNL     1       3.581   0.763   2.374  1.00  0.00     0.018 A 
ENDBRANCH   1  19
TORSDOF 4
