REMARK  5 active torsions:
REMARK  status: ('A' for Active; 'I' for Inactive)
REMARK    1  A    between atoms: O_2  and  C_3 
REMARK    2  A    between atoms: C_7  and  C_8 
REMARK    3  A    between atoms: C_8  and  C_9 
REMARK       I    between atoms: C_9  and  N_10 
REMARK    4  A    between atoms: N_10  and  C_11 
REMARK    5  A    between atoms: C_11  and  C_12 
ROOT
HETATM    1  C   UNL     1       7.049  -3.955   2.271  1.00  0.00     0.222 C 
HETATM    2  N   UNL     1       7.457  -3.051   1.320  1.00  0.00    -0.354 N 
HETATM    3  O   UNL     1       7.407  -3.877   3.445  1.00  0.00    -0.273 OA
HETATM    4  H   UNL     1       6.983  -3.010   0.421  1.00  0.00     0.162 HD
ENDROOT
BRANCH   1   5
HETATM    5  C   UNL     1       6.184  -5.097   1.769  1.00  0.00     0.144 C 
BRANCH   5   6
HETATM    6  C   UNL     1       4.990  -4.659   0.987  1.00  0.00    -0.014 A 
HETATM    7  C   UNL     1       4.070  -3.602   1.283  1.00  0.00     0.006 A 
HETATM    8  C   UNL     1       3.146  -3.596   0.246  1.00  0.00     0.088 A 
HETATM    9  C   UNL     1       3.924  -2.647   2.305  1.00  0.00     0.017 A 
HETATM   10  C   UNL     1       2.083  -2.699   0.135  1.00  0.00     0.074 A 
HETATM   11  O   UNL     1       3.427  -4.587  -0.643  1.00  0.00    -0.321 OA
HETATM   12  C   UNL     1       1.964  -1.743   1.148  1.00  0.00     0.070 A 
HETATM   13  C   UNL     1       2.869  -1.727   2.217  1.00  0.00     0.038 A 
HETATM   14  C   UNL     1       4.535  -5.223  -0.190  1.00  0.00     0.151 A 
BRANCH  12  15
HETATM   15  O   UNL     1       1.000  -0.770   1.211  1.00  0.00    -0.356 OA
HETATM   16  C   UNL     1       0.127  -0.662   0.093  1.00  0.00     0.210 C 
ENDBRANCH  12  15
ENDBRANCH   5   6
ENDBRANCH   1   5
BRANCH   2  17
HETATM   17  C   UNL     1       8.175  -1.863   1.708  1.00  0.00     0.201 C 
BRANCH  17  18
HETATM   18  C   UNL     1       8.446  -1.047   0.494  1.00  0.00     0.123 A 
HETATM   19  N   UNL     1       7.795  -1.086  -0.655  1.00  0.00    -0.232 NA
HETATM   20  C   UNL     1       8.384  -0.129  -1.445  1.00  0.00     0.085 A 
HETATM   21  C   UNL     1       9.423   0.501  -0.770  1.00  0.00     0.062 A 
HETATM   22  C   UNL     1       8.081   0.264  -2.756  1.00  0.00     0.034 A 
HETATM   23  N   UNL     1       9.445  -0.104   0.460  1.00  0.00    -0.341 N 
HETATM   24  C   UNL     1      10.198   1.518  -1.332  1.00  0.00     0.032 A 
HETATM   25  H   UNL     1      10.080   0.114   1.213  1.00  0.00     0.167 HD
HETATM   26  C   UNL     1       9.881   1.897  -2.641  1.00  0.00     0.002 A 
HETATM   27  C   UNL     1       8.841   1.284  -3.344  1.00  0.00     0.002 A 
ENDBRANCH  17  18
ENDBRANCH   2  17
TORSDOF 5
