REMARK  4 active torsions:
REMARK  status: ('A' for Active; 'I' for Inactive)
REMARK    1  A    between atoms: C_7  and  C_8 
REMARK    2  A    between atoms: C_8  and  N_9 
REMARK    3  A    between atoms: N_15  and  C_17 
REMARK    4  A    between atoms: C_21  and  C_22 
ROOT
HETATM    1  N   UNL     1       3.886  -3.275  -0.090  1.00  0.00    -0.067 N 
HETATM    2  H   UNL     1       4.550  -2.569   0.262  1.00  0.00     0.280 HD
HETATM    3  C   UNL     1       4.044  -4.463   0.815  1.00  0.00     0.236 C 
HETATM    4  C   UNL     1       3.278  -5.673   0.275  1.00  0.00     0.039 C 
HETATM    5  C   UNL     1       3.629  -6.047  -1.193  1.00  0.00    -0.013 C 
HETATM    6  C   UNL     1       5.047  -6.668  -1.325  1.00  0.00     0.245 C 
HETATM    7  N   UNL     1       5.123  -8.029  -0.675  1.00  0.00    -0.065 N 
HETATM    8  H   UNL     1       4.886  -7.973   0.325  1.00  0.00     0.280 HD
HETATM    9  C   UNL     1       4.146  -9.021  -1.295  1.00  0.00     0.244 C 
HETATM   10  C   UNL     1       2.718  -8.479  -1.154  1.00  0.00     0.045 C 
HETATM   11  C   UNL     1       2.596  -7.067  -1.756  1.00  0.00     0.022 C 
HETATM   12  C   UNL     1       3.524  -4.754  -2.057  1.00  0.00     0.039 C 
HETATM   13  C   UNL     1       4.287  -3.551  -1.507  1.00  0.00     0.236 C 
ENDROOT
BRANCH   7  14
HETATM   14  C   UNL     1       6.519  -8.585  -0.735  1.00  0.00     0.188 A 
HETATM   15  C   UNL     1       7.485  -8.100   0.309  1.00  0.00     0.035 A 
HETATM   16  C   UNL     1       6.935  -9.496   0.384  1.00  0.00     0.035 A 
ENDBRANCH   7  14
BRANCH  10  17
HETATM   17  C   UNL     1       1.716  -9.439  -1.765  1.00  0.00    -0.052 A 
HETATM   18  C   UNL     1       0.747 -10.044  -0.949  1.00  0.00     0.007 A 
HETATM   19  C   UNL     1      -0.174 -10.945  -1.487  1.00  0.00     0.001 A 
HETATM   20  C   UNL     1      -0.141 -11.253  -2.844  1.00  0.00     0.000 A 
HETATM   21  C   UNL     1       0.811 -10.659  -3.667  1.00  0.00     0.001 A 
HETATM   22  C   UNL     1       1.734  -9.757  -3.134  1.00  0.00     0.007 A 
ENDBRANCH  10  17
BRANCH   1  23
HETATM   23  C   UNL     1       2.552  -2.539   0.042  1.00  0.00     0.277 C 
BRANCH  23  24
HETATM   24  C   UNL     1       2.402  -1.931   1.385  1.00  0.00     0.011 A 
HETATM   25  C   UNL     1       3.078  -0.852   1.943  1.00  0.00     0.035 A 
HETATM   26  C   UNL     1       4.093   0.079   1.381  1.00  0.00     0.070 C 
HETATM   27  N   UNL     1       2.594  -0.733   3.228  1.00  0.00    -0.278 N 
HETATM   28  C   UNL     1       2.948   0.234   4.245  1.00  0.00     0.179 C 
HETATM   29  N   UNL     1       1.680  -1.670   3.526  1.00  0.00    -0.185 NA
HETATM   30  C   UNL     1       1.517  -2.353   2.400  1.00  0.00     0.149 A 
ENDBRANCH  23  24
ENDBRANCH   1  23
TORSDOF 4
