REMARK  8 active torsions:
REMARK  status: ('A' for Active; 'I' for Inactive)
REMARK    1  A    between atoms: C_8  and  N_9 
REMARK       I    between atoms: N_9  and  C_10 
REMARK    2  A    between atoms: C_10  and  C_11 
REMARK    3  A    between atoms: C_11  and  N_12 
REMARK    4  A    between atoms: N_16  and  C_17 
REMARK    5  A    between atoms: C_19  and  N_20 
REMARK    6  A    between atoms: N_20  and  C_21 
REMARK    7  A    between atoms: C_28  and  N_29 
REMARK    8  A    between atoms: N_29  and  C_30 
ROOT
HETATM    1  C   UNL     1       0.539   3.775   2.519  1.00  0.00     0.756 A 
HETATM    2  N   UNL     1       0.493   3.500   3.815  1.00  0.00     0.131 NA
HETATM    3  C   UNL     1       0.580   4.535   4.647  1.00  0.00     0.758 A 
HETATM    4  N   UNL     1       0.806   5.776   4.247  1.00  0.00     0.131 NA
HETATM    5  C   UNL     1       0.847   5.972   2.940  1.00  0.00     0.758 A 
HETATM    6  N   UNL     1       0.700   5.000   2.047  1.00  0.00     0.131 NA
ENDROOT
BRANCH   1   7
HETATM    7  N   UNL     1       0.381   2.723   1.608  1.00  0.00    -0.210 N 
HETATM    8  C   UNL     1       0.667   3.078   0.210  1.00  0.00     0.169 C 
HETATM    9  C   UNL     1       0.246   1.935  -0.737  1.00  0.00     0.256 C 
HETATM   10  N   UNL     1       0.893   0.619  -0.293  1.00  0.00    -0.060 N 
HETATM   11  H   UNL     1       1.904   0.792  -0.273  1.00  0.00     0.280 HD
HETATM   12  C   UNL     1       0.469   0.291   1.137  1.00  0.00     0.256 C 
HETATM   13  C   UNL     1       0.878   1.431   2.093  1.00  0.00     0.169 C 
BRANCH  10  14
HETATM   14  C   UNL     1       0.658  -0.537  -1.268  1.00  0.00     0.337 C 
BRANCH  14  15
HETATM   15  C   UNL     1      -0.792  -1.031  -1.405  1.00  0.00     0.248 C 
HETATM   16  N   UNL     1      -0.888  -2.320  -1.906  1.00  0.00    -0.325 N 
HETATM   17  H   UNL     1      -0.029  -2.832  -2.064  1.00  0.00     0.169 HD
HETATM   18  O   UNL     1      -1.726  -0.309  -1.072  1.00  0.00    -0.271 OA
BRANCH  16  19
HETATM   19  C   UNL     1      -2.078  -3.038  -2.216  1.00  0.00     0.042 A 
HETATM   20  C   UNL     1      -1.984  -4.412  -2.566  1.00  0.00    -0.014 A 
HETATM   21  C   UNL     1      -0.655  -5.128  -2.553  1.00  0.00     0.052 C 
HETATM   22  C   UNL     1      -3.160  -5.092  -2.953  1.00  0.00     0.042 A 
HETATM   23 CL   UNL     1      -3.151  -6.745  -3.463  1.00  0.00    -0.084 Cl
HETATM   24  C   UNL     1      -4.399  -4.449  -2.951  1.00  0.00     0.024 A 
HETATM   25  C   UNL     1      -4.486  -3.115  -2.578  1.00  0.00     0.004 A 
HETATM   26  C   UNL     1      -3.335  -2.416  -2.218  1.00  0.00     0.030 A 
ENDBRANCH  16  19
ENDBRANCH  14  15
ENDBRANCH  10  14
ENDBRANCH   1   7
BRANCH   3  27
HETATM   27  N   UNL     1       0.437   4.221   5.999  1.00  0.00    -0.187 N 
HETATM   28  H   UNL     1       0.282   3.227   6.093  1.00  0.00     0.184 HD
BRANCH  27  29
HETATM   29  C   UNL     1      -0.024   4.977   7.090  1.00  0.00     0.049 A 
HETATM   30  C   UNL     1      -0.383   6.327   7.011  1.00  0.00     0.030 A 
HETATM   31  C   UNL     1      -0.820   7.027   8.141  1.00  0.00     0.002 A 
HETATM   32  C   UNL     1      -0.882   6.393   9.378  1.00  0.00     0.000 A 
HETATM   33  C   UNL     1      -0.497   5.061   9.486  1.00  0.00     0.002 A 
HETATM   34  C   UNL     1      -0.064   4.365   8.354  1.00  0.00     0.030 A 
ENDBRANCH  27  29
ENDBRANCH   3  27
BRANCH   5  35
HETATM   35  N   UNL     1       1.120   7.273   2.524  1.00  0.00    -0.187 N 
HETATM   36  H   UNL     1       1.304   7.862   3.326  1.00  0.00     0.184 HD
BRANCH  35  37
HETATM   37  C   UNL     1       0.761   7.960   1.356  1.00  0.00     0.049 A 
HETATM   38  C   UNL     1      -0.204   7.492   0.456  1.00  0.00     0.030 A 
HETATM   39  C   UNL     1      -0.516   8.209  -0.704  1.00  0.00     0.002 A 
HETATM   40  C   UNL     1       0.157   9.392  -0.995  1.00  0.00     0.000 A 
HETATM   41  C   UNL     1       1.140   9.858  -0.128  1.00  0.00     0.002 A 
HETATM   42  C   UNL     1       1.438   9.147   1.038  1.00  0.00     0.030 A 
ENDBRANCH  35  37
ENDBRANCH   5  35
TORSDOF 8
