REMARK  6 active torsions:
REMARK  status: ('A' for Active; 'I' for Inactive)
REMARK    1  A    between atoms: C_8  and  N_9 
REMARK       I    between atoms: N_9  and  C_10 
REMARK    2  A    between atoms: C_10  and  C_11 
REMARK    3  A    between atoms: C_11  and  N_12 
REMARK    4  A    between atoms: N_12  and  C_13 
REMARK    5  A    between atoms: C_13  and  C_14 
REMARK    6  A    between atoms: C_15  and  C_16 
ROOT
HETATM    1  N   UNL     1      -0.140   1.321  -1.325  1.00  0.00     0.100 N 
HETATM    2  H   UNL     1       0.594   1.607  -1.977  1.00  0.00     0.317 HD
ENDROOT
BRANCH   1   3
HETATM    3  C   UNL     1      -1.294   2.231  -1.522  1.00  0.00     0.372 C 
BRANCH   3   4
HETATM    4  C   UNL     1      -1.712   2.267  -3.000  1.00  0.00     0.250 C 
HETATM    5  N   UNL     1      -1.415   1.093  -3.658  1.00  0.00    -0.322 N 
HETATM    6  H   UNL     1      -1.012   0.367  -3.070  1.00  0.00     0.169 HD
HETATM    7  O   UNL     1      -2.269   3.256  -3.464  1.00  0.00    -0.271 OA
BRANCH   5   8
HETATM    8  C   UNL     1      -1.578   0.804  -5.001  1.00  0.00     0.085 A 
HETATM    9  C   UNL     1      -1.224  -0.426  -5.523  1.00  0.00     0.052 A 
HETATM   10  C   UNL     1      -0.650  -1.645  -4.906  1.00  0.00     0.072 C 
HETATM   11  N   UNL     1      -1.504  -0.362  -6.857  1.00  0.00    -0.280 N 
HETATM   12  H   UNL     1      -1.374  -1.081  -7.560  1.00  0.00     0.189 HD
HETATM   13  N   UNL     1      -2.004   0.813  -7.248  1.00  0.00    -0.177 NA
HETATM   14  C   UNL     1      -2.060   1.543  -6.123  1.00  0.00     0.079 A 
HETATM   15  C   UNL     1      -2.575   2.931  -6.220  1.00  0.00     0.075 C 
ENDBRANCH   5   8
ENDBRANCH   3   4
ENDBRANCH   1   3
BRANCH   1  16
HETATM   16  C   UNL     1       0.427   1.369   0.036  1.00  0.00     0.250 C 
HETATM   17  C   UNL     1       1.250   2.651   0.250  1.00  0.00     0.048 C 
BRANCH  16  18
HETATM   18  C   UNL     1      -0.603   1.039   1.116  1.00  0.00    -0.011 A 
HETATM   19  C   UNL     1      -1.134  -0.273   1.249  1.00  0.00     0.056 A 
HETATM   20  C   UNL     1      -2.097  -0.525   2.250  1.00  0.00     0.017 A 
HETATM   21  C   UNL     1      -2.535   0.483   3.105  1.00  0.00     0.001 A 
HETATM   22  C   UNL     1      -2.025   1.767   2.971  1.00  0.00     0.001 A 
HETATM   23  C   UNL     1      -1.074   2.041   1.988  1.00  0.00     0.010 A 
BRANCH  19  24
HETATM   24  C   UNL     1      -0.731  -1.419   0.339  1.00  0.00     0.418 C 
HETATM   25  F   UNL     1       0.618  -1.570   0.217  1.00  0.00    -0.166 F 
HETATM   26  F   UNL     1      -1.177  -2.632   0.785  1.00  0.00    -0.166 F 
HETATM   27  F   UNL     1      -1.221  -1.306  -0.928  1.00  0.00    -0.166 F 
ENDBRANCH  19  24
ENDBRANCH  16  18
ENDBRANCH   1  16
TORSDOF 6
