REMARK  5 active torsions:
REMARK  status: ('A' for Active; 'I' for Inactive)
REMARK    1  A    between atoms: C_2  and  C_3 
REMARK    2  A    between atoms: C_6  and  C_7 
REMARK    3  A    between atoms: C_9  and  C_10 
REMARK    4  A    between atoms: C_10  and  N_11 
REMARK       I    between atoms: N_11  and  C_12 
REMARK       I    between atoms: C_12  and  N_13 
REMARK    5  A    between atoms: N_13  and  C_14 
ROOT
HETATM    1  N   UNL     1       3.567  -2.124   1.511  1.00  0.00    -0.338 N 
HETATM    2  C   UNL     1       4.266  -3.286   1.451  1.00  0.00     0.321 C 
HETATM    3  N   UNL     1       4.064  -4.080   0.361  1.00  0.00    -0.308 N 
HETATM    4  O   UNL     1       5.006  -3.671   2.354  1.00  0.00    -0.247 OA
HETATM    5  H   UNL     1       2.804  -2.005   0.861  1.00  0.00     0.164 HD
HETATM    6  H   UNL     1       4.318  -5.040   0.562  1.00  0.00     0.170 HD
ENDROOT
BRANCH   1   7
HETATM    7  C   UNL     1       3.707  -1.179   2.589  1.00  0.00     0.167 C 
BRANCH   7   8
HETATM    8  C   UNL     1       2.421  -1.082   3.316  1.00  0.00     0.018 A 
HETATM    9  C   UNL     1       1.317  -0.220   3.061  1.00  0.00     0.072 A 
HETATM   10  N   UNL     1       0.335  -0.407   3.951  1.00  0.00    -0.132 NA
HETATM   11  O   UNL     1       0.779  -1.398   4.802  1.00  0.00    -0.217 OA
HETATM   12  C   UNL     1       2.020  -1.801   4.423  1.00  0.00     0.088 A 
BRANCH   9  13
HETATM   13  C   UNL     1       1.150   0.797   1.984  1.00  0.00     0.058 C 
HETATM   14  C   UNL     1       0.380   0.256   0.788  1.00  0.00     0.011 C 
ENDBRANCH   9  13
BRANCH  12  15
HETATM   15  C   UNL     1       2.642  -2.868   5.244  1.00  0.00     0.063 C 
HETATM   16  C   UNL     1       3.562  -2.290   6.307  1.00  0.00     0.012 C 
ENDBRANCH  12  15
ENDBRANCH   7   8
ENDBRANCH   1   7
BRANCH   3  17
HETATM   17  C   UNL     1       3.417  -3.835  -0.870  1.00  0.00     0.047 A 
HETATM   18  C   UNL     1       3.476  -2.611  -1.602  1.00  0.00     0.001 A 
HETATM   19  C   UNL     1       2.675  -2.487  -2.768  1.00  0.00    -0.024 A 
HETATM   20  C   UNL     1       4.330  -1.520  -1.300  1.00  0.00     0.014 A 
HETATM   21  C   UNL     1       2.665  -1.287  -3.499  1.00  0.00     0.012 A 
HETATM   22  C   UNL     1       1.914  -3.576  -3.216  1.00  0.00     0.012 A 
HETATM   23  C   UNL     1       3.469  -0.212  -3.129  1.00  0.00     0.001 A 
HETATM   24  C   UNL     1       4.316  -0.334  -2.039  1.00  0.00     0.001 A 
HETATM   25  C   UNL     1       1.945  -4.794  -2.547  1.00  0.00     0.003 A 
HETATM   26  C   UNL     1       2.700  -4.924  -1.386  1.00  0.00     0.030 A 
ENDBRANCH   3  17
TORSDOF 5
