REMARK  7 active torsions:
REMARK  status: ('A' for Active; 'I' for Inactive)
REMARK       I    between atoms: C_2  and  N_3 
REMARK    1  A    between atoms: N_3  and  C_4 
REMARK    2  A    between atoms: C_7  and  N_8 
REMARK       I    between atoms: N_8  and  C_9 
REMARK    3  A    between atoms: C_9  and  C_10 
REMARK       I    between atoms: C_10  and  N_11 
REMARK    4  A    between atoms: N_11  and  C_12 
REMARK    5  A    between atoms: C_12  and  C_13 
REMARK    6  A    between atoms: C_13  and  O_14 
REMARK    7  A    between atoms: C_13  and  C_15 
ROOT
HETATM    1  C   UNL     1       6.190  12.094   2.729  1.00  0.00     0.309 C 
HETATM    2  N   UNL     1       4.826  12.040   2.635  1.00  0.00    -0.350 N 
HETATM    3  O   UNL     1       6.967  11.160   2.583  1.00  0.00    -0.262 OA
HETATM    4  H   UNL     1       4.326  12.925   2.638  1.00  0.00     0.163 HD
ENDROOT
BRANCH   1   5
HETATM    5  C   UNL     1       6.730  13.507   3.049  1.00  0.00     0.313 C 
HETATM    6  N   UNL     1       8.108  13.555   3.005  1.00  0.00    -0.319 N 
HETATM    7  H   UNL     1       8.549  12.682   2.727  1.00  0.00     0.169 HD
HETATM    8  O   UNL     1       5.933  14.402   3.293  1.00  0.00    -0.262 OA
BRANCH   6   9
HETATM    9  C   UNL     1       8.938  14.640   3.334  1.00  0.00     0.035 A 
HETATM   10  C   UNL     1       8.468  15.849   3.845  1.00  0.00     0.032 A 
HETATM   11  C   UNL     1       9.359  16.871   4.201  1.00  0.00     0.032 A 
HETATM   12  C   UNL     1      10.734  16.704   4.043  1.00  0.00     0.034 A 
HETATM   13  C   UNL     1      11.204  15.501   3.507  1.00  0.00     0.032 A 
HETATM   14  C   UNL     1      10.315  14.475   3.162  1.00  0.00     0.032 A 
BRANCH  12  15
HETATM   15  N   UNL     1      11.694  17.674   4.399  1.00  0.00    -0.328 N 
HETATM   16  C   UNL     1      11.469  18.897   5.006  1.00  0.00     0.218 C 
HETATM   17  C   UNL     1      12.748  19.655   5.263  1.00  0.00     0.117 C 
HETATM   18  O   UNL     1      10.390  19.359   5.359  1.00  0.00    -0.274 OA
HETATM   19  H   UNL     1      12.658  17.426   4.220  1.00  0.00     0.169 HD
ENDBRANCH  12  15
ENDBRANCH   6   9
ENDBRANCH   1   5
BRANCH   2  20
HETATM   20  C   UNL     1       4.083  10.829   2.335  1.00  0.00     0.159 C 
BRANCH  20  21
HETATM   21  C   UNL     1       2.554  11.032   2.382  1.00  0.00     0.171 C 
BRANCH  21  22
HETATM   22  O   UNL     1       2.204  12.102   1.491  1.00  0.00    -0.389 OA
HETATM   23  H   UNL     1       1.273  12.312   1.682  1.00  0.00     0.210 HD
ENDBRANCH  21  22
BRANCH  21  24
HETATM   24  C   UNL     1       2.015  11.297   3.761  1.00  0.00     0.000 A 
HETATM   25  C   UNL     1       1.196  10.420   4.547  1.00  0.00     0.001 A 
HETATM   26  C   UNL     1       0.900  11.074   5.749  1.00  0.00     0.044 A 
HETATM   27  C   UNL     1       0.671   9.126   4.339  1.00  0.00     0.014 A 
HETATM   28  C   UNL     1       0.105  10.480   6.744  1.00  0.00     0.030 A 
HETATM   29  N   UNL     1       1.519  12.303   5.698  1.00  0.00    -0.360 N 
HETATM   30  C   UNL     1      -0.407   9.202   6.506  1.00  0.00     0.002 A 
HETATM   31  C   UNL     1      -0.129   8.531   5.321  1.00  0.00     0.001 A 
HETATM   32  C   UNL     1       1.501  13.317   6.729  1.00  0.00     0.155 C 
HETATM   33  C   UNL     1       2.173  12.454   4.504  1.00  0.00     0.101 A 
ENDBRANCH  21  24
ENDBRANCH  20  21
ENDBRANCH   2  20
TORSDOF 7
