REMARK  4 active torsions:
REMARK  status: ('A' for Active; 'I' for Inactive)
REMARK    1  A    between atoms: C_2  and  C_3 
REMARK    2  A    between atoms: C_5  and  N_6 
REMARK       I    between atoms: N_6  and  C_7 
REMARK    3  A    between atoms: C_7  and  C_8 
REMARK    4  A    between atoms: C_16  and  O_17 
ROOT
HETATM    1  C   UNL     1       2.806  -1.370  -0.305  1.00  0.00    -0.048 A 
HETATM    2  C   UNL     1       3.969  -1.546  -1.079  1.00  0.00     0.040 A 
HETATM    3  C   UNL     1       4.437  -2.821  -1.420  1.00  0.00     0.069 A 
HETATM    4  C   UNL     1       3.735  -3.964  -0.991  1.00  0.00     0.095 A 
HETATM    5  C   UNL     1       2.596  -3.810  -0.205  1.00  0.00     0.039 A 
HETATM    6  C   UNL     1       2.146  -2.530   0.138  1.00  0.00     0.011 A 
ENDROOT
BRANCH   3   7
HETATM    7  N   UNL     1       5.596  -3.046  -2.200  1.00  0.00    -0.320 N 
HETATM    8  C   UNL     1       6.536  -2.126  -2.610  1.00  0.00     0.257 C 
HETATM    9  O   UNL     1       6.591  -0.938  -2.321  1.00  0.00    -0.267 OA
HETATM   10  H   UNL     1       5.768  -4.033  -2.369  1.00  0.00     0.169 HD
BRANCH   8  11
HETATM   11  C   UNL     1       7.616  -2.682  -3.452  1.00  0.00     0.051 A 
HETATM   12  C   UNL     1       7.347  -3.584  -4.475  1.00  0.00     0.133 A 
HETATM   13  N   UNL     1       8.302  -4.124  -5.270  1.00  0.00    -0.271 NA
HETATM   14  C   UNL     1       9.577  -3.725  -5.040  1.00  0.00     0.135 A 
HETATM   15  C   UNL     1       9.934  -2.814  -4.054  1.00  0.00     0.029 A 
HETATM   16 BR   UNL     1      11.736  -2.321  -3.806  1.00  0.00    -0.050 Br
HETATM   17  C   UNL     1       8.936  -2.276  -3.249  1.00  0.00     0.039 A 
ENDBRANCH   8  11
ENDBRANCH   3   7
BRANCH   4  18
HETATM   18  O   UNL     1       4.264  -5.169  -1.393  1.00  0.00    -0.354 OA
HETATM   19  C   UNL     1       3.580  -6.344  -0.974  1.00  0.00     0.210 C 
ENDBRANCH   4  18
BRANCH   1  20
HETATM   20  C   UNL     1       2.278   0.024   0.082  1.00  0.00    -0.024 C 
HETATM   21  C   UNL     1       2.927   1.179  -0.715  1.00  0.00     0.019 C 
HETATM   22  C   UNL     1       2.565   0.263   1.578  1.00  0.00     0.019 C 
HETATM   23  C   UNL     1       0.754   0.122  -0.162  1.00  0.00     0.019 C 
ENDBRANCH   1  20
TORSDOF 4
