REMARK  7 active torsions:
REMARK  status: ('A' for Active; 'I' for Inactive)
REMARK    1  A    between atoms: C_2  and  C_3 
REMARK    2  A    between atoms: C_4  and  N_5 
REMARK    3  A    between atoms: N_5  and  C_6 
REMARK    4  A    between atoms: C_8  and  N_9 
REMARK    5  A    between atoms: C_11  and  C_12 
REMARK    6  A    between atoms: C_12  and  N_13 
REMARK    7  A    between atoms: C_17  and  C_18 
ROOT
HETATM    1  C   UNL     1       4.648   2.668  -6.869  1.00  0.00     0.218 C 
ENDROOT
BRANCH   1   2
HETATM    2  C   UNL     1       4.186   3.100  -5.494  1.00  0.00     0.166 A 
HETATM    3  N   UNL     1       4.709   4.232  -5.021  1.00  0.00    -0.200 NA
HETATM    4  C   UNL     1       4.326   4.557  -3.800  1.00  0.00     0.219 A 
HETATM    5  N   UNL     1       3.470   3.872  -3.067  1.00  0.00    -0.031 NA
HETATM    6  C   UNL     1       2.973   2.770  -3.621  1.00  0.00     0.731 A 
HETATM    7  N   UNL     1       3.272   2.363  -4.852  1.00  0.00    -0.045 NA
BRANCH   4   8
HETATM    8  N   UNL     1       4.825   5.728  -3.266  1.00  0.00    -0.270 NA
HETATM    9  H   UNL     1       4.194   6.078  -2.558  1.00  0.00     0.127 HD
HETATM   10  H   UNL     1       5.093   6.366  -4.002  1.00  0.00     0.127 HD
ENDBRANCH   4   8
BRANCH   6  11
HETATM   11  N   UNL     1       2.047   1.992  -2.925  1.00  0.00    -0.188 N 
HETATM   12  H   UNL     1       1.728   1.237  -3.516  1.00  0.00     0.184 HD
BRANCH  11  13
HETATM   13  C   UNL     1       1.907   1.763  -1.542  1.00  0.00     0.055 A 
HETATM   14  C   UNL     1       0.707   1.222  -1.027  1.00  0.00    -0.031 A 
HETATM   15  C   UNL     1       0.573   1.021   0.361  1.00  0.00     0.009 A 
HETATM   16  C   UNL     1       1.604   1.349   1.238  1.00  0.00     0.001 A 
HETATM   17  C   UNL     1       2.779   1.895   0.740  1.00  0.00     0.002 A 
HETATM   18  C   UNL     1       2.922   2.107  -0.633  1.00  0.00     0.030 A 
BRANCH  14  19
HETATM   19  C   UNL     1      -0.486   0.913  -1.905  1.00  0.00     0.036 C 
HETATM   20  C   UNL     1      -1.334   2.153  -2.156  1.00  0.00     0.010 C 
ENDBRANCH  14  19
ENDBRANCH  11  13
ENDBRANCH   6  11
ENDBRANCH   1   2
BRANCH   1  21
HETATM   21  N   UNL     1       4.658   1.237  -7.086  1.00  0.00    -0.260 N 
HETATM   22  C   UNL     1       4.244   0.650  -8.235  1.00  0.00     0.326 C 
HETATM   23  O   UNL     1       3.715   1.185  -9.195  1.00  0.00    -0.247 OA
HETATM   24  N   UNL     1       4.565  -0.684  -8.190  1.00  0.00    -0.321 N 
HETATM   25  C   UNL     1       5.118  -1.083  -6.912  1.00  0.00     0.140 C 
HETATM   26  H   UNL     1       4.240  -1.309  -8.915  1.00  0.00     0.165 HD
HETATM   27  C   UNL     1       5.334   0.331  -6.318  1.00  0.00     0.261 C 
HETATM   28  C   UNL     1       6.469  -1.777  -7.074  1.00  0.00     0.054 C 
HETATM   29  O   UNL     1       5.995   0.590  -5.319  1.00  0.00    -0.270 OA
BRANCH  25  30
HETATM   30  C   UNL     1       4.107  -1.949  -6.165  1.00  0.00    -0.020 A 
HETATM   31  C   UNL     1       3.615  -1.616  -4.890  1.00  0.00     0.022 A 
HETATM   32  C   UNL     1       2.645  -2.405  -4.244  1.00  0.00    -0.025 A 
HETATM   33  C   UNL     1       2.158  -3.568  -4.880  1.00  0.00    -0.026 A 
HETATM   34  C   UNL     1       2.145  -2.061  -2.977  1.00  0.00     0.012 A 
HETATM   35  C   UNL     1       2.665  -3.921  -6.136  1.00  0.00     0.013 A 
HETATM   36  C   UNL     1       1.177  -4.346  -4.244  1.00  0.00     0.012 A 
HETATM   37  C   UNL     1       3.626  -3.127  -6.766  1.00  0.00     0.011 A 
HETATM   38  C   UNL     1       0.682  -3.982  -2.991  1.00  0.00     0.001 A 
HETATM   39  C   UNL     1       1.168  -2.841  -2.357  1.00  0.00     0.001 A 
ENDBRANCH  25  30
ENDBRANCH   1  21
TORSDOF 7
