REMARK  8 active torsions:
REMARK  status: ('A' for Active; 'I' for Inactive)
REMARK    1  A    between atoms: C_2  and  N_3 
REMARK    2  A    between atoms: C_2  and  C_34 
REMARK       I    between atoms: N_3  and  C_4 
REMARK    3  A    between atoms: C_4  and  C_5 
REMARK    4  A    between atoms: C_5  and  N_6 
REMARK       I    between atoms: N_12  and  C_13 
REMARK    5  A    between atoms: C_13  and  C_14 
REMARK    6  A    between atoms: C_14  and  O_15 
REMARK    7  A    between atoms: O_15  and  C_16 
REMARK    8  A    between atoms: N_25  and  C_26 
ROOT
HETATM    1  N   UNL     1       1.312  -1.761   0.982  1.00  0.00    -0.325 N 
HETATM    2  C   UNL     1       2.129  -0.654   1.075  1.00  0.00     0.250 C 
HETATM    3  O   UNL     1       2.622  -0.068   0.121  1.00  0.00    -0.270 OA
HETATM    4  C   UNL     1       2.311  -0.306   2.568  1.00  0.00     0.118 C 
HETATM    5  C   UNL     1       1.553   1.001   2.835  1.00  0.00     0.061 C 
HETATM    6  C   UNL     1       2.307   2.226   2.327  1.00  0.00     0.129 C 
HETATM    7  N   UNL     1       3.705   2.221   2.748  1.00  0.00    -0.350 N 
HETATM    8  C   UNL     1       4.292   3.444   3.084  1.00  0.00     0.244 C 
HETATM    9  O   UNL     1       3.650   4.497   3.098  1.00  0.00    -0.271 OA
HETATM   10  C   UNL     1       4.469   1.037   2.366  1.00  0.00     0.129 C 
HETATM   11  C   UNL     1       3.817  -0.250   2.858  1.00  0.00     0.061 C 
HETATM   12  N   UNL     1       1.659  -1.470   3.234  1.00  0.00    -0.346 N 
HETATM   13  C   UNL     1       1.075  -2.377   2.253  1.00  0.00     0.254 C 
ENDROOT
BRANCH  12  14
HETATM   14  C   UNL     1       1.581  -1.766   4.583  1.00  0.00     0.032 A 
HETATM   15  C   UNL     1       2.038  -0.902   5.591  1.00  0.00     0.029 A 
HETATM   16  C   UNL     1       1.966  -1.223   6.955  1.00  0.00     0.002 A 
HETATM   17  C   UNL     1       1.425  -2.433   7.362  1.00  0.00     0.000 A 
HETATM   18  C   UNL     1       0.953  -3.314   6.402  1.00  0.00     0.002 A 
HETATM   19  C   UNL     1       1.029  -2.980   5.043  1.00  0.00     0.029 A 
ENDBRANCH  12  14
BRANCH   1  20
HETATM   20  C   UNL     1       1.162  -2.487  -0.269  1.00  0.00     0.230 C 
BRANCH  20  21
HETATM   21  C   UNL     1       0.021  -3.512  -0.356  1.00  0.00     0.236 C 
HETATM   22  N   UNL     1      -0.318  -3.862  -1.646  1.00  0.00    -0.351 N 
HETATM   23  H   UNL     1       0.132  -3.404  -2.428  1.00  0.00     0.163 HD
HETATM   24  O   UNL     1      -0.498  -4.033   0.628  1.00  0.00    -0.272 OA
BRANCH  22  25
HETATM   25  C   UNL     1      -1.381  -4.816  -1.926  1.00  0.00     0.113 C 
HETATM   26  C   UNL     1      -2.762  -4.180  -1.748  1.00  0.00     0.037 C 
BRANCH  25  27
HETATM   27  C   UNL     1      -1.213  -5.405  -3.315  1.00  0.00    -0.036 A 
HETATM   28  C   UNL     1      -0.983  -6.782  -3.466  1.00  0.00     0.009 A 
HETATM   29  C   UNL     1      -0.840  -7.346  -4.735  1.00  0.00     0.001 A 
HETATM   30  C   UNL     1      -0.918  -6.542  -5.870  1.00  0.00     0.000 A 
HETATM   31  C   UNL     1      -1.139  -5.173  -5.737  1.00  0.00     0.001 A 
HETATM   32  C   UNL     1      -1.287  -4.607  -4.469  1.00  0.00     0.009 A 
ENDBRANCH  25  27
ENDBRANCH  22  25
ENDBRANCH  20  21
ENDBRANCH   1  20
BRANCH   8  33
HETATM   33  C   UNL     1       5.782   3.460   3.434  1.00  0.00     0.278 C 
BRANCH  33  34
HETATM   34  O   UNL     1       6.004   2.682   4.607  1.00  0.00    -0.342 OA
BRANCH  34  35
HETATM   35  C   UNL     1       7.240   2.837   5.170  1.00  0.00     0.069 A 
HETATM   36  C   UNL     1       8.427   2.967   4.449  1.00  0.00     0.037 A 
HETATM   37  C   UNL     1       9.644   3.093   5.125  1.00  0.00     0.003 A 
HETATM   38  C   UNL     1       9.676   3.082   6.519  1.00  0.00     0.000 A 
HETATM   39  C   UNL     1       8.493   2.935   7.240  1.00  0.00     0.003 A 
HETATM   40  C   UNL     1       7.279   2.802   6.565  1.00  0.00     0.037 A 
ENDBRANCH  34  35
ENDBRANCH  33  34
ENDBRANCH   8  33
TORSDOF 8
