REMARK  4 active torsions:
REMARK  status: ('A' for Active; 'I' for Inactive)
REMARK    1  A    between atoms: C_9  and  C_10 
REMARK    2  A    between atoms: C_18  and  C_19 
REMARK       I    between atoms: C_19  and  N_20 
REMARK    3  A    between atoms: N_20  and  C_21 
REMARK    4  A    between atoms: C_24  and  O_25 
ROOT
HETATM    1  C   UNL     1       0.828  -0.130  -1.273  1.00  0.00     0.070 C 
HETATM    2  C   UNL     1       2.214  -0.027  -0.687  1.00  0.00     0.037 C 
HETATM    3  N   UNL     1       2.682   1.273  -0.504  1.00  0.00    -0.192 N 
HETATM    4  C   UNL     1       3.969   1.564  -0.233  1.00  0.00     0.725 A 
HETATM    5  N   UNL     1       4.841   0.548   0.045  1.00  0.00    -0.084 N 
HETATM    6  N   UNL     1       6.101   1.008   0.196  1.00  0.00    -0.149 NA
HETATM    7  C   UNL     1       5.901   2.322   0.047  1.00  0.00     0.275 A 
HETATM    8  N   UNL     1       4.610   2.704  -0.215  1.00  0.00    -0.054 NA
HETATM    9  C   UNL     1       4.473  -0.873   0.035  1.00  0.00     0.204 C 
HETATM   10  C   UNL     1       3.030  -1.080  -0.421  1.00  0.00     0.062 C 
HETATM   11  H   UNL     1       2.073   2.038  -0.781  1.00  0.00     0.184 HD
ENDROOT
BRANCH  10  12
HETATM   12  C   UNL     1       2.706  -2.498  -0.742  1.00  0.00     0.256 C 
HETATM   13  N   UNL     1       1.478  -2.929  -0.295  1.00  0.00    -0.323 N 
HETATM   14  H   UNL     1       0.945  -2.292   0.284  1.00  0.00     0.169 HD
HETATM   15  O   UNL     1       3.553  -3.163  -1.330  1.00  0.00    -0.267 OA
BRANCH  13  16
HETATM   16  C   UNL     1       0.839  -4.145  -0.629  1.00  0.00     0.035 A 
HETATM   17  C   UNL     1       1.410  -5.129  -1.436  1.00  0.00     0.032 A 
HETATM   18  C   UNL     1       0.692  -6.286  -1.762  1.00  0.00     0.039 A 
HETATM   19  C   UNL     1      -0.605  -6.481  -1.291  1.00  0.00     0.068 A 
HETATM   20  C   UNL     1      -1.183  -5.504  -0.484  1.00  0.00     0.039 A 
HETATM   21  C   UNL     1      -0.463  -4.346  -0.153  1.00  0.00     0.032 A 
BRANCH  19  22
HETATM   22  O   UNL     1      -1.189  -7.648  -1.695  1.00  0.00    -0.356 OA
HETATM   23  C   UNL     1      -2.464  -7.956  -1.150  1.00  0.00     0.210 C 
ENDBRANCH  19  22
ENDBRANCH  13  16
ENDBRANCH  10  12
BRANCH   9  24
HETATM   24  C   UNL     1       4.827  -1.534   1.370  1.00  0.00    -0.006 A 
HETATM   25  C   UNL     1       4.301  -1.153   2.618  1.00  0.00     0.044 A 
HETATM   26 CL   UNL     1       3.085   0.060   2.793  1.00  0.00    -0.084 Cl
HETATM   27  C   UNL     1       4.738  -1.765   3.800  1.00  0.00     0.048 A 
HETATM   28  C   UNL     1       5.690  -2.777   3.749  1.00  0.00     0.035 A 
HETATM   29 CL   UNL     1       6.229  -3.518   5.205  1.00  0.00    -0.084 Cl
HETATM   30  C   UNL     1       6.204  -3.195   2.528  1.00  0.00     0.024 A 
HETATM   31  C   UNL     1       5.776  -2.580   1.350  1.00  0.00     0.013 A 
ENDBRANCH   9  24
TORSDOF 4
