REMARK  8 active torsions:
REMARK  status: ('A' for Active; 'I' for Inactive)
REMARK    1  A    between atoms: O_2  and  C_3 
REMARK    2  A    between atoms: C_6  and  C_7 
REMARK    3  A    between atoms: C_7  and  O_8 
REMARK    4  A    between atoms: C_7  and  C_9 
REMARK    5  A    between atoms: C_9  and  N_10 
REMARK    6  A    between atoms: C_11  and  N_12 
REMARK    7  A    between atoms: N_13  and  C_14 
REMARK    8  A    between atoms: C_14  and  C_15 
ROOT
HETATM    1  N   UNL     1       7.199   6.124  -1.560  1.00  0.00    -0.178 N 
HETATM    2  C   UNL     1       6.798   7.263  -1.009  1.00  0.00     0.681 C 
HETATM    3  N   UNL     1       7.528   8.264  -1.480  1.00  0.00    -0.177 N 
HETATM    4  C   UNL     1       8.608   7.734  -2.183  1.00  0.00     0.079 A 
HETATM    5  C   UNL     1       8.395   6.352  -2.235  1.00  0.00     0.079 A 
HETATM    6  C   UNL     1       9.716   8.338  -2.770  1.00  0.00     0.032 A 
HETATM    7  C   UNL     1      10.614   7.479  -3.417  1.00  0.00     0.002 A 
HETATM    8  C   UNL     1      10.399   6.088  -3.473  1.00  0.00     0.002 A 
HETATM    9  C   UNL     1       9.276   5.491  -2.884  1.00  0.00     0.032 A 
ENDROOT
BRANCH   1  10
HETATM   10  C   UNL     1       6.454   4.855  -1.515  1.00  0.00     0.184 C 
BRANCH  10  11
HETATM   11  C   UNL     1       6.527   4.155  -0.140  1.00  0.00     0.170 C 
BRANCH  11  12
HETATM   12  C   UNL     1       5.907   2.777  -0.208  1.00  0.00    -0.028 A 
HETATM   13  C   UNL     1       4.528   2.580  -0.032  1.00  0.00     0.012 A 
HETATM   14  C   UNL     1       3.963   1.305  -0.153  1.00  0.00     0.037 A 
HETATM   15  C   UNL     1       4.764   0.210  -0.467  1.00  0.00     0.068 A 
HETATM   16  C   UNL     1       6.135   0.399  -0.644  1.00  0.00     0.037 A 
HETATM   17  C   UNL     1       6.706   1.668  -0.516  1.00  0.00     0.012 A 
BRANCH  15  18
HETATM   18  O   UNL     1       4.340  -1.078  -0.632  1.00  0.00    -0.356 OA
HETATM   19  C   UNL     1       2.945  -1.325  -0.499  1.00  0.00     0.210 C 
ENDBRANCH  15  18
ENDBRANCH  11  12
BRANCH  11  20
HETATM   20  O   UNL     1       5.851   4.955   0.852  1.00  0.00    -0.389 OA
HETATM   21  H   UNL     1       5.802   4.388   1.650  1.00  0.00     0.210 HD
ENDBRANCH  11  20
ENDBRANCH  10  11
ENDBRANCH   1  10
BRANCH   2  22
HETATM   22  N   UNL     1       5.821   7.376  -0.114  1.00  0.00    -0.234 N 
HETATM   23  H   UNL     1       5.482   6.521   0.331  1.00  0.00     0.174 HD
HETATM   24  H   UNL     1       5.618   8.254   0.338  1.00  0.00     0.174 HD
ENDBRANCH   2  22
BRANCH   3  25
HETATM   25  C   UNL     1       7.211   9.678  -1.352  1.00  0.00     0.186 C 
BRANCH  25  26
HETATM   26  C   UNL     1       7.680  10.267  -0.045  1.00  0.00    -0.039 A 
HETATM   27  C   UNL     1       8.457   9.570   0.893  1.00  0.00     0.009 A 
HETATM   28  C   UNL     1       8.865  10.186   2.079  1.00  0.00     0.001 A 
HETATM   29  C   UNL     1       8.512  11.507   2.341  1.00  0.00     0.000 A 
HETATM   30  C   UNL     1       7.751  12.217   1.418  1.00  0.00     0.001 A 
HETATM   31  C   UNL     1       7.337  11.602   0.235  1.00  0.00     0.009 A 
ENDBRANCH  25  26
ENDBRANCH   3  25
TORSDOF 8
