REMARK  4 active torsions:
REMARK  status: ('A' for Active; 'I' for Inactive)
REMARK    1  A    between atoms: C_2  and  C_3 
REMARK    2  A    between atoms: C_7  and  C_8 
REMARK    3  A    between atoms: C_8  and  N_9 
REMARK       I    between atoms: N_9  and  C_10 
REMARK       I    between atoms: C_10  and  N_11 
REMARK    4  A    between atoms: N_11  and  C_12 
ROOT
HETATM    1  N   UNL     1       4.093  -2.234  -5.293  1.00  0.00    -0.333 N 
HETATM    2  C   UNL     1       3.170  -1.843  -6.256  1.00  0.00     0.322 C 
HETATM    3  N   UNL     1       3.660  -1.845  -7.540  1.00  0.00    -0.307 N 
HETATM    4  O   UNL     1       2.009  -1.571  -5.953  1.00  0.00    -0.247 OA
HETATM    5  C   UNL     1       5.540  -2.115  -5.430  1.00  0.00     0.155 C 
HETATM    6  H   UNL     1       4.470  -2.433  -7.691  1.00  0.00     0.170 HD
ENDROOT
BRANCH   1   7
HETATM    7  C   UNL     1       3.589  -2.659  -3.994  1.00  0.00     0.185 C 
BRANCH   7   8
HETATM    8  C   UNL     1       3.522  -1.517  -3.054  1.00  0.00     0.047 A 
HETATM    9  N   UNL     1       2.678  -0.462  -3.260  1.00  0.00    -0.280 N 
HETATM   10  N   UNL     1       2.712   0.451  -2.276  1.00  0.00    -0.178 NA
HETATM   11  H   UNL     1       2.054  -0.319  -4.052  1.00  0.00     0.189 HD
HETATM   12  C   UNL     1       3.604  -0.031  -1.399  1.00  0.00     0.064 A 
HETATM   13  C   UNL     1       4.142  -1.265  -1.851  1.00  0.00     0.058 A 
BRANCH  12  14
HETATM   14  C   UNL     1       3.896   0.684  -0.089  1.00  0.00    -0.005 C 
HETATM   15  C   UNL     1       3.183  -0.051   1.064  1.00  0.00     0.021 C 
HETATM   16  C   UNL     1       3.408   2.149  -0.105  1.00  0.00     0.021 C 
HETATM   17  C   UNL     1       5.412   0.701   0.195  1.00  0.00     0.021 C 
ENDBRANCH  12  14
ENDBRANCH   7   8
ENDBRANCH   1   7
BRANCH   3  18
HETATM   18  C   UNL     1       2.986  -1.446  -8.720  1.00  0.00     0.064 A 
HETATM   19  C   UNL     1       3.500  -1.862  -9.963  1.00  0.00     0.099 A 
HETATM   20 CL   UNL     1       4.918  -2.854 -10.045  1.00  0.00    -0.079 Cl
HETATM   21  C   UNL     1       2.860  -1.492 -11.149  1.00  0.00     0.143 A 
HETATM   22  F   UNL     1       3.335  -1.898 -12.336  1.00  0.00    -0.204 F 
HETATM   23  C   UNL     1       1.721  -0.700 -11.126  1.00  0.00     0.086 A 
HETATM   24  C   UNL     1       1.227  -0.277  -9.901  1.00  0.00     0.121 A 
HETATM   25  F   UNL     1       0.136   0.499  -9.869  1.00  0.00    -0.206 F 
HETATM   26  C   UNL     1       1.844  -0.638  -8.704  1.00  0.00     0.073 A 
ENDBRANCH   3  18
TORSDOF 4
