REMARK  7 active torsions:
REMARK  status: ('A' for Active; 'I' for Inactive)
REMARK    1  A    between atoms: C_2  and  C_3 
REMARK    2  A    between atoms: C_3  and  C_4 
REMARK    3  A    between atoms: C_7  and  C_8 
REMARK    4  A    between atoms: C_14  and  C_15 
REMARK    5  A    between atoms: C_18  and  O_19 
REMARK    6  A    between atoms: O_19  and  C_20 
REMARK       I    between atoms: C_20  and  N_21 
REMARK    7  A    between atoms: C_33  and  N_34 
ROOT
HETATM    1  C   UNL     1       1.332  -5.938   2.471  1.00  0.00     0.099 A 
HETATM    2  N   UNL     1       0.356  -5.962   3.403  1.00  0.00    -0.172 NA
HETATM    3  N   UNL     1       0.151  -7.265   3.659  1.00  0.00    -0.256 N 
HETATM    4  H   UNL     1      -0.562  -7.525   4.331  1.00  0.00     0.191 HD
HETATM    5  C   UNL     1       0.972  -8.074   2.950  1.00  0.00     0.175 A 
HETATM    6  C   UNL     1       1.757  -7.264   2.168  1.00  0.00     0.040 A 
HETATM    7  C   UNL     1       2.775  -7.884   1.270  1.00  0.00     0.106 A 
HETATM    8  C   UNL     1       2.715  -9.412   1.353  1.00  0.00     0.081 A 
HETATM    9  C   UNL     1       3.559 -10.135   0.460  1.00  0.00     0.100 C 
HETATM   10  N   UNL     1       4.238 -10.728  -0.270  1.00  0.00    -0.191 NA
HETATM   11  C   UNL     1       1.865 -10.075   2.184  1.00  0.00     0.140 A 
HETATM   12  O   UNL     1       0.977  -9.398   3.035  1.00  0.00    -0.279 OA
ENDROOT
BRANCH   7  13
HETATM   13  C   UNL     1       4.134  -7.324   1.673  1.00  0.00    -0.044 A 
HETATM   14  C   UNL     1       4.611  -7.363   2.997  1.00  0.00     0.011 A 
HETATM   15  C   UNL     1       5.869  -6.847   3.319  1.00  0.00     0.038 A 
HETATM   16  C   UNL     1       6.672  -6.319   2.312  1.00  0.00     0.081 A 
HETATM   17  C   UNL     1       6.228  -6.272   0.994  1.00  0.00     0.038 A 
HETATM   18  C   UNL     1       4.971  -6.786   0.676  1.00  0.00     0.011 A 
BRANCH  16  19
HETATM   19  O   UNL     1       7.891  -5.741   2.696  1.00  0.00    -0.261 OA
BRANCH  19  20
HETATM   20  C   UNL     1       9.047  -6.161   2.040  1.00  0.00     0.368 C 
HETATM   21  N   UNL     1      10.160  -5.422   2.413  1.00  0.00    -0.324 N 
HETATM   22  C   UNL     1      11.481  -5.867   1.976  1.00  0.00     0.154 C 
HETATM   23  C   UNL     1      10.158  -4.504   3.552  1.00  0.00     0.154 C 
HETATM   24  C   UNL     1      12.457  -4.694   1.865  1.00  0.00     0.187 C 
HETATM   25  O   UNL     1      12.493  -3.933   3.083  1.00  0.00    -0.388 OA
HETATM   26  C   UNL     1      11.196  -3.392   3.372  1.00  0.00     0.187 C 
HETATM   27  O   UNL     1       9.089  -7.072   1.219  1.00  0.00    -0.238 OA
ENDBRANCH  19  20
ENDBRANCH  16  19
ENDBRANCH   7  13
BRANCH  11  28
HETATM   28  N   UNL     1       1.759 -11.444   2.292  1.00  0.00    -0.282 NA
HETATM   29  H   UNL     1       2.584 -11.971   2.015  1.00  0.00     0.126 HD
HETATM   30  H   UNL     1       1.389 -11.730   3.195  1.00  0.00     0.126 HD
ENDBRANCH  11  28
BRANCH   1  31
HETATM   31  C   UNL     1       1.825  -4.658   1.956  1.00  0.00    -0.005 A 
HETATM   32  C   UNL     1       1.921  -3.556   2.817  1.00  0.00     0.014 A 
HETATM   33  C   UNL     1       2.403  -2.327   2.359  1.00  0.00     0.008 A 
HETATM   34  C   UNL     1       2.802  -2.176   1.027  1.00  0.00    -0.058 A 
HETATM   35  C   UNL     1       2.694  -3.270   0.160  1.00  0.00     0.008 A 
HETATM   36  C   UNL     1       2.200  -4.497   0.618  1.00  0.00     0.014 A 
BRANCH  34  37
HETATM   37  C   UNL     1       3.348  -0.856   0.538  1.00  0.00     0.042 C 
BRANCH  37  38
HETATM   38  C   UNL     1       4.886  -0.820   0.436  1.00  0.00    -0.019 C 
HETATM   39  C   UNL     1       5.560  -0.926   1.806  1.00  0.00     0.010 C 
HETATM   40  C   UNL     1       5.326   0.475  -0.253  1.00  0.00     0.010 C 
ENDBRANCH  37  38
ENDBRANCH  34  37
ENDBRANCH   1  31
TORSDOF 7
