REMARK  3 active torsions:
REMARK  status: ('A' for Active; 'I' for Inactive)
REMARK    1  A    between atoms: C_3  and  C_4 
REMARK       I    between atoms: C_4  and  N_5 
REMARK    2  A    between atoms: N_5  and  C_6 
REMARK    3  A    between atoms: C_13  and  C_14 
REMARK       I    between atoms: C_14  and  N_15 
ROOT
HETATM    1  C   UNL     1       5.565   3.215  -0.993  1.00  0.00     0.035 A 
HETATM    2  C   UNL     1       5.100   3.714  -2.217  1.00  0.00     0.046 A 
HETATM    3  C   UNL     1       5.969   4.465  -3.038  1.00  0.00     0.030 A 
HETATM    4  C   UNL     1       7.265   4.705  -2.600  1.00  0.00     0.063 A 
HETATM    5  N   UNL     1       7.849   5.447  -3.587  1.00  0.00    -0.277 N 
HETATM    6  H   UNL     1       8.797   5.808  -3.605  1.00  0.00     0.189 HD
HETATM    7  N   UNL     1       7.054   5.698  -4.640  1.00  0.00    -0.168 NA
HETATM    8  C   UNL     1       5.888   5.094  -4.317  1.00  0.00     0.156 A 
HETATM    9  C   UNL     1       7.759   4.230  -1.383  1.00  0.00     0.034 A 
HETATM   10  C   UNL     1       6.883   3.473  -0.595  1.00  0.00     0.032 A 
ENDROOT
BRANCH   1  11
HETATM   11  N   UNL     1       4.785   2.418  -0.134  1.00  0.00    -0.325 N 
HETATM   12  C   UNL     1       3.440   2.114  -0.242  1.00  0.00     0.252 C 
HETATM   13  O   UNL     1       2.649   2.578  -1.058  1.00  0.00    -0.270 OA
HETATM   14  H   UNL     1       5.241   2.035   0.689  1.00  0.00     0.169 HD
BRANCH  12  15
HETATM   15  C   UNL     1       2.996   1.028   0.744  1.00  0.00     0.229 C 
HETATM   16  C   UNL     1       2.899  -0.319   0.001  1.00  0.00     0.056 C 
HETATM   17  C   UNL     1       1.486  -0.629  -0.469  1.00  0.00     0.018 C 
HETATM   18  C   UNL     1       3.417  -1.216   1.066  1.00  0.00    -0.018 A 
HETATM   19  C   UNL     1       4.013  -0.453   2.058  1.00  0.00     0.076 A 
HETATM   20  C   UNL     1       3.430  -2.599   1.135  1.00  0.00     0.010 A 
HETATM   21  O   UNL     1       3.947   0.897   1.836  1.00  0.00    -0.335 OA
HETATM   22  C   UNL     1       4.635  -1.027   3.148  1.00  0.00     0.037 A 
HETATM   23  C   UNL     1       4.644  -2.420   3.237  1.00  0.00     0.003 A 
HETATM   24  C   UNL     1       4.045  -3.202   2.236  1.00  0.00     0.001 A 
ENDBRANCH  12  15
ENDBRANCH   1  11
BRANCH   8  25
HETATM   25  C   UNL     1       4.738   5.119  -5.232  1.00  0.00     0.270 C 
HETATM   26  N   UNL     1       4.964   5.804  -6.394  1.00  0.00    -0.365 N 
HETATM   27  H   UNL     1       5.876   6.219  -6.543  1.00  0.00     0.159 HD
HETATM   28  H   UNL     1       4.238   5.858  -7.091  1.00  0.00     0.159 HD
HETATM   29  O   UNL     1       3.659   4.579  -5.014  1.00  0.00    -0.266 OA
ENDBRANCH   8  25
TORSDOF 3
