REMARK  6 active torsions:
REMARK  status: ('A' for Active; 'I' for Inactive)
REMARK    1  A    between atoms: C_2  and  C_3 
REMARK       I    between atoms: C_3  and  N_4 
REMARK    2  A    between atoms: N_4  and  C_5 
REMARK    3  A    between atoms: N_6  and  C_7 
REMARK    4  A    between atoms: C_7  and  C_8 
REMARK    5  A    between atoms: C_11  and  O_12 
REMARK    6  A    between atoms: C_20  and  C_21 
ROOT
HETATM    1  C   UNL     1       0.323   1.459  -1.944  1.00  0.00     0.125 A 
HETATM    2  N   UNL     1      -0.397   0.278  -2.007  1.00  0.00    -0.332 N 
HETATM    3  C   UNL     1      -1.749   0.563  -1.801  1.00  0.00     0.017 A 
HETATM    4  C   UNL     1      -2.820  -0.481  -1.732  1.00  0.00     0.069 C 
HETATM    5  C   UNL     1      -1.895   1.938  -1.663  1.00  0.00    -0.022 A 
HETATM    6  C   UNL     1      -3.179   2.656  -1.432  1.00  0.00     0.051 C 
HETATM    7  C   UNL     1      -0.588   2.492  -1.754  1.00  0.00     0.062 A 
ENDROOT
BRANCH   7   8
HETATM    8  C   UNL     1      -0.164   3.933  -1.687  1.00  0.00     0.143 A 
HETATM    9  N   UNL     1       1.100   4.324  -1.724  1.00  0.00    -0.228 NA
HETATM   10  C   UNL     1       1.067   5.696  -1.714  1.00  0.00     0.086 A 
HETATM   11  C   UNL     1      -0.240   6.159  -1.646  1.00  0.00     0.062 A 
HETATM   12  C   UNL     1       2.121   6.619  -1.770  1.00  0.00     0.034 A 
HETATM   13  N   UNL     1      -0.999   5.018  -1.613  1.00  0.00    -0.338 N 
HETATM   14  C   UNL     1      -0.575   7.515  -1.632  1.00  0.00     0.032 A 
HETATM   15  H   UNL     1      -2.004   4.986  -1.587  1.00  0.00     0.167 HD
HETATM   16  C   UNL     1       0.489   8.423  -1.693  1.00  0.00     0.002 A 
HETATM   17  C   UNL     1       1.815   7.986  -1.761  1.00  0.00     0.002 A 
ENDBRANCH   7   8
BRANCH   1  18
HETATM   18  N   UNL     1       1.700   1.660  -1.983  1.00  0.00    -0.312 N 
HETATM   19  C   UNL     1       2.658   0.900  -2.612  1.00  0.00     0.222 C 
HETATM   20  O   UNL     1       2.468  -0.084  -3.317  1.00  0.00    -0.273 OA
HETATM   21  H   UNL     1       1.959   2.625  -1.764  1.00  0.00     0.170 HD
BRANCH  19  22
HETATM   22  C   UNL     1       4.078   1.362  -2.317  1.00  0.00     0.099 C 
HETATM   23  C   UNL     1       4.353   2.812  -2.670  1.00  0.00     0.014 C 
ENDBRANCH  19  22
ENDBRANCH   1  18
BRANCH   2  24
HETATM   24  C   UNL     1       0.132  -1.090  -2.061  1.00  0.00     0.169 C 
BRANCH  24  25
HETATM   25  C   UNL     1       0.012  -1.784  -3.407  1.00  0.00    -0.040 A 
HETATM   26  C   UNL     1       0.642  -3.028  -3.567  1.00  0.00     0.011 A 
HETATM   27  C   UNL     1       0.527  -3.744  -4.763  1.00  0.00     0.037 A 
HETATM   28  C   UNL     1      -0.231  -3.244  -5.821  1.00  0.00     0.068 A 
HETATM   29  C   UNL     1      -0.847  -2.003  -5.684  1.00  0.00     0.037 A 
HETATM   30  C   UNL     1      -0.722  -1.279  -4.491  1.00  0.00     0.011 A 
BRANCH  28  31
HETATM   31  O   UNL     1      -0.285  -4.051  -6.925  1.00  0.00    -0.356 OA
HETATM   32  C   UNL     1      -1.207  -3.678  -7.941  1.00  0.00     0.210 C 
ENDBRANCH  28  31
ENDBRANCH  24  25
ENDBRANCH   2  24
TORSDOF 6
