REMARK  6 active torsions:
REMARK  status: ('A' for Active; 'I' for Inactive)
REMARK    1  A    between atoms: N_7  and  C_8 
REMARK    2  A    between atoms: C_8  and  C_9 
REMARK    3  A    between atoms: C_9  and  N_10 
REMARK    4  A    between atoms: C_17  and  C_18 
REMARK    5  A    between atoms: C_18  and  N_19 
REMARK       I    between atoms: N_19  and  C_20 
REMARK    6  A    between atoms: C_20  and  C_21 
ROOT
HETATM    1  C   UNL     1      -2.494   0.487  -0.084  1.00  0.00     0.001 A 
HETATM    2  C   UNL     1      -1.307   1.220  -0.001  1.00  0.00     0.014 A 
HETATM    3  C   UNL     1      -0.077   0.554   0.038  1.00  0.00     0.008 A 
HETATM    4  C   UNL     1      -0.045  -0.839  -0.015  1.00  0.00     0.046 A 
HETATM    5  C   UNL     1       1.252  -1.541   0.000  1.00  0.00     0.274 A 
HETATM    6  O   UNL     1       1.303  -2.762  -0.117  1.00  0.00    -0.266 OA
HETATM    7  N   UNL     1       2.386  -0.746   0.143  1.00  0.00    -0.232 N 
HETATM    8  N   UNL     1       2.361   0.616   0.184  1.00  0.00    -0.172 NA
HETATM    9  C   UNL     1       1.227   1.249   0.133  1.00  0.00     0.084 A 
HETATM   10  C   UNL     1      -1.236  -1.572  -0.100  1.00  0.00     0.018 A 
HETATM   11  C   UNL     1      -2.460  -0.906  -0.131  1.00  0.00     0.001 A 
ENDROOT
BRANCH   9  12
HETATM   12  C   UNL     1       1.288   2.775   0.147  1.00  0.00     0.185 C 
BRANCH  12  13
HETATM   13  N   UNL     1       1.200   3.284  -1.207  1.00  0.00    -0.351 N 
HETATM   14  C   UNL     1       2.309   3.408  -2.014  1.00  0.00     0.253 C 
HETATM   15  O   UNL     1       3.415   2.985  -1.688  1.00  0.00    -0.268 OA
HETATM   16  H   UNL     1       0.324   3.694  -1.510  1.00  0.00     0.163 HD
BRANCH  14  17
HETATM   17  C   UNL     1       2.125   4.037  -3.357  1.00  0.00     0.055 A 
HETATM   18  C   UNL     1       1.132   4.973  -3.692  1.00  0.00     0.049 A 
HETATM   19 CL   UNL     1      -0.035   5.583  -2.571  1.00  0.00    -0.083 Cl
HETATM   20  C   UNL     1       1.065   5.492  -4.994  1.00  0.00     0.026 A 
HETATM   21  C   UNL     1       1.984   5.092  -5.966  1.00  0.00     0.021 A 
HETATM   22  C   UNL     1       2.975   4.176  -5.635  1.00  0.00     0.012 A 
HETATM   23 BR   UNL     1       4.229   3.635  -6.941  1.00  0.00    -0.051 Br
HETATM   24  C   UNL     1       3.052   3.652  -4.345  1.00  0.00     0.038 A 
ENDBRANCH  14  17
ENDBRANCH  12  13
ENDBRANCH   9  12
BRANCH   7  25
HETATM   25  C   UNL     1       3.699  -1.363   0.006  1.00  0.00     0.182 C 
BRANCH  25  26
HETATM   26  C   UNL     1       4.842  -0.482   0.523  1.00  0.00     0.256 C 
BRANCH  26  27
HETATM   27  N   UNL     1       6.198  -1.137   0.318  1.00  0.00    -0.070 N 
HETATM   28  H   UNL     1       6.157  -2.081   0.724  1.00  0.00     0.279 HD
HETATM   29  C   UNL     1       7.319  -0.391   1.025  1.00  0.00     0.235 C 
HETATM   30  C   UNL     1       8.170   0.170  -0.095  1.00  0.00     0.029 C 
HETATM   31  C   UNL     1       8.068  -0.895  -1.167  1.00  0.00     0.029 C 
HETATM   32  C   UNL     1       6.596  -1.257  -1.145  1.00  0.00     0.235 C 
ENDBRANCH  26  27
ENDBRANCH  25  26
ENDBRANCH   7  25
TORSDOF 6
