REMARK  3 active torsions:
REMARK  status: ('A' for Active; 'I' for Inactive)
REMARK    1  A    between atoms: C_2  and  C_3 
REMARK    2  A    between atoms: C_9  and  C_10 
REMARK    3  A    between atoms: C_20  and  N_21 
ROOT
HETATM    1  C   UNL     1       2.975   1.282   0.288  1.00  0.00     0.043 A 
HETATM    2  N   UNL     1       2.414   2.477  -0.110  1.00  0.00    -0.279 N 
HETATM    3  H   UNL     1       1.465   2.645  -0.430  1.00  0.00     0.189 HD
HETATM    4  N   UNL     1       3.256   3.526  -0.040  1.00  0.00    -0.148 NA
HETATM    5  C   UNL     1       4.369   2.970   0.418  1.00  0.00     0.199 A 
HETATM    6  C   UNL     1       4.284   1.589   0.614  1.00  0.00     0.035 A 
HETATM    7  C   UNL     1       5.458   0.821   1.118  1.00  0.00     0.107 A 
HETATM    8  C   UNL     1       6.623   1.756   1.437  1.00  0.00     0.081 A 
HETATM    9  C   UNL     1       7.774   1.159   2.030  1.00  0.00     0.100 C 
HETATM   10  N   UNL     1       8.720   0.674   2.496  1.00  0.00    -0.191 NA
HETATM   11  C   UNL     1       6.580   3.096   1.210  1.00  0.00     0.140 A 
HETATM   12  O   UNL     1       5.456   3.724   0.656  1.00  0.00    -0.277 OA
ENDROOT
BRANCH   7  13
HETATM   13  C   UNL     1       5.798  -0.196   0.030  1.00  0.00    -0.022 A 
HETATM   14  C   UNL     1       5.821  -1.581   0.283  1.00  0.00     0.041 A 
HETATM   15 CL   UNL     1       5.445  -2.247   1.833  1.00  0.00    -0.084 Cl
HETATM   16  C   UNL     1       6.161  -2.489  -0.727  1.00  0.00     0.024 A 
HETATM   17  C   UNL     1       6.491  -2.037  -2.002  1.00  0.00     0.002 A 
HETATM   18  C   UNL     1       6.486  -0.674  -2.273  1.00  0.00     0.001 A 
HETATM   19  C   UNL     1       6.149   0.237  -1.270  1.00  0.00     0.010 A 
ENDBRANCH   7  13
BRANCH  11  20
HETATM   20  N   UNL     1       7.601   3.980   1.482  1.00  0.00    -0.282 NA
HETATM   21  H   UNL     1       8.540   3.590   1.491  1.00  0.00     0.126 HD
HETATM   22  H   UNL     1       7.523   4.835   0.935  1.00  0.00     0.126 HD
ENDBRANCH  11  20
BRANCH   1  23
HETATM   23  C   UNL     1       2.210  -0.007   0.309  1.00  0.00     0.029 C 
HETATM   24  C   UNL     1       1.760  -0.408  -1.095  1.00  0.00     0.016 C 
HETATM   25  C   UNL     1       1.020   0.067   1.266  1.00  0.00     0.016 C 
ENDBRANCH   1  23
TORSDOF 3
