REMARK  7 active torsions:
REMARK  status: ('A' for Active; 'I' for Inactive)
REMARK    1  A    between atoms: C_2  and  C_3 
REMARK    2  A    between atoms: C_3  and  C_4 
REMARK    3  A    between atoms: C_7  and  C_8 
REMARK    4  A    between atoms: C_14  and  C_15 
REMARK    5  A    between atoms: C_18  and  O_19 
REMARK    6  A    between atoms: O_19  and  C_20 
REMARK       I    between atoms: C_20  and  N_21 
REMARK    7  A    between atoms: C_33  and  N_34 
ROOT
HETATM    1  C   UNL     1       2.113  -5.870   2.894  1.00  0.00     0.099 A 
HETATM    2  N   UNL     1       1.529  -6.005   4.101  1.00  0.00    -0.172 NA
HETATM    3  N   UNL     1       1.399  -7.334   4.275  1.00  0.00    -0.256 N 
HETATM    4  H   UNL     1       0.980  -7.676   5.133  1.00  0.00     0.191 HD
HETATM    5  C   UNL     1       1.857  -8.050   3.220  1.00  0.00     0.175 A 
HETATM    6  C   UNL     1       2.334  -7.147   2.304  1.00  0.00     0.040 A 
HETATM    7  C   UNL     1       2.883  -7.636   1.005  1.00  0.00     0.105 A 
HETATM    8  C   UNL     1       2.898  -9.160   0.977  1.00  0.00     0.067 A 
HETATM    9  C   UNL     1       3.661  -9.794  -0.176  1.00  0.00     0.020 C 
HETATM   10  N   UNL     1       4.293 -10.320  -1.131  1.00  0.00    -0.096 N 
HETATM   11  C   UNL     1       2.399  -9.937   1.975  1.00  0.00     0.139 A 
HETATM   12  O   UNL     1       1.814  -9.375   3.125  1.00  0.00    -0.279 OA
ENDROOT
BRANCH   7  13
HETATM   13  C   UNL     1       2.021  -7.014  -0.085  1.00  0.00    -0.044 A 
HETATM   14  C   UNL     1       2.639  -6.263  -1.101  1.00  0.00     0.011 A 
HETATM   15  C   UNL     1       1.874  -5.571  -2.040  1.00  0.00     0.038 A 
HETATM   16  C   UNL     1       0.484  -5.636  -1.983  1.00  0.00     0.081 A 
HETATM   17  C   UNL     1      -0.151  -6.417  -1.023  1.00  0.00     0.038 A 
HETATM   18  C   UNL     1       0.617  -7.121  -0.093  1.00  0.00     0.011 A 
BRANCH  16  19
HETATM   19  O   UNL     1      -0.203  -4.751  -2.840  1.00  0.00    -0.261 OA
BRANCH  19  20
HETATM   20  C   UNL     1      -1.510  -4.959  -3.276  1.00  0.00     0.368 C 
HETATM   21  N   UNL     1      -2.066  -3.812  -3.815  1.00  0.00    -0.324 N 
HETATM   22  C   UNL     1      -3.384  -3.863  -4.439  1.00  0.00     0.154 C 
HETATM   23  C   UNL     1      -1.320  -2.573  -4.040  1.00  0.00     0.154 C 
HETATM   24  C   UNL     1      -4.176  -2.585  -4.151  1.00  0.00     0.187 C 
HETATM   25  O   UNL     1      -3.425  -1.416  -4.518  1.00  0.00    -0.388 OA
HETATM   26  C   UNL     1      -2.201  -1.349  -3.771  1.00  0.00     0.187 C 
HETATM   27  O   UNL     1      -2.109  -6.025  -3.186  1.00  0.00    -0.238 OA
ENDBRANCH  19  20
ENDBRANCH  16  19
ENDBRANCH   7  13
BRANCH  11  28
HETATM   28  N   UNL     1       2.420 -11.312   2.002  1.00  0.00    -0.282 NA
HETATM   29  H   UNL     1       2.454 -11.767   1.093  1.00  0.00     0.126 HD
HETATM   30  H   UNL     1       1.695 -11.693   2.606  1.00  0.00     0.126 HD
ENDBRANCH  11  28
BRANCH   1  31
HETATM   31  C   UNL     1       2.377  -4.547   2.327  1.00  0.00    -0.005 A 
HETATM   32  C   UNL     1       3.568  -4.271   1.649  1.00  0.00     0.014 A 
HETATM   33  C   UNL     1       3.765  -3.027   1.039  1.00  0.00     0.008 A 
HETATM   34  C   UNL     1       2.783  -2.030   1.111  1.00  0.00    -0.058 A 
HETATM   35  C   UNL     1       1.614  -2.290   1.833  1.00  0.00     0.008 A 
HETATM   36  C   UNL     1       1.411  -3.538   2.430  1.00  0.00     0.014 A 
BRANCH  34  37
HETATM   37  C   UNL     1       2.998  -0.699   0.428  1.00  0.00     0.042 C 
BRANCH  37  38
HETATM   38  C   UNL     1       2.280  -0.494  -0.925  1.00  0.00    -0.019 C 
HETATM   39  C   UNL     1       0.771  -0.293  -0.778  1.00  0.00     0.010 C 
HETATM   40  C   UNL     1       2.570  -1.608  -1.932  1.00  0.00     0.010 C 
ENDBRANCH  37  38
ENDBRANCH  34  37
ENDBRANCH   1  31
TORSDOF 7
