REMARK  7 active torsions:
REMARK  status: ('A' for Active; 'I' for Inactive)
REMARK    1  A    between atoms: C_3  and  C_4 
REMARK       I    between atoms: C_4  and  N_5 
REMARK    2  A    between atoms: N_5  and  C_6 
REMARK    3  A    between atoms: C_6  and  C_7 
REMARK    4  A    between atoms: N_23  and  C_24 
REMARK    5  A    between atoms: C_24  and  C_25 
REMARK       I    between atoms: C_25  and  N_26 
REMARK    6  A    between atoms: N_26  and  C_27 
REMARK    7  A    between atoms: C_29  and  C_30 
ROOT
HETATM    1  C   UNL     1       0.884   0.245   0.963  1.00  0.00     0.051 C 
HETATM    2  C   UNL     1       2.194   0.189   0.237  1.00  0.00    -0.021 C 
HETATM    3  C   UNL     1       2.853  -0.988  -0.121  1.00  0.00     0.081 C 
HETATM    4  S   UNL     1       4.268  -0.657  -1.039  1.00  0.00    -0.063 SA
HETATM    5  C   UNL     1       4.112   1.020  -0.832  1.00  0.00     0.116 A 
HETATM    6  C   UNL     1       2.984   1.345  -0.113  1.00  0.00     0.075 A 
HETATM    7  C   UNL     1       2.782   2.752   0.201  1.00  0.00     0.262 A 
HETATM    8  O   UNL     1       1.795   3.184   0.797  1.00  0.00    -0.267 OA
HETATM    9  N   UNL     1       3.816   3.585  -0.220  1.00  0.00    -0.299 N 
HETATM   10  C   UNL     1       4.859   3.113  -0.991  1.00  0.00     0.214 A 
HETATM   11  N   UNL     1       5.044   1.876  -1.322  1.00  0.00    -0.235 NA
ENDROOT
BRANCH   3  12
HETATM   12  C   UNL     1       2.492  -2.366   0.217  1.00  0.00     0.259 C 
HETATM   13  N   UNL     1       3.339  -3.348  -0.255  1.00  0.00    -0.354 N 
HETATM   14  H   UNL     1       4.067  -3.080  -0.907  1.00  0.00     0.162 HD
HETATM   15  O   UNL     1       1.520  -2.664   0.910  1.00  0.00    -0.267 OA
BRANCH  13  16
HETATM   16  C   UNL     1       3.155  -4.754   0.057  1.00  0.00     0.157 C 
BRANCH  16  17
HETATM   17  C   UNL     1       2.092  -5.431  -0.815  1.00  0.00     0.171 C 
HETATM   18  O   UNL     1       2.581  -5.456  -2.170  1.00  0.00    -0.339 OA
HETATM   19  C   UNL     1       1.845  -6.305  -2.955  1.00  0.00     0.102 A 
HETATM   20  C   UNL     1       0.993  -7.284  -2.435  1.00  0.00     0.102 A 
HETATM   21  C   UNL     1       1.988  -6.166  -4.334  1.00  0.00     0.039 A 
HETATM   22  O   UNL     1       0.824  -7.498  -1.091  1.00  0.00    -0.346 OA
HETATM   23  C   UNL     1       0.257  -8.097  -3.294  1.00  0.00     0.039 A 
HETATM   24  C   UNL     1       1.851  -6.858  -0.326  1.00  0.00     0.209 C 
HETATM   25  C   UNL     1       0.390  -7.949  -4.676  1.00  0.00     0.003 A 
HETATM   26  C   UNL     1       1.258  -6.987  -5.195  1.00  0.00     0.003 A 
ENDBRANCH  16  17
ENDBRANCH  13  16
ENDBRANCH   3  12
BRANCH   9  27
HETATM   27  C   UNL     1       3.798   4.972   0.206  1.00  0.00     0.236 C 
BRANCH  27  28
HETATM   28  C   UNL     1       2.926   5.815  -0.718  1.00  0.00     0.240 C 
HETATM   29  N   UNL     1       1.580   5.746  -0.401  1.00  0.00    -0.326 N 
HETATM   30  H   UNL     1       1.302   4.996   0.234  1.00  0.00     0.169 HD
HETATM   31  O   UNL     1       3.426   6.435  -1.652  1.00  0.00    -0.271 OA
BRANCH  29  32
HETATM   32  C   UNL     1       0.538   6.533  -0.926  1.00  0.00     0.035 A 
HETATM   33  C   UNL     1       0.744   7.652  -1.737  1.00  0.00     0.045 A 
HETATM   34  C   UNL     1      -0.341   8.426  -2.186  1.00  0.00     0.050 A 
HETATM   35  C   UNL     1      -1.643   8.054  -1.820  1.00  0.00     0.016 A 
HETATM   36  C   UNL     1      -1.855   6.938  -1.014  1.00  0.00     0.003 A 
HETATM   37  C   UNL     1      -0.769   6.186  -0.565  1.00  0.00     0.029 A 
BRANCH  34  38
HETATM   38  C   UNL     1      -0.124   9.648  -3.044  1.00  0.00     0.417 C 
HETATM   39  F   UNL     1       1.186   9.939  -3.273  1.00  0.00    -0.166 F 
HETATM   40  F   UNL     1      -0.702   9.532  -4.272  1.00  0.00    -0.166 F 
HETATM   41  F   UNL     1      -0.660  10.772  -2.487  1.00  0.00    -0.166 F 
ENDBRANCH  34  38
ENDBRANCH  29  32
ENDBRANCH  27  28
ENDBRANCH   9  27
TORSDOF 7
