REMARK  6 active torsions:
REMARK  status: ('A' for Active; 'I' for Inactive)
REMARK    1  A    between atoms: N_2  and  C_3 
REMARK    2  A    between atoms: N_2  and  C_19 
REMARK    3  A    between atoms: C_4  and  N_5 
REMARK       I    between atoms: N_5  and  C_6 
REMARK    4  A    between atoms: C_6  and  C_7 
REMARK    5  A    between atoms: C_7  and  C_8 
REMARK    6  A    between atoms: C_19  and  C_20 
ROOT
HETATM    1  C   UNL     1       3.403  -0.059  -0.730  1.00  0.00     0.037 A 
HETATM    2  C   UNL     1       4.200   0.983  -1.273  1.00  0.00     0.056 A 
HETATM    3  C   UNL     1       5.248   0.688  -2.147  1.00  0.00     0.031 A 
HETATM    4  C   UNL     1       5.515  -0.635  -2.500  1.00  0.00     0.002 A 
HETATM    5  C   UNL     1       4.742  -1.667  -1.978  1.00  0.00     0.002 A 
HETATM    6  C   UNL     1       3.697  -1.383  -1.096  1.00  0.00     0.026 A 
ENDROOT
BRANCH   2   7
HETATM    7  N   UNL     1       3.835   2.299  -0.920  1.00  0.00    -0.325 N 
HETATM    8  C   UNL     1       4.528   3.470  -1.140  1.00  0.00     0.227 C 
HETATM    9  O   UNL     1       5.658   3.556  -1.622  1.00  0.00    -0.273 OA
HETATM   10  H   UNL     1       2.981   2.330  -0.368  1.00  0.00     0.169 HD
BRANCH   8  11
HETATM   11  C   UNL     1       3.768   4.710  -0.669  1.00  0.00     0.159 C 
BRANCH  11  12
HETATM   12  C   UNL     1       3.788   5.801  -1.697  1.00  0.00     0.017 A 
HETATM   13  N   UNL     1       4.932   6.127  -2.392  1.00  0.00    -0.369 N 
HETATM   14  H   UNL     1       5.814   5.631  -2.306  1.00  0.00     0.165 HD
HETATM   15  C   UNL     1       4.672   7.164  -3.248  1.00  0.00     0.088 A 
HETATM   16  C   UNL     1       3.348   7.510  -3.107  1.00  0.00     0.019 A 
HETATM   17  C   UNL     1       2.789   6.652  -2.129  1.00  0.00     0.027 A 
ENDBRANCH  11  12
ENDBRANCH   8  11
ENDBRANCH   2   7
BRANCH   1  18
HETATM   18  N   UNL     1       2.369   0.268   0.196  1.00  0.00    -0.281 NA
HETATM   19  C   UNL     1       1.146  -0.523   0.029  1.00  0.00     0.117 C 
BRANCH  18  20
HETATM   20  C   UNL     1       2.882   0.310   1.586  1.00  0.00     0.133 C 
BRANCH  20  21
HETATM   21  C   UNL     1       2.798   1.717   2.142  1.00  0.00    -0.045 A 
HETATM   22  C   UNL     1       1.564   2.375   2.261  1.00  0.00     0.008 A 
HETATM   23  C   UNL     1       1.494   3.673   2.770  1.00  0.00     0.001 A 
HETATM   24  C   UNL     1       2.655   4.327   3.173  1.00  0.00     0.000 A 
HETATM   25  C   UNL     1       3.887   3.686   3.065  1.00  0.00     0.001 A 
HETATM   26  C   UNL     1       3.960   2.389   2.551  1.00  0.00     0.008 A 
ENDBRANCH  20  21
ENDBRANCH  18  20
ENDBRANCH   1  18
TORSDOF 6
