REMARK  3 active torsions:
REMARK  status: ('A' for Active; 'I' for Inactive)
REMARK    1  A    between atoms: C_4  and  C_5 
REMARK    2  A    between atoms: C_9  and  C_10 
REMARK       I    between atoms: C_10  and  N_11 
REMARK    3  A    between atoms: N_11  and  N_12 
ROOT
HETATM    1  C   UNL     1       3.871  -4.593  -0.024  1.00  0.00     0.289 C 
HETATM    2  N   UNL     1       2.872  -5.552  -0.004  1.00  0.00    -0.241 N 
HETATM    3  O   UNL     1       3.662  -3.382  -0.029  1.00  0.00    -0.264 OA
HETATM    4  H   UNL     1       3.101  -6.546   0.000  1.00  0.00     0.192 HD
ENDROOT
BRANCH   2   5
HETATM    5  N   UNL     1       1.557  -5.172   0.012  1.00  0.00    -0.165 NA
HETATM    6  C   UNL     1       0.675  -6.117   0.030  1.00  0.00     0.157 A 
HETATM    7  C   UNL     1       0.896  -7.632   0.036  1.00  0.00     0.277 A 
HETATM    8  C   UNL     1      -0.769  -5.924   0.049  1.00  0.00     0.028 A 
HETATM    9  O   UNL     1       1.983  -8.169   0.025  1.00  0.00    -0.266 OA
HETATM   10  N   UNL     1      -0.364  -8.190   0.057  1.00  0.00    -0.321 N 
HETATM   11  C   UNL     1      -1.341  -7.196   0.064  1.00  0.00     0.048 A 
HETATM   12  H   UNL     1      -0.530  -9.186   0.066  1.00  0.00     0.169 HD
HETATM   13  C   UNL     1      -2.709  -7.364   0.084  1.00  0.00     0.032 A 
HETATM   14  C   UNL     1      -3.498  -6.206   0.088  1.00  0.00     0.021 A 
HETATM   15  C   UNL     1      -2.905  -4.925   0.072  1.00  0.00     0.012 A 
HETATM   16 BR   UNL     1      -4.015  -3.393   0.078  1.00  0.00    -0.051 Br
HETATM   17  C   UNL     1      -1.520  -4.767   0.052  1.00  0.00     0.035 A 
ENDBRANCH   2   5
BRANCH   1  18
HETATM   18  C   UNL     1       5.216  -5.111  -0.038  1.00  0.00     0.121 A 
HETATM   19  N   UNL     1       6.292  -4.263  -0.058  1.00  0.00    -0.272 N 
HETATM   20  N   UNL     1       7.483  -4.882  -0.069  1.00  0.00    -0.172 NA
HETATM   21  H   UNL     1       6.260  -3.247  -0.066  1.00  0.00     0.189 HD
HETATM   22  C   UNL     1       7.165  -6.182  -0.055  1.00  0.00     0.113 A 
HETATM   23  C   UNL     1       5.764  -6.379  -0.035  1.00  0.00     0.073 A 
BRANCH  22  24
HETATM   24  C   UNL     1       8.190  -7.264  -0.060  1.00  0.00     0.105 A 
HETATM   25  O   UNL     1       7.910  -8.604  -0.046  1.00  0.00    -0.320 OA
HETATM   26  C   UNL     1       9.097  -9.264  -0.056  1.00  0.00     0.142 A 
HETATM   27  C   UNL     1      10.144  -8.374  -0.077  1.00  0.00     0.027 A 
HETATM   28  C   UNL     1       9.561  -7.085  -0.079  1.00  0.00     0.041 A 
ENDBRANCH  22  24
ENDBRANCH   1  18
TORSDOF 3
