REMARK  4 active torsions:
REMARK  status: ('A' for Active; 'I' for Inactive)
REMARK    1  A    between atoms: N_1  and  C_2 
REMARK    2  A    between atoms: C_2  and  C_3 
REMARK    3  A    between atoms: C_2  and  C_16 
REMARK       I    between atoms: C_3  and  N_5 
REMARK    4  A    between atoms: N_5  and  C_6 
ROOT
HETATM    1  C   UNL     1       3.171  -0.427   1.322  1.00  0.00     0.260 C 
HETATM    2  O   UNL     1       4.010  -1.327   1.374  1.00  0.00    -0.270 OA
HETATM    3  N   UNL     1       2.732   0.340   2.393  1.00  0.00    -0.325 N 
HETATM    4  H   UNL     1       2.098   1.100   2.177  1.00  0.00     0.169 HD
ENDROOT
BRANCH   1   5
HETATM    5  C   UNL     1       2.516  -0.014  -0.029  1.00  0.00     0.342 C 
BRANCH   5   6
HETATM    6  N   UNL     1       3.456  -0.260  -1.142  1.00  0.00     0.096 N 
HETATM    7  H   UNL     1       3.646  -1.265  -1.155  1.00  0.00     0.314 HD
HETATM    8  H   UNL     1       4.356   0.152  -0.892  1.00  0.00     0.314 HD
ENDBRANCH   5   6
BRANCH   5   9
HETATM    9  C   UNL     1       1.201  -0.734  -0.267  1.00  0.00    -0.016 A 
HETATM   10  C   UNL     1       0.074  -0.016  -0.698  1.00  0.00     0.010 A 
HETATM   11  C   UNL     1      -1.138  -0.669  -0.935  1.00  0.00     0.001 A 
HETATM   12  C   UNL     1      -1.238  -2.047  -0.754  1.00  0.00     0.000 A 
HETATM   13  C   UNL     1      -0.125  -2.775  -0.340  1.00  0.00     0.001 A 
HETATM   14  C   UNL     1       1.087  -2.125  -0.102  1.00  0.00     0.010 A 
ENDBRANCH   5   9
ENDBRANCH   1   5
BRANCH   3  15
HETATM   15  C   UNL     1       3.101   0.209   3.748  1.00  0.00     0.035 A 
HETATM   16  C   UNL     1       3.852  -0.854   4.249  1.00  0.00     0.030 A 
HETATM   17  C   UNL     1       4.173  -0.919   5.609  1.00  0.00     0.016 A 
HETATM   18  C   UNL     1       3.753   0.090   6.490  1.00  0.00    -0.008 A 
HETATM   19  C   UNL     1       4.054   0.080   7.855  1.00  0.00     0.128 A 
HETATM   20  C   UNL     1       2.998   1.170   6.000  1.00  0.00    -0.021 A 
HETATM   21  N   UNL     1       3.675   1.040   8.730  1.00  0.00    -0.272 NA
HETATM   22  C   UNL     1       2.958   2.065   8.226  1.00  0.00     0.117 A 
HETATM   23  C   UNL     1       2.598   2.173   6.892  1.00  0.00     0.031 A 
HETATM   24  C   UNL     1       2.670   1.210   4.631  1.00  0.00     0.042 A 
ENDBRANCH   3  15
TORSDOF 4
