REMARK  3 active torsions:
REMARK  status: ('A' for Active; 'I' for Inactive)
REMARK    1  A    between atoms: C_3  and  N_4 
REMARK       I    between atoms: N_4  and  C_5 
REMARK    2  A    between atoms: C_5  and  C_6 
REMARK    3  A    between atoms: C_6  and  C_7 
ROOT
HETATM    1  C   UNL     1       5.773   1.707   0.347  1.00  0.00     0.286 C 
HETATM    2  N   UNL     1       4.633   0.701   0.555  1.00  0.00    -0.056 N 
HETATM    3  H   UNL     1       4.291   0.784   1.532  1.00  0.00     0.278 HD
HETATM    4  H   UNL     1       3.842   0.943  -0.055  1.00  0.00     0.278 HD
HETATM    5  C   UNL     1       5.019  -0.745   0.368  1.00  0.00     0.209 C 
HETATM    6  C   UNL     1       5.757  -0.908  -0.974  1.00  0.00     0.115 C 
HETATM    7  N   UNL     1       6.922  -0.041  -1.029  1.00  0.00    -0.353 N 
HETATM    8  C   UNL     1       6.987   1.199  -0.460  1.00  0.00     0.249 C 
HETATM    9  O   UNL     1       8.012   1.866  -0.571  1.00  0.00    -0.271 OA
HETATM   10  C   UNL     1       3.775  -1.623   0.431  1.00  0.00     0.035 C 
HETATM   11  C   UNL     1       4.159  -3.089   0.232  1.00  0.00     0.002 C 
HETATM   12  C   UNL     1       4.949  -3.304  -1.059  1.00  0.00     0.002 C 
HETATM   13  C   UNL     1       6.157  -2.373  -1.169  1.00  0.00     0.027 C 
HETATM   14  H   UNL     1       7.710  -0.283  -1.628  1.00  0.00     0.163 HD
ENDROOT
BRANCH   1  15
HETATM   15  C   UNL     1       6.245   2.325   1.669  1.00  0.00     0.146 C 
BRANCH  15  16
HETATM   16  C   UNL     1       6.545   1.215   2.637  1.00  0.00     0.224 C 
HETATM   17  N   UNL     1       7.868   0.841   2.688  1.00  0.00    -0.327 N 
HETATM   18  H   UNL     1       8.497   1.243   1.996  1.00  0.00     0.169 HD
HETATM   19  O   UNL     1       5.580   0.629   3.129  1.00  0.00    -0.273 OA
BRANCH  17  20
HETATM   20  C   UNL     1       8.380  -0.298   3.358  1.00  0.00     0.040 A 
HETATM   21  C   UNL     1       7.923  -0.795   4.591  1.00  0.00    -0.035 A 
HETATM   22  C   UNL     1       6.934  -0.099   5.485  1.00  0.00     0.050 C 
HETATM   23  C   UNL     1       8.468  -2.000   5.080  1.00  0.00     0.009 A 
HETATM   24  C   UNL     1       9.488  -2.663   4.400  1.00  0.00     0.001 A 
HETATM   25  C   UNL     1       9.991  -2.126   3.223  1.00  0.00     0.002 A 
HETATM   26  C   UNL     1       9.447  -0.947   2.711  1.00  0.00     0.030 A 
ENDBRANCH  17  20
ENDBRANCH  15  16
ENDBRANCH   1  15
TORSDOF 3
