REMARK  6 active torsions:
REMARK  status: ('A' for Active; 'I' for Inactive)
REMARK    1  A    between atoms: C_3  and  N_4 
REMARK    2  A    between atoms: N_4  and  C_5 
REMARK    3  A    between atoms: C_12  and  C_13 
REMARK       I    between atoms: C_13  and  N_14 
REMARK    4  A    between atoms: N_14  and  C_15 
REMARK    5  A    between atoms: C_15  and  C_16 
REMARK    6  A    between atoms: C_16  and  C_17 
ROOT
HETATM    1  C   UNL     1      -1.169  -2.591   0.218  1.00  0.00     0.251 C 
HETATM    2  N   UNL     1      -0.399  -3.670  -0.175  1.00  0.00    -0.357 N 
HETATM    3  O   UNL     1      -2.306  -2.711   0.664  1.00  0.00    -0.268 OA
HETATM    4  H   UNL     1       0.396  -3.501  -0.779  1.00  0.00     0.162 HD
ENDROOT
BRANCH   1   5
HETATM    5  C   UNL     1      -0.581  -1.233   0.041  1.00  0.00     0.034 A 
HETATM    6  C   UNL     1       0.804  -1.015  -0.031  1.00  0.00     0.047 A 
HETATM    7  C   UNL     1       1.325   0.274  -0.201  1.00  0.00     0.050 A 
HETATM    8  C   UNL     1       0.419   1.346  -0.276  1.00  0.00     0.030 A 
HETATM    9  C   UNL     1      -0.959   1.143  -0.188  1.00  0.00     0.003 A 
HETATM   10  C   UNL     1      -1.458  -0.145  -0.029  1.00  0.00     0.017 A 
BRANCH   7  11
HETATM   11  N   UNL     1       2.693   0.559  -0.285  1.00  0.00    -0.188 N 
HETATM   12  H   UNL     1       2.954   1.519  -0.455  1.00  0.00     0.184 HD
BRANCH  11  13
HETATM   13  C   UNL     1       3.850  -0.211  -0.244  1.00  0.00     0.726 A 
HETATM   14  N   UNL     1       3.819  -1.534  -0.026  1.00  0.00    -0.075 NA
HETATM   15  C   UNL     1       4.998  -2.184   0.002  1.00  0.00     0.138 A 
HETATM   16  C   UNL     1       6.209  -1.569  -0.190  1.00  0.00     0.040 A 
HETATM   17  C   UNL     1       6.144  -0.218  -0.408  1.00  0.00     0.138 A 
HETATM   18  N   UNL     1       4.990   0.476  -0.437  1.00  0.00    -0.075 NA
ENDBRANCH  11  13
ENDBRANCH   7  11
ENDBRANCH   1   5
BRANCH   2  19
HETATM   19  C   UNL     1      -0.978  -5.002  -0.198  1.00  0.00     0.127 C 
BRANCH  19  20
HETATM   20  C   UNL     1       0.069  -6.116  -0.216  1.00  0.00     0.060 C 
BRANCH  20  21
HETATM   21  C   UNL     1       0.874  -6.181  -1.480  1.00  0.00    -0.029 A 
HETATM   22  C   UNL     1       2.300  -6.095  -1.600  1.00  0.00     0.001 A 
HETATM   23  C   UNL     1       2.618  -6.242  -2.953  1.00  0.00     0.043 A 
HETATM   24  C   UNL     1       3.353  -5.916  -0.681  1.00  0.00     0.056 A 
HETATM   25  C   UNL     1       3.933  -6.222  -3.435  1.00  0.00     0.033 A 
HETATM   26  N   UNL     1       1.433  -6.404  -3.631  1.00  0.00    -0.365 N 
HETATM   27  C   UNL     1       4.959  -6.046  -2.503  1.00  0.00     0.044 A 
HETATM   28  C   UNL     1       4.665  -5.897  -1.155  1.00  0.00     0.117 A 
HETATM   29  F   UNL     1       5.669  -5.717  -0.285  1.00  0.00    -0.206 F 
HETATM   30  H   UNL     1       1.356  -6.537  -4.630  1.00  0.00     0.165 HD
HETATM   31  C   UNL     1       0.381  -6.380  -2.756  1.00  0.00     0.096 A 
ENDBRANCH  20  21
ENDBRANCH  19  20
ENDBRANCH   2  19
TORSDOF 6
