REMARK  8 active torsions:
REMARK  status: ('A' for Active; 'I' for Inactive)
REMARK    1  A    between atoms: C_2  and  O_3 
REMARK    2  A    between atoms: O_3  and  C_4 
REMARK       I    between atoms: C_4  and  N_5 
REMARK    3  A    between atoms: C_8  and  N_9 
REMARK       I    between atoms: N_9  and  C_10 
REMARK    4  A    between atoms: C_10  and  C_11 
REMARK    5  A    between atoms: C_12  and  C_13 
REMARK    6  A    between atoms: N_18  and  C_19 
REMARK    7  A    between atoms: C_19  and  C_20 
REMARK    8  A    between atoms: C_20  and  O_21 
ROOT
HETATM    1  C   UNL     1       7.611   3.977   0.113  1.00  0.00     0.139 C 
HETATM    2  C   UNL     1       7.054   5.300  -0.451  1.00  0.00     0.145 C 
HETATM    3  N   UNL     1       7.836   6.403   0.124  1.00  0.00    -0.335 N 
HETATM    4  C   UNL     1       8.143   6.415   1.484  1.00  0.00     0.255 C 
HETATM    5  O   UNL     1       8.791   7.308   2.020  1.00  0.00    -0.267 OA
HETATM    6  C   UNL     1       7.728   5.217   2.279  1.00  0.00     0.039 A 
HETATM    7  C   UNL     1       7.485   3.985   1.627  1.00  0.00    -0.027 A 
HETATM    8  C   UNL     1       7.660   5.315   3.671  1.00  0.00     0.017 A 
HETATM    9  C   UNL     1       7.341   4.190   4.428  1.00  0.00     0.001 A 
HETATM   10  C   UNL     1       7.118   2.966   3.797  1.00  0.00     0.001 A 
HETATM   11  C   UNL     1       7.202   2.857   2.405  1.00  0.00     0.009 A 
ENDROOT
BRANCH   1  12
HETATM   12  C   UNL     1       7.071   2.818  -0.709  1.00  0.00     0.229 C 
HETATM   13  N   UNL     1       7.656   2.743  -1.961  1.00  0.00    -0.356 N 
HETATM   14  H   UNL     1       8.419   3.388  -2.159  1.00  0.00     0.162 HD
HETATM   15  O   UNL     1       6.198   2.051  -0.327  1.00  0.00    -0.273 OA
BRANCH  13  16
HETATM   16  C   UNL     1       7.282   1.849  -3.055  1.00  0.00     0.087 C 
HETATM   17  C   UNL     1       7.546   0.365  -2.790  1.00  0.00     0.045 C 
HETATM   18  C   UNL     1       6.354  -0.411  -2.240  1.00  0.00     0.130 C 
HETATM   19  N   UNL     1       5.120  -0.098  -2.949  1.00  0.00    -0.328 N 
HETATM   20  C   UNL     1       4.098  -1.028  -3.090  1.00  0.00     0.362 C 
HETATM   21  C   UNL     1       4.773   1.312  -3.029  1.00  0.00     0.130 C 
HETATM   22  O   UNL     1       2.960  -0.747  -3.448  1.00  0.00    -0.238 OA
HETATM   23  C   UNL     1       5.897   2.136  -3.640  1.00  0.00     0.045 C 
BRANCH  20  24
HETATM   24  O   UNL     1       4.504  -2.297  -2.808  1.00  0.00    -0.304 OA
BRANCH  24  25
HETATM   25  C   UNL     1       3.505  -3.319  -2.931  1.00  0.00     0.176 C 
HETATM   26  C   UNL     1       3.387  -3.778  -4.372  1.00  0.00     0.034 C 
ENDBRANCH  24  25
ENDBRANCH  20  24
ENDBRANCH  13  16
ENDBRANCH   1  12
BRANCH   2  27
HETATM   27  C   UNL     1       5.564   5.573  -0.236  1.00  0.00     0.006 A 
HETATM   28  S   UNL     1       4.865   6.995  -0.929  1.00  0.00    -0.104 SA
HETATM   29  C   UNL     1       3.316   6.631  -0.317  1.00  0.00     0.050 A 
HETATM   30  C   UNL     1       3.300   5.440   0.368  1.00  0.00     0.008 A 
HETATM   31  C   UNL     1       4.588   4.829   0.407  1.00  0.00     0.017 A 
ENDBRANCH   2  27
BRANCH   3  32
HETATM   32  C   UNL     1       8.575   7.282  -0.786  1.00  0.00     0.153 C 
BRANCH  32  33
HETATM   33  C   UNL     1       9.839   6.600  -1.340  1.00  0.00     0.187 C 
BRANCH  33  34
HETATM   34  O   UNL     1       9.528   5.497  -2.214  1.00  0.00    -0.394 OA
HETATM   35  C   UNL     1       9.292   5.920  -3.554  1.00  0.00     0.201 C 
ENDBRANCH  33  34
ENDBRANCH  32  33
ENDBRANCH   3  32
TORSDOF 8
