REMARK  6 active torsions:
REMARK  status: ('A' for Active; 'I' for Inactive)
REMARK    1  A    between atoms: C_6  and  C_7 
REMARK       I    between atoms: C_7  and  N_8 
REMARK    2  A    between atoms: N_8  and  C_9 
REMARK    3  A    between atoms: C_9  and  C_10 
REMARK    4  A    between atoms: C_10  and  O_11 
REMARK    5  A    between atoms: C_10  and  C_12 
REMARK    6  A    between atoms: C_15  and  O_16 
ROOT
HETATM    1  C   UNL     1      -1.041   0.735   1.087  1.00  0.00     0.258 C 
HETATM    2  N   UNL     1       0.023  -0.121   1.266  1.00  0.00    -0.350 N 
HETATM    3  O   UNL     1      -2.002   0.461   0.377  1.00  0.00    -0.267 OA
HETATM    4  H   UNL     1       0.782   0.201   1.865  1.00  0.00     0.163 HD
ENDROOT
BRANCH   2   5
HETATM    5  C   UNL     1       0.149  -1.433   0.616  1.00  0.00     0.114 C 
HETATM    6  C   UNL     1      -0.973  -2.378   1.052  1.00  0.00     0.035 C 
BRANCH   5   7
HETATM    7  C   UNL     1       0.273  -1.286  -0.927  1.00  0.00     0.173 C 
BRANCH   7   8
HETATM    8  O   UNL     1       1.379  -0.412  -1.214  1.00  0.00    -0.389 OA
HETATM    9  H   UNL     1       1.199   0.403  -0.713  1.00  0.00     0.210 HD
ENDBRANCH   7   8
BRANCH   7  10
HETATM   10  C   UNL     1       0.508  -2.592  -1.655  1.00  0.00    -0.028 A 
HETATM   11  C   UNL     1      -0.546  -3.205  -2.346  1.00  0.00     0.012 A 
HETATM   12  C   UNL     1      -0.346  -4.413  -3.019  1.00  0.00     0.037 A 
HETATM   13  C   UNL     1       0.907  -5.028  -3.022  1.00  0.00     0.068 A 
HETATM   14  C   UNL     1       1.959  -4.432  -2.327  1.00  0.00     0.037 A 
HETATM   15  C   UNL     1       1.760  -3.224  -1.648  1.00  0.00     0.012 A 
BRANCH  13  16
HETATM   16  O   UNL     1       0.969  -6.197  -3.729  1.00  0.00    -0.356 OA
HETATM   17  C   UNL     1       2.262  -6.753  -3.929  1.00  0.00     0.210 C 
ENDBRANCH  13  16
ENDBRANCH   7  10
ENDBRANCH   5   7
ENDBRANCH   2   5
BRANCH   1  18
HETATM   18  C   UNL     1      -0.930   2.006   1.782  1.00  0.00     0.105 A 
HETATM   19  C   UNL     1      -1.896   3.046   1.856  1.00  0.00     0.071 A 
HETATM   20  C   UNL     1      -3.254   3.071   1.253  1.00  0.00     0.073 C 
HETATM   21  N   UNL     1      -1.465   4.093   2.568  1.00  0.00    -0.170 NA
HETATM   22  N   UNL     1      -0.216   3.756   2.958  1.00  0.00    -0.225 N 
HETATM   23  C   UNL     1       0.149   2.485   2.505  1.00  0.00     0.168 A 
HETATM   24  C   UNL     1       0.669   4.520   3.711  1.00  0.00     0.122 A 
HETATM   25  N   UNL     1       1.380   1.939   2.785  1.00  0.00    -0.240 NA
HETATM   26  C   UNL     1       2.180   2.685   3.491  1.00  0.00     0.120 A 
HETATM   27  C   UNL     1       1.885   4.047   4.013  1.00  0.00     0.038 A 
ENDBRANCH   1  18
TORSDOF 6
