REMARK  4 active torsions:
REMARK  status: ('A' for Active; 'I' for Inactive)
REMARK    1  A    between atoms: C_5  and  N_6 
REMARK       I    between atoms: N_6  and  C_7 
REMARK    2  A    between atoms: C_7  and  C_8 
REMARK    3  A    between atoms: N_10  and  C_11 
REMARK    4  A    between atoms: C_21  and  O_22 
ROOT
HETATM    1  N   UNL     1      -1.278  -2.345  -1.296  1.00  0.00    -0.346 N 
HETATM    2  C   UNL     1      -2.386  -3.121  -1.526  1.00  0.00     0.255 C 
HETATM    3  O   UNL     1      -3.310  -3.205  -0.724  1.00  0.00    -0.268 OA
HETATM    4  H   UNL     1      -0.588  -2.204  -2.020  1.00  0.00     0.163 HD
ENDROOT
BRANCH   2   5
HETATM    5  C   UNL     1      -2.417  -3.802  -2.806  1.00  0.00     0.068 A 
HETATM    6  C   UNL     1      -1.550  -3.713  -3.880  1.00  0.00     0.137 A 
HETATM    7  N   UNL     1      -2.042  -4.502  -4.903  1.00  0.00    -0.243 N 
HETATM    8  N   UNL     1      -3.156  -5.166  -4.477  1.00  0.00    -0.179 NA
HETATM    9  C   UNL     1      -3.382  -4.724  -3.242  1.00  0.00     0.157 A 
BRANCH   7  10
HETATM   10  C   UNL     1      -1.581  -4.703  -6.246  1.00  0.00     0.079 A 
HETATM   11  C   UNL     1      -0.523  -4.015  -6.864  1.00  0.00     0.062 A 
HETATM   12 CL   UNL     1       0.433  -2.757  -6.166  1.00  0.00    -0.082 Cl
HETATM   13  C   UNL     1      -0.181  -4.310  -8.199  1.00  0.00     0.026 A 
HETATM   14  C   UNL     1      -0.875  -5.270  -8.931  1.00  0.00     0.002 A 
HETATM   15  C   UNL     1      -1.925  -5.951  -8.337  1.00  0.00     0.002 A 
HETATM   16  C   UNL     1      -2.273  -5.672  -7.013  1.00  0.00     0.033 A 
ENDBRANCH   7  10
ENDBRANCH   2   5
BRANCH   1  17
HETATM   17  C   UNL     1      -1.199  -1.469  -0.146  1.00  0.00     0.147 C 
HETATM   18  C   UNL     1       0.217  -1.094   0.189  1.00  0.00    -0.027 A 
HETATM   19  C   UNL     1       0.319   0.272   0.475  1.00  0.00    -0.047 A 
HETATM   20  C   UNL     1       1.323  -1.926   0.295  1.00  0.00     0.010 A 
HETATM   21  C   UNL     1       1.527   0.835   0.856  1.00  0.00     0.008 A 
HETATM   22  C   UNL     1      -1.014   0.954   0.373  1.00  0.00     0.073 C 
HETATM   23  C   UNL     1       2.647   0.006   0.945  1.00  0.00     0.001 A 
HETATM   24  C   UNL     1       2.545  -1.366   0.670  1.00  0.00     0.001 A 
HETATM   25  C   UNL     1      -1.845  -0.075  -0.414  1.00  0.00     0.149 C 
BRANCH  25  26
HETATM   26  O   UNL     1      -1.799   0.270  -1.812  1.00  0.00    -0.393 OA
HETATM   27  H   UNL     1      -2.313  -0.413  -2.276  1.00  0.00     0.210 HD
ENDBRANCH  25  26
ENDBRANCH   1  17
TORSDOF 4
