REMARK  8 active torsions:
REMARK  status: ('A' for Active; 'I' for Inactive)
REMARK    1  A    between atoms: C_2  and  N_3 
REMARK    2  A    between atoms: C_2  and  C_26 
REMARK       I    between atoms: N_3  and  C_4 
REMARK    3  A    between atoms: C_4  and  C_5 
REMARK    4  A    between atoms: C_5  and  S_6 
REMARK    5  A    between atoms: S_6  and  C_7 
REMARK    6  A    between atoms: C_10  and  C_11 
REMARK    7  A    between atoms: C_11  and  O_12 
REMARK    8  A    between atoms: O_12  and  C_13 
ROOT
HETATM    1  C   UNL     1      -0.287   3.251   0.301  1.00  0.00     0.191 A 
HETATM    2  N   UNL     1      -1.411   3.642  -0.371  1.00  0.00    -0.314 N 
HETATM    3  C   UNL     1      -2.408   2.810  -0.995  1.00  0.00     0.160 C 
HETATM    4  C   UNL     1      -1.432   5.017  -0.285  1.00  0.00     0.154 A 
HETATM    5  N   UNL     1      -0.353   5.419   0.363  1.00  0.00    -0.132 NA
HETATM    6  N   UNL     1       0.359   4.308   0.737  1.00  0.00    -0.123 NA
ENDROOT
BRANCH   1   7
HETATM    7  S   UNL     1       0.156   1.603   0.567  1.00  0.00    -0.081 SA
BRANCH   7   8
HETATM    8  C   UNL     1       1.701   1.792   1.499  1.00  0.00     0.185 C 
BRANCH   8   9
HETATM    9  C   UNL     1       2.839   2.174   0.571  1.00  0.00     0.227 C 
HETATM   10  N   UNL     1       3.107   3.524   0.530  1.00  0.00    -0.352 N 
HETATM   11  H   UNL     1       2.371   4.151   0.851  1.00  0.00     0.163 HD
HETATM   12  O   UNL     1       3.467   1.340  -0.077  1.00  0.00    -0.273 OA
BRANCH  10  13
HETATM   13  C   UNL     1       4.089   4.083  -0.382  1.00  0.00     0.113 C 
HETATM   14  C   UNL     1       3.513   4.228  -1.792  1.00  0.00     0.037 C 
BRANCH  13  15
HETATM   15  C   UNL     1       4.608   5.402   0.161  1.00  0.00    -0.036 A 
HETATM   16  C   UNL     1       5.953   5.515   0.551  1.00  0.00     0.009 A 
HETATM   17  C   UNL     1       6.450   6.717   1.059  1.00  0.00     0.001 A 
HETATM   18  C   UNL     1       5.610   7.820   1.188  1.00  0.00     0.000 A 
HETATM   19  C   UNL     1       4.272   7.723   0.812  1.00  0.00     0.001 A 
HETATM   20  C   UNL     1       3.772   6.522   0.304  1.00  0.00     0.009 A 
ENDBRANCH  13  15
ENDBRANCH  10  13
ENDBRANCH   8   9
ENDBRANCH   7   8
ENDBRANCH   1   7
BRANCH   4  21
HETATM   21  C   UNL     1      -2.539   5.882  -0.783  1.00  0.00     0.256 C 
BRANCH  21  22
HETATM   22  O   UNL     1      -2.522   5.809  -2.206  1.00  0.00    -0.344 OA
BRANCH  22  23
HETATM   23  C   UNL     1      -3.511   6.478  -2.874  1.00  0.00     0.069 A 
HETATM   24  C   UNL     1      -4.589   7.151  -2.295  1.00  0.00     0.044 A 
HETATM   25  C   UNL     1      -5.551   7.793  -3.097  1.00  0.00    -0.049 A 
HETATM   26  C   UNL     1      -5.435   7.743  -4.497  1.00  0.00    -0.052 A 
HETATM   27  C   UNL     1      -6.727   8.467  -2.431  1.00  0.00     0.039 C 
HETATM   28  C   UNL     1      -6.422   8.445  -5.398  1.00  0.00     0.039 C 
HETATM   29  C   UNL     1      -4.343   7.078  -5.070  1.00  0.00     0.010 A 
HETATM   30  C   UNL     1      -7.739   8.782  -4.702  1.00  0.00     0.005 C 
HETATM   31  C   UNL     1      -7.474   9.431  -3.350  1.00  0.00     0.005 C 
HETATM   32  C   UNL     1      -3.395   6.448  -4.263  1.00  0.00     0.037 A 
ENDBRANCH  22  23
ENDBRANCH  21  22
ENDBRANCH   4  21
TORSDOF 8
