REMARK  2 active torsions:
REMARK  status: ('A' for Active; 'I' for Inactive)
REMARK    1  A    between atoms: C_5  and  O_6 
REMARK    2  A    between atoms: C_5  and  C_7 
ROOT
HETATM    1  C   UNL     1       1.190  -0.254   0.241  1.00  0.00     0.050 C 
HETATM    2  C   UNL     1       2.655  -0.065  -0.001  1.00  0.00    -0.034 A 
HETATM    3  C   UNL     1       3.282   1.165   0.143  1.00  0.00     0.052 A 
HETATM    4  C   UNL     1       4.659   1.351  -0.052  1.00  0.00     0.039 A 
HETATM    5  C   UNL     1       5.001   2.804   0.149  1.00  0.00     0.200 A 
HETATM    6  C   UNL     1       3.598   3.415   0.502  1.00  0.00     0.266 A 
HETATM    7  O   UNL     1       3.309   4.581   0.735  1.00  0.00    -0.269 OA
HETATM    8  N   UNL     1       2.679   2.369   0.481  1.00  0.00    -0.323 N 
HETATM    9  C   UNL     1       5.447   0.277  -0.431  1.00  0.00     0.046 A 
HETATM   10 CL   UNL     1       7.131   0.442  -0.740  1.00  0.00    -0.084 Cl
HETATM   11  C   UNL     1       4.850  -0.981  -0.564  1.00  0.00     0.025 A 
HETATM   12  C   UNL     1       3.471  -1.151  -0.344  1.00  0.00     0.011 A 
HETATM   13  H   UNL     1       1.697   2.517   0.658  1.00  0.00     0.169 HD
ENDROOT
BRANCH   5  14
HETATM   14  O   UNL     1       5.502   3.293  -1.092  1.00  0.00    -0.371 OA
HETATM   15  H   UNL     1       6.470   3.227  -1.025  1.00  0.00     0.212 HD
ENDBRANCH   5  14
BRANCH   5  16
HETATM   16  C   UNL     1       5.961   2.999   1.312  1.00  0.00     0.025 A 
HETATM   17  C   UNL     1       6.157   2.195   2.504  1.00  0.00     0.003 A 
HETATM   18  C   UNL     1       7.158   2.804   3.263  1.00  0.00     0.043 A 
HETATM   19  C   UNL     1       5.587   1.010   3.027  1.00  0.00     0.014 A 
HETATM   20  C   UNL     1       7.628   2.289   4.479  1.00  0.00     0.030 A 
HETATM   21  N   UNL     1       7.533   3.945   2.604  1.00  0.00    -0.359 N 
HETATM   22  C   UNL     1       7.056   1.108   4.952  1.00  0.00     0.002 A 
HETATM   23  C   UNL     1       6.045   0.477   4.239  1.00  0.00     0.001 A 
HETATM   24  H   UNL     1       8.222   4.598   2.950  1.00  0.00     0.166 HD
HETATM   25  C   UNL     1       6.803   4.105   1.458  1.00  0.00     0.016 A 
HETATM   26  C   UNL     1       6.966   5.331   0.627  1.00  0.00     0.069 C 
ENDBRANCH   5  16
TORSDOF 2
