REMARK  4 active torsions:
REMARK  status: ('A' for Active; 'I' for Inactive)
REMARK    1  A    between atoms: N_7  and  C_8 
REMARK    2  A    between atoms: C_14  and  C_15 
REMARK    3  A    between atoms: C_15  and  N_16 
REMARK       I    between atoms: N_16  and  C_17 
REMARK       I    between atoms: C_17  and  N_18 
REMARK    4  A    between atoms: N_18  and  C_19 
ROOT
HETATM    1  C   UNL     1       1.236   2.611  -0.095  1.00  0.00     0.186 C 
ENDROOT
BRANCH   1   2
HETATM    2  C   UNL     1       1.363   1.091  -0.056  1.00  0.00     0.084 C 
HETATM    3  C   UNL     1       0.179   0.287  -0.428  1.00  0.00     0.008 A 
HETATM    4  C   UNL     1      -1.065   0.853  -0.741  1.00  0.00     0.014 A 
HETATM    5  C   UNL     1       0.335  -1.093  -0.462  1.00  0.00     0.046 A 
HETATM    6  C   UNL     1      -2.138   0.032  -1.099  1.00  0.00     0.001 A 
HETATM    7  C   UNL     1      -1.975  -1.351  -1.144  1.00  0.00     0.001 A 
HETATM    8  C   UNL     1      -0.741  -1.916  -0.825  1.00  0.00     0.018 A 
HETATM    9  C   UNL     1       1.632  -1.687  -0.098  1.00  0.00     0.275 C 
HETATM   10  O   UNL     1       1.777  -2.904  -0.192  1.00  0.00    -0.266 OA
HETATM   11  N   UNL     1       2.616  -0.809   0.358  1.00  0.00    -0.229 N 
HETATM   12  N   UNL     1       2.491   0.563   0.321  1.00  0.00    -0.171 NA
BRANCH  11  13
HETATM   13  C   UNL     1       3.932  -1.346   0.702  1.00  0.00     0.114 C 
HETATM   14  C   UNL     1       4.931  -1.238  -0.452  1.00  0.00     0.027 C 
HETATM   15  C   UNL     1       6.271  -1.379   0.248  1.00  0.00     0.002 C 
HETATM   16  C   UNL     1       6.102  -0.543   1.508  1.00  0.00     0.002 C 
HETATM   17  C   UNL     1       4.627  -0.672   1.896  1.00  0.00     0.027 C 
ENDBRANCH  11  13
ENDBRANCH   1   2
BRANCH   1  18
HETATM   18  N   UNL     1       2.512   3.283   0.013  1.00  0.00    -0.337 N 
HETATM   19  C   UNL     1       2.545   4.651  -0.059  1.00  0.00     0.317 C 
HETATM   20  N   UNL     1       3.807   5.136   0.155  1.00  0.00    -0.334 N 
HETATM   21  O   UNL     1       1.555   5.327  -0.299  1.00  0.00    -0.247 OA
HETATM   22  H   UNL     1       4.531   4.474  -0.084  1.00  0.00     0.165 HD
HETATM   23  H   UNL     1       3.213   2.822   0.579  1.00  0.00     0.164 HD
BRANCH  20  24
HETATM   24  C   UNL     1       4.163   6.557   0.030  1.00  0.00     0.035 C 
HETATM   25  C   UNL     1       3.330   7.457   0.980  1.00  0.00     0.035 C 
HETATM   26  C   UNL     1       3.760   8.930   0.849  1.00  0.00    -0.012 C 
HETATM   27  C   UNL     1       3.561   9.387  -0.606  1.00  0.00     0.009 C 
HETATM   28  C   UNL     1       5.243   9.061   1.225  1.00  0.00     0.009 C 
HETATM   29  C   UNL     1       4.415   8.527  -1.553  1.00  0.00    -0.012 C 
HETATM   30  C   UNL     1       3.985   7.055  -1.426  1.00  0.00     0.035 C 
HETATM   31  C   UNL     1       5.896   8.658  -1.161  1.00  0.00     0.009 C 
HETATM   32  C   UNL     1       6.099   8.193   0.290  1.00  0.00    -0.012 C 
HETATM   33  C   UNL     1       5.657   6.725   0.417  1.00  0.00     0.035 C 
ENDBRANCH  20  24
ENDBRANCH   1  18
TORSDOF 4
