REMARK  5 active torsions:
REMARK  status: ('A' for Active; 'I' for Inactive)
REMARK    1  A    between atoms: C_6  and  O_7 
REMARK    2  A    between atoms: O_7  and  C_8 
REMARK    3  A    between atoms: C_8  and  C_9 
REMARK       I    between atoms: C_9  and  N_10 
REMARK    4  A    between atoms: N_10  and  N_11 
REMARK    5  A    between atoms: C_12  and  C_13 
ROOT
HETATM    1  C   UNL     1       8.914  -0.898  -0.826  1.00  0.00     0.261 C 
HETATM    2  N   UNL     1       9.206   0.414  -1.170  1.00  0.00    -0.246 N 
HETATM    3  O   UNL     1       9.734  -1.813  -0.753  1.00  0.00    -0.269 OA
HETATM    4  H   UNL     1       8.456   1.096  -1.233  1.00  0.00     0.192 HD
ENDROOT
BRANCH   2   5
HETATM    5  N   UNL     1      10.495   0.756  -1.455  1.00  0.00    -0.184 NA
HETATM    6  C   UNL     1      10.734   2.006  -1.677  1.00  0.00     0.152 C 
BRANCH   6   7
HETATM    7  C   UNL     1      12.095   2.413  -1.970  1.00  0.00     0.011 A 
HETATM    8  C   UNL     1      12.605   3.743  -2.131  1.00  0.00     0.004 A 
HETATM    9  C   UNL     1      13.974   3.635  -2.390  1.00  0.00     0.043 A 
HETATM   10  C   UNL     1      12.039   5.034  -2.070  1.00  0.00     0.014 A 
HETATM   11  C   UNL     1      14.801   4.747  -2.592  1.00  0.00     0.030 A 
HETATM   12  N   UNL     1      14.284   2.295  -2.393  1.00  0.00    -0.364 N 
HETATM   13  C   UNL     1      14.214   6.012  -2.525  1.00  0.00     0.002 A 
HETATM   14  C   UNL     1      12.853   6.157  -2.267  1.00  0.00     0.001 A 
HETATM   15  H   UNL     1      15.208   1.918  -2.553  1.00  0.00     0.165 HD
HETATM   16  C   UNL     1      13.166   1.554  -2.139  1.00  0.00     0.102 A 
ENDBRANCH   6   7
ENDBRANCH   2   5
BRANCH   1  17
HETATM   17  C   UNL     1       7.459  -1.113  -0.424  1.00  0.00     0.280 C 
BRANCH  17  18
HETATM   18  O   UNL     1       6.572  -0.235  -1.114  1.00  0.00    -0.342 OA
BRANCH  18  19
HETATM   19  C   UNL     1       5.250  -0.610  -1.058  1.00  0.00     0.075 A 
HETATM   20  C   UNL     1       4.456  -0.305  -2.175  1.00  0.00    -0.028 A 
HETATM   21  C   UNL     1       3.104  -0.692  -2.182  1.00  0.00     0.016 A 
HETATM   22  C   UNL     1       5.040   0.367  -3.385  1.00  0.00     0.051 C 
HETATM   23  C   UNL     1       2.531  -1.339  -1.080  1.00  0.00    -0.061 A 
HETATM   24  C   UNL     1       1.099  -1.784  -1.105  1.00  0.00     0.048 C 
HETATM   25  C   UNL     1       3.329  -1.612   0.034  1.00  0.00     0.009 A 
HETATM   26  C   UNL     1       4.676  -1.242   0.049  1.00  0.00     0.038 A 
ENDBRANCH  18  19
ENDBRANCH  17  18
ENDBRANCH   1  17
TORSDOF 5
