REMARK  4 active torsions:
REMARK  status: ('A' for Active; 'I' for Inactive)
REMARK    1  A    between atoms: S_2  and  N_3 
REMARK    2  A    between atoms: N_3  and  N_4 
REMARK    3  A    between atoms: C_10  and  C_11 
REMARK    4  A    between atoms: C_13  and  O_14 
ROOT
HETATM    1  N   UNL     1       2.467  -0.958   1.830  1.00  0.00    -0.241 N 
HETATM    2  C   UNL     1       1.836  -2.179   2.059  1.00  0.00     0.272 C 
HETATM    3  O   UNL     1       1.980  -3.180   1.359  1.00  0.00    -0.266 OA
HETATM    4  C   UNL     1       0.880  -2.192   3.195  1.00  0.00     0.054 A 
HETATM    5  C   UNL     1       0.645  -0.994   3.889  1.00  0.00     0.026 A 
HETATM    6  N   UNL     1       1.314   0.197   3.539  1.00  0.00    -0.265 NA
HETATM    7  C   UNL     1       2.636  -0.057   2.967  1.00  0.00     0.217 C 
HETATM    8  C   UNL     1       0.191  -3.365   3.527  1.00  0.00     0.019 A 
HETATM    9  C   UNL     1      -0.779  -3.334   4.527  1.00  0.00     0.001 A 
HETATM   10  C   UNL     1      -1.074  -2.133   5.171  1.00  0.00     0.002 A 
HETATM   11  C   UNL     1      -0.375  -0.967   4.845  1.00  0.00     0.024 A 
HETATM   12  H   UNL     1       1.357   0.852   4.315  1.00  0.00     0.130 HD
ENDROOT
BRANCH   7  13
HETATM   13  C   UNL     1       3.308   1.263   2.630  1.00  0.00    -0.017 A 
HETATM   14  C   UNL     1       4.664   1.453   2.955  1.00  0.00     0.047 A 
HETATM   15  C   UNL     1       5.303   2.641   2.615  1.00  0.00     0.066 A 
HETATM   16  C   UNL     1       4.616   3.658   1.966  1.00  0.00     0.036 A 
HETATM   17  C   UNL     1       3.274   3.482   1.631  1.00  0.00     0.003 A 
HETATM   18  C   UNL     1       2.625   2.289   1.953  1.00  0.00     0.011 A 
BRANCH  15  19
HETATM   19  O   UNL     1       6.620   2.842   2.900  1.00  0.00    -0.361 OA
HETATM   20  H   UNL     1       7.013   1.997   3.176  1.00  0.00     0.217 HD
ENDBRANCH  15  19
ENDBRANCH   7  13
BRANCH   1  21
HETATM   21  N   UNL     1       3.529  -0.918   0.773  1.00  0.00    -0.123 NA
HETATM   22  H   UNL     1       3.818   0.030   0.499  1.00  0.00     0.165 HD
BRANCH  21  23
HETATM   23  S   UNL     1       4.958  -1.794   1.079  1.00  0.00     0.222 S 
HETATM   24  C   UNL     1       4.795  -3.189  -0.017  1.00  0.00     0.181 C 
HETATM   25  O   UNL     1       4.952  -2.222   2.463  1.00  0.00    -0.210 OA
HETATM   26  O   UNL     1       6.023  -0.945   0.588  1.00  0.00    -0.210 OA
ENDBRANCH  21  23
ENDBRANCH   1  21
TORSDOF 4
