REMARK  8 active torsions:
REMARK  status: ('A' for Active; 'I' for Inactive)
REMARK    1  A    between atoms: C_2  and  C_3 
REMARK    2  A    between atoms: C_3  and  O_4 
REMARK    3  A    between atoms: O_4  and  C_5 
REMARK    4  A    between atoms: C_7  and  C_8 
REMARK       I    between atoms: C_8  and  N_9 
REMARK    5  A    between atoms: N_9  and  C_10 
REMARK    6  A    between atoms: N_11  and  C_12 
REMARK    7  A    between atoms: C_14  and  C_15 
REMARK    8  A    between atoms: C_24  and  O_25 
ROOT
HETATM    1  C   UNL     1       6.344   2.226   6.311  1.00  0.00     0.035 A 
HETATM    2  C   UNL     1       5.327   2.304   5.355  1.00  0.00     0.046 A 
HETATM    3  C   UNL     1       4.433   1.235   5.145  1.00  0.00     0.036 A 
HETATM    4  C   UNL     1       4.612   0.069   5.921  1.00  0.00     0.084 A 
HETATM    5  C   UNL     1       5.658  -0.049   6.847  1.00  0.00    -0.026 A 
HETATM    6  C   UNL     1       5.823  -1.289   7.679  1.00  0.00     0.051 C 
HETATM    7  C   UNL     1       6.518   1.040   7.032  1.00  0.00     0.039 A 
ENDROOT
BRANCH   1   8
HETATM    8  N   UNL     1       7.272   3.262   6.552  1.00  0.00    -0.333 N 
HETATM    9  C   UNL     1       7.283   4.550   6.144  1.00  0.00     0.179 C 
HETATM   10  S   UNL     1       8.755   5.279   5.815  1.00  0.00    -0.040 SA
HETATM   11  H   UNL     1       8.161   2.948   6.927  1.00  0.00     0.168 HD
BRANCH   9  12
HETATM   12  N   UNL     1       6.164   5.322   6.054  1.00  0.00    -0.299 N 
HETATM   13  C   UNL     1       4.965   5.234   6.755  1.00  0.00     0.257 C 
HETATM   14  O   UNL     1       4.550   4.293   7.416  1.00  0.00    -0.267 OA
HETATM   15  H   UNL     1       6.366   6.231   5.659  1.00  0.00     0.171 HD
BRANCH  13  16
HETATM   16  C   UNL     1       4.100   6.426   6.621  1.00  0.00     0.035 A 
HETATM   17  C   UNL     1       4.551   7.685   7.034  1.00  0.00     0.053 A 
HETATM   18  C   UNL     1       3.680   8.770   6.950  1.00  0.00     0.069 A 
HETATM   19  C   UNL     1       2.378   8.603   6.475  1.00  0.00     0.037 A 
HETATM   20  C   UNL     1       1.940   7.347   6.056  1.00  0.00     0.004 A 
HETATM   21  C   UNL     1       2.798   6.252   6.137  1.00  0.00     0.017 A 
BRANCH  18  22
HETATM   22  O   UNL     1       4.008  10.005   7.434  1.00  0.00    -0.351 OA
BRANCH  22  23
HETATM   23  C   UNL     1       5.088  10.611   6.715  1.00  0.00     0.175 C 
BRANCH  23  24
HETATM   24  C   UNL     1       5.031  12.110   6.996  1.00  0.00     0.022 C 
HETATM   25  C   UNL     1       6.105  12.877   6.246  1.00  0.00     0.007 C 
ENDBRANCH  23  24
ENDBRANCH  22  23
ENDBRANCH  18  22
ENDBRANCH  13  16
ENDBRANCH   9  12
ENDBRANCH   1   8
BRANCH   3  26
HETATM   26  C   UNL     1       3.333   1.305   4.154  1.00  0.00     0.112 A 
HETATM   27  S   UNL     1       3.226   2.547   2.966  1.00  0.00    -0.067 SA
HETATM   28  C   UNL     1       1.799   1.836   2.322  1.00  0.00     0.035 A 
HETATM   29  C   UNL     1       1.491   0.695   3.060  1.00  0.00     0.075 A 
HETATM   30  C   UNL     1       1.007   2.257   1.241  1.00  0.00     0.021 A 
HETATM   31  N   UNL     1       2.372   0.400   4.088  1.00  0.00    -0.239 NA
HETATM   32  C   UNL     1       0.347  -0.052   2.713  1.00  0.00     0.033 A 
HETATM   33  C   UNL     1      -0.451   0.359   1.640  1.00  0.00     0.002 A 
HETATM   34  C   UNL     1      -0.121   1.498   0.913  1.00  0.00     0.002 A 
ENDBRANCH   3  26
BRANCH   4  35
HETATM   35  O   UNL     1       3.774  -1.017   5.807  1.00  0.00    -0.359 OA
HETATM   36  H   UNL     1       3.045  -0.772   5.197  1.00  0.00     0.218 HD
ENDBRANCH   4  35
TORSDOF 8
