REMARK  9 active torsions:
REMARK  status: ('A' for Active; 'I' for Inactive)
REMARK    1  A    between atoms: C_2  and  C_3 
REMARK    2  A    between atoms: C_3  and  O_4 
REMARK    3  A    between atoms: O_4  and  C_5 
REMARK    4  A    between atoms: C_8  and  C_9 
REMARK    5  A    between atoms: N_10  and  N_11 
REMARK       I    between atoms: N_11  and  C_12 
REMARK    6  A    between atoms: C_12  and  C_13 
REMARK    7  A    between atoms: C_17  and  C_18 
REMARK    8  A    between atoms: C_21  and  O_22 
REMARK    9  A    between atoms: O_22  and  C_23 
ROOT
HETATM    1  N   UNL     1       8.134   7.231  -4.104  1.00  0.00    -0.242 N 
HETATM    2  C   UNL     1       9.121   7.092  -5.068  1.00  0.00     0.289 C 
HETATM    3  O   UNL     1       9.628   8.029  -5.679  1.00  0.00    -0.264 OA
HETATM    4  H   UNL     1       7.725   6.418  -3.663  1.00  0.00     0.192 HD
ENDROOT
BRANCH   2   5
HETATM    5  C   UNL     1       9.522   5.733  -5.333  1.00  0.00     0.121 A 
HETATM    6  N   UNL     1      10.408   5.444  -6.333  1.00  0.00    -0.272 N 
HETATM    7  H   UNL     1      10.858   6.110  -6.955  1.00  0.00     0.189 HD
HETATM    8  N   UNL     1      10.665   4.137  -6.481  1.00  0.00    -0.174 NA
HETATM    9  C   UNL     1       9.951   3.539  -5.515  1.00  0.00     0.089 A 
HETATM   10  C   UNL     1       9.214   4.508  -4.775  1.00  0.00     0.071 A 
BRANCH   9  11
HETATM   11  C   UNL     1       9.973   2.085  -5.331  1.00  0.00    -0.005 A 
HETATM   12  C   UNL     1       9.627   1.503  -4.106  1.00  0.00     0.016 A 
HETATM   13  C   UNL     1       9.638   0.112  -3.953  1.00  0.00     0.037 A 
HETATM   14  C   UNL     1       9.987  -0.721  -5.018  1.00  0.00     0.068 A 
HETATM   15  C   UNL     1      10.348  -0.150  -6.237  1.00  0.00     0.037 A 
HETATM   16  C   UNL     1      10.342   1.242  -6.389  1.00  0.00     0.016 A 
BRANCH  14  17
HETATM   17  O   UNL     1       9.945  -2.058  -4.736  1.00  0.00    -0.352 OA
BRANCH  17  18
HETATM   18  C   UNL     1      10.126  -2.954  -5.831  1.00  0.00     0.171 C 
HETATM   19  C   UNL     1       9.927  -4.368  -5.316  1.00  0.00     0.034 C 
ENDBRANCH  17  18
ENDBRANCH  14  17
ENDBRANCH   9  11
ENDBRANCH   2   5
BRANCH   1  20
HETATM   20  N   UNL     1       7.680   8.473  -3.771  1.00  0.00    -0.184 NA
HETATM   21  C   UNL     1       6.720   8.516  -2.905  1.00  0.00     0.150 C 
BRANCH  21  22
HETATM   22  C   UNL     1       6.146   9.802  -2.460  1.00  0.00    -0.017 A 
HETATM   23  C   UNL     1       6.659  11.011  -2.936  1.00  0.00     0.016 A 
HETATM   24  C   UNL     1       6.110  12.224  -2.506  1.00  0.00     0.037 A 
HETATM   25  C   UNL     1       5.048  12.231  -1.601  1.00  0.00     0.068 A 
HETATM   26  C   UNL     1       4.540  11.015  -1.130  1.00  0.00     0.037 A 
HETATM   27  C   UNL     1       5.085   9.799  -1.554  1.00  0.00     0.016 A 
BRANCH  25  28
HETATM   28  O   UNL     1       4.423  13.342  -1.106  1.00  0.00    -0.351 OA
BRANCH  28  29
HETATM   29  C   UNL     1       4.903  14.609  -1.556  1.00  0.00     0.175 C 
BRANCH  29  30
HETATM   30  C   UNL     1       4.062  15.695  -0.891  1.00  0.00     0.022 C 
HETATM   31  C   UNL     1       4.504  17.086  -1.312  1.00  0.00     0.007 C 
ENDBRANCH  29  30
ENDBRANCH  28  29
ENDBRANCH  25  28
ENDBRANCH  21  22
ENDBRANCH   1  20
TORSDOF 9
