REMARK  2 active torsions:
REMARK  status: ('A' for Active; 'I' for Inactive)
REMARK    1  A    between atoms: C_9  and  C_11 
REMARK    2  A    between atoms: C_9  and  O_10 
ROOT
HETATM    1  C   UNL     1       0.935  -0.264   0.215  1.00  0.00     0.048 C 
HETATM    2  C   UNL     1       2.432  -0.147   0.230  1.00  0.00    -0.061 A 
HETATM    3  C   UNL     1       3.048   1.109   0.125  1.00  0.00     0.020 A 
HETATM    4  C   UNL     1       4.435   1.172   0.111  1.00  0.00     0.018 A 
HETATM    5  C   UNL     1       5.192   0.005   0.217  1.00  0.00     0.045 A 
HETATM    6  N   UNL     1       6.546   0.303   0.206  1.00  0.00    -0.323 N 
HETATM    7  C   UNL     1       6.768   1.677   0.083  1.00  0.00     0.266 A 
HETATM    8  O   UNL     1       7.877   2.191   0.070  1.00  0.00    -0.269 OA
HETATM    9  C   UNL     1       5.358   2.372   0.033  1.00  0.00     0.199 A 
HETATM   10  C   UNL     1       4.619  -1.244   0.318  1.00  0.00     0.031 A 
HETATM   11  C   UNL     1       3.223  -1.314   0.319  1.00  0.00     0.009 A 
HETATM   12  H   UNL     1       7.300  -0.364   0.269  1.00  0.00     0.169 HD
ENDROOT
BRANCH   9  13
HETATM   13  C   UNL     1       5.051   3.060  -1.282  1.00  0.00     0.025 A 
HETATM   14  C   UNL     1       4.212   4.228  -1.447  1.00  0.00     0.003 A 
HETATM   15  C   UNL     1       4.149   4.522  -2.808  1.00  0.00     0.043 A 
HETATM   16  C   UNL     1       3.484   5.058  -0.565  1.00  0.00     0.014 A 
HETATM   17  C   UNL     1       3.403   5.588  -3.329  1.00  0.00     0.030 A 
HETATM   18  N   UNL     1       4.927   3.599  -3.455  1.00  0.00    -0.359 N 
HETATM   19  C   UNL     1       2.693   6.386  -2.431  1.00  0.00     0.002 A 
HETATM   20  C   UNL     1       2.733   6.128  -1.065  1.00  0.00     0.001 A 
HETATM   21  H   UNL     1       5.069   3.581  -4.455  1.00  0.00     0.166 HD
HETATM   22  C   UNL     1       5.464   2.700  -2.567  1.00  0.00     0.016 A 
HETATM   23  C   UNL     1       6.317   1.586  -3.064  1.00  0.00     0.069 C 
ENDBRANCH   9  13
BRANCH   9  24
HETATM   24  O   UNL     1       5.169   3.193   1.181  1.00  0.00    -0.371 OA
HETATM   25  H   UNL     1       5.080   2.591   1.938  1.00  0.00     0.212 HD
ENDBRANCH   9  24
TORSDOF 2
