REMARK  7 active torsions:
REMARK  status: ('A' for Active; 'I' for Inactive)
REMARK    1  A    between atoms: C_4  and  C_5 
REMARK    2  A    between atoms: C_10  and  C_11 
REMARK       I    between atoms: C_11  and  N_12 
REMARK    3  A    between atoms: N_12  and  C_13 
REMARK    4  A    between atoms: C_13  and  C_14 
REMARK    5  A    between atoms: C_14  and  C_15 
REMARK    6  A    between atoms: C_15  and  N_16 
REMARK    7  A    between atoms: C_26  and  C_27 
ROOT
HETATM    1  C   UNL     1       3.168  -1.875  -0.247  1.00  0.00     0.125 C 
HETATM    2  N   UNL     1       2.728  -1.859  -1.647  1.00  0.00    -0.365 N 
HETATM    3  C   UNL     1       2.509  -3.011  -2.325  1.00  0.00     0.141 A 
HETATM    4  N   UNL     1       2.452  -4.213  -1.674  1.00  0.00    -0.238 N 
HETATM    5  N   UNL     1       2.143  -5.255  -2.470  1.00  0.00    -0.163 NA
HETATM    6  C   UNL     1       2.082  -4.707  -3.708  1.00  0.00     0.165 A 
HETATM    7  C   UNL     1       2.290  -3.307  -3.646  1.00  0.00     0.092 A 
HETATM    8 BR   UNL     1       2.251  -2.098  -5.076  1.00  0.00    -0.044 Br
HETATM    9  C   UNL     1       2.684  -4.379  -0.249  1.00  0.00     0.221 C 
HETATM   10  C   UNL     1       2.467  -3.042   0.481  1.00  0.00     0.067 C 
HETATM   11  H   UNL     1       2.973  -1.006  -2.153  1.00  0.00     0.162 HD
ENDROOT
BRANCH   6  12
HETATM   12  C   UNL     1       1.816  -5.557  -4.874  1.00  0.00     0.273 C 
HETATM   13  N   UNL     1       1.639  -6.891  -4.562  1.00  0.00    -0.355 N 
HETATM   14  H   UNL     1       1.810  -7.120  -3.580  1.00  0.00     0.162 HD
HETATM   15  O   UNL     1       1.722  -5.162  -6.038  1.00  0.00    -0.266 OA
BRANCH  13  16
HETATM   16  C   UNL     1       1.591  -7.937  -5.554  1.00  0.00     0.124 C 
BRANCH  16  17
HETATM   17  C   UNL     1       0.178  -8.271  -6.033  1.00  0.00     0.047 C 
BRANCH  17  18
HETATM   18  C   UNL     1      -0.655  -7.124  -6.607  1.00  0.00     0.236 C 
BRANCH  18  19
HETATM   19  N   UNL     1       0.038  -6.337  -7.685  1.00  0.00    -0.067 N 
HETATM   20  H   UNL     1       0.903  -5.940  -7.259  1.00  0.00     0.280 HD
HETATM   21  C   UNL     1       0.419  -7.127  -8.923  1.00  0.00     0.261 C 
HETATM   22  C   UNL     1       1.125  -6.211  -9.929  1.00  0.00     0.195 C 
HETATM   23  O   UNL     1       0.302  -5.092 -10.274  1.00  0.00    -0.388 OA
HETATM   24  C   UNL     1       0.005  -4.290  -9.124  1.00  0.00     0.195 C 
HETATM   25  C   UNL     1      -0.772  -5.103  -8.083  1.00  0.00     0.261 C 
ENDBRANCH  18  19
ENDBRANCH  17  18
ENDBRANCH  16  17
ENDBRANCH  13  16
ENDBRANCH   6  12
BRANCH   9  26
HETATM   26  C   UNL     1       4.071  -4.941  -0.023  1.00  0.00     0.409 C 
HETATM   27  F   UNL     1       5.043  -4.160  -0.540  1.00  0.00    -0.169 F 
HETATM   28  F   UNL     1       4.318  -5.058   1.304  1.00  0.00    -0.169 F 
HETATM   29  F   UNL     1       4.213  -6.176  -0.554  1.00  0.00    -0.169 F 
ENDBRANCH   9  26
BRANCH   1  30
HETATM   30  C   UNL     1       2.883  -0.578   0.471  1.00  0.00     0.005 A 
HETATM   31  S   UNL     1       4.014   0.039   1.605  1.00  0.00    -0.104 SA
HETATM   32  C   UNL     1       3.033   1.395   1.946  1.00  0.00     0.050 A 
HETATM   33  C   UNL     1       1.865   1.386   1.217  1.00  0.00     0.008 A 
HETATM   34  C   UNL     1       1.778   0.247   0.366  1.00  0.00     0.017 A 
ENDBRANCH   1  30
TORSDOF 7
