REMARK  7 active torsions:
REMARK  status: ('A' for Active; 'I' for Inactive)
REMARK    1  A    between atoms: C_3  and  C_4 
REMARK    2  A    between atoms: C_4  and  N_5 
REMARK       I    between atoms: N_5  and  C_6 
REMARK    3  A    between atoms: C_6  and  C_7 
REMARK    4  A    between atoms: C_7  and  N_8 
REMARK    5  A    between atoms: C_10  and  C_11 
REMARK    6  A    between atoms: C_11  and  N_12 
REMARK       I    between atoms: N_12  and  C_13 
REMARK       I    between atoms: C_13  and  N_14 
REMARK    7  A    between atoms: N_14  and  C_15 
ROOT
HETATM    1  N   UNL     1       1.278   4.258   0.461  1.00  0.00    -0.057 N 
HETATM    2  H   UNL     1       0.839   4.275  -0.480  1.00  0.00     0.281 HD
HETATM    3  C   UNL     1       1.601   2.773   0.677  1.00  0.00     0.206 C 
HETATM    4  C   UNL     1       0.271   2.005   0.602  1.00  0.00     0.035 C 
HETATM    5  C   UNL     1      -0.769   2.535   1.585  1.00  0.00     0.004 C 
HETATM    6  C   UNL     1      -1.010   4.025   1.376  1.00  0.00     0.028 C 
HETATM    7  C   UNL     1       0.277   4.837   1.417  1.00  0.00     0.236 C 
ENDROOT
BRANCH   1   8
HETATM    8  C   UNL     1       2.507   5.146   0.238  1.00  0.00     0.337 C 
BRANCH   8   9
HETATM    9  C   UNL     1       3.020   5.005  -1.195  1.00  0.00     0.243 C 
HETATM   10  N   UNL     1       4.281   5.479  -1.422  1.00  0.00    -0.355 N 
HETATM   11  H   UNL     1       4.875   5.804  -0.668  1.00  0.00     0.162 HD
HETATM   12  O   UNL     1       2.283   4.520  -2.053  1.00  0.00    -0.272 OA
BRANCH  10  13
HETATM   13  C   UNL     1       4.866   5.493  -2.750  1.00  0.00     0.169 C 
BRANCH  13  14
HETATM   14  C   UNL     1       5.850   6.622  -2.796  1.00  0.00     0.006 A 
HETATM   15  C   UNL     1       7.230   6.599  -2.643  1.00  0.00    -0.047 A 
HETATM   16  C   UNL     1       8.076   5.387  -2.420  1.00  0.00     0.049 C 
HETATM   17  C   UNL     1       7.780   7.921  -2.749  1.00  0.00     0.015 A 
HETATM   18  C   UNL     1       6.823   8.883  -2.967  1.00  0.00     0.051 A 
HETATM   19  S   UNL     1       5.259   8.216  -3.053  1.00  0.00    -0.104 SA
ENDBRANCH  13  14
ENDBRANCH  10  13
ENDBRANCH   8   9
ENDBRANCH   1   8
BRANCH   3  20
HETATM   20  C   UNL     1       2.378   2.525   2.008  1.00  0.00     0.157 C 
BRANCH  20  21
HETATM   21  N   UNL     1       2.602   1.127   2.332  1.00  0.00    -0.341 N 
HETATM   22  C   UNL     1       3.340   0.333   1.471  1.00  0.00     0.320 C 
HETATM   23  N   UNL     1       3.445  -0.949   1.950  1.00  0.00    -0.309 N 
HETATM   24  O   UNL     1       3.765   0.784   0.417  1.00  0.00    -0.247 OA
HETATM   25  H   UNL     1       2.946  -1.154   2.803  1.00  0.00     0.170 HD
HETATM   26  H   UNL     1       2.706   0.891   3.311  1.00  0.00     0.164 HD
BRANCH  23  27
HETATM   27  C   UNL     1       4.073  -2.052   1.336  1.00  0.00     0.036 A 
HETATM   28  C   UNL     1       4.752  -1.986   0.118  1.00  0.00     0.029 A 
HETATM   29  C   UNL     1       5.334  -3.135  -0.429  1.00  0.00     0.002 A 
HETATM   30  C   UNL     1       5.244  -4.355   0.237  1.00  0.00     0.000 A 
HETATM   31  C   UNL     1       4.574  -4.429   1.455  1.00  0.00     0.002 A 
HETATM   32  C   UNL     1       3.991  -3.283   2.001  1.00  0.00     0.029 A 
ENDBRANCH  23  27
ENDBRANCH  20  21
ENDBRANCH   3  20
TORSDOF 7
