REMARK  6 active torsions:
REMARK  status: ('A' for Active; 'I' for Inactive)
REMARK    1  A    between atoms: C_8  and  N_9 
REMARK       I    between atoms: N_9  and  C_10 
REMARK    2  A    between atoms: C_10  and  C_11 
REMARK    3  A    between atoms: C_11  and  N_12 
REMARK    4  A    between atoms: N_12  and  C_15 
REMARK    5  A    between atoms: C_15  and  C_16 
REMARK    6  A    between atoms: C_16  and  C_17 
ROOT
HETATM    1  N   UNL     1      -1.025   1.666  -1.157  1.00  0.00    -0.062 N 
HETATM    2  H   UNL     1      -1.568   2.537  -1.048  1.00  0.00     0.278 HD
HETATM    3  H   UNL     1      -1.758   0.937  -1.201  1.00  0.00     0.278 HD
ENDROOT
BRANCH   1   4
HETATM    4  C   UNL     1      -0.378   1.633  -2.531  1.00  0.00     0.335 C 
BRANCH   4   5
HETATM    5  C   UNL     1      -1.398   1.133  -3.540  1.00  0.00     0.248 C 
HETATM    6  N   UNL     1      -1.290   1.358  -4.871  1.00  0.00    -0.322 N 
HETATM    7  H   UNL     1      -2.139   1.122  -5.378  1.00  0.00     0.169 HD
HETATM    8  O   UNL     1      -2.401   0.559  -3.090  1.00  0.00    -0.271 OA
BRANCH   6   9
HETATM    9  C   UNL     1      -0.289   1.926  -5.638  1.00  0.00     0.085 A 
HETATM   10  C   UNL     1      -0.565   2.409  -6.906  1.00  0.00     0.052 A 
HETATM   11  C   UNL     1      -1.808   2.461  -7.717  1.00  0.00     0.072 C 
HETATM   12  N   UNL     1       0.603   2.937  -7.378  1.00  0.00    -0.280 N 
HETATM   13  H   UNL     1       0.776   3.395  -8.269  1.00  0.00     0.189 HD
HETATM   14  N   UNL     1       1.623   2.802  -6.528  1.00  0.00    -0.177 NA
HETATM   15  C   UNL     1       1.117   2.125  -5.492  1.00  0.00     0.079 A 
HETATM   16  C   UNL     1       2.087   1.649  -4.476  1.00  0.00     0.075 C 
ENDBRANCH   6   9
ENDBRANCH   4   5
ENDBRANCH   1   4
BRANCH   1  17
HETATM   17  C   UNL     1      -0.132   1.454   0.042  1.00  0.00     0.194 C 
HETATM   18  C   UNL     1       0.824   2.648   0.123  1.00  0.00     0.041 C 
BRANCH  17  19
HETATM   19  C   UNL     1      -0.999   1.172   1.334  1.00  0.00     0.007 C 
HETATM   20  C   UNL     1      -1.662  -0.230   1.194  1.00  0.00     0.022 C 
HETATM   21  C   UNL     1      -0.079   1.030   2.577  1.00  0.00     0.022 C 
BRANCH  19  22
HETATM   22  C   UNL     1      -2.051   2.284   1.542  1.00  0.00    -0.048 A 
HETATM   23  C   UNL     1      -3.375   2.155   1.078  1.00  0.00     0.008 A 
HETATM   24  C   UNL     1      -4.307   3.186   1.234  1.00  0.00     0.001 A 
HETATM   25  C   UNL     1      -3.942   4.371   1.861  1.00  0.00     0.000 A 
HETATM   26  C   UNL     1      -2.646   4.524   2.336  1.00  0.00     0.001 A 
HETATM   27  C   UNL     1      -1.713   3.495   2.177  1.00  0.00     0.008 A 
ENDBRANCH  19  22
ENDBRANCH  17  19
ENDBRANCH   1  17
TORSDOF 6
