REMARK  4 active torsions:
REMARK  status: ('A' for Active; 'I' for Inactive)
REMARK    1  A    between atoms: C_2  and  C_3 
REMARK    2  A    between atoms: C_3  and  N_4 
REMARK    3  A    between atoms: C_3  and  C_18 
REMARK       I    between atoms: N_4  and  C_5 
REMARK    4  A    between atoms: C_5  and  C_6 
ROOT
HETATM    1  N   UNL     1       4.363   0.618   1.175  1.00  0.00    -0.344 N 
HETATM    2  C   UNL     1       4.973   0.673   2.406  1.00  0.00     0.273 C 
HETATM    3  O   UNL     1       4.386   0.758   3.474  1.00  0.00    -0.266 OA
HETATM    4  H   UNL     1       4.950   0.890   0.391  1.00  0.00     0.163 HD
ENDROOT
BRANCH   1   5
HETATM    5  C   UNL     1       2.918   0.706   1.023  1.00  0.00     0.158 C 
BRANCH   5   6
HETATM    6  C   UNL     1       2.419   0.032  -0.282  1.00  0.00     0.008 C 
HETATM    7  C   UNL     1       2.587  -1.490  -0.198  1.00  0.00     0.012 C 
HETATM    8  C   UNL     1       3.097   0.542  -1.560  1.00  0.00     0.012 C 
ENDBRANCH   5   6
BRANCH   5   9
HETATM    9  C   UNL     1       2.488   2.146   1.150  1.00  0.00     0.128 A 
HETATM   10  N   UNL     1       1.885   2.902   0.252  1.00  0.00    -0.231 NA
HETATM   11  C   UNL     1       1.681   4.116   0.860  1.00  0.00     0.085 A 
HETATM   12  C   UNL     1       2.168   4.109   2.161  1.00  0.00     0.062 A 
HETATM   13  C   UNL     1       1.081   5.281   0.359  1.00  0.00     0.034 A 
HETATM   14  N   UNL     1       2.657   2.841   2.328  1.00  0.00    -0.341 N 
HETATM   15  C   UNL     1       2.107   5.215   3.010  1.00  0.00     0.032 A 
HETATM   16  H   UNL     1       3.091   2.466   3.163  1.00  0.00     0.167 HD
HETATM   17  C   UNL     1       1.509   6.371   2.492  1.00  0.00     0.002 A 
HETATM   18  C   UNL     1       1.001   6.405   1.191  1.00  0.00     0.002 A 
ENDBRANCH   5   9
ENDBRANCH   1   5
BRANCH   2  19
HETATM   19  C   UNL     1       6.498   0.717   2.336  1.00  0.00     0.155 A 
HETATM   20  N   UNL     1       6.995   1.417   1.354  1.00  0.00    -0.166 NA
HETATM   21  N   UNL     1       8.350   1.518   1.266  1.00  0.00    -0.242 N 
HETATM   22  C   UNL     1       9.261   0.977   2.142  1.00  0.00     0.272 A 
HETATM   23  H   UNL     1       8.719   2.090   0.510  1.00  0.00     0.192 HD
HETATM   24  O   UNL     1      10.468   1.147   2.022  1.00  0.00    -0.266 OA
HETATM   25  C   UNL     1       8.704   0.161   3.235  1.00  0.00     0.046 A 
HETATM   26  C   UNL     1       7.322   0.004   3.333  1.00  0.00     0.016 A 
HETATM   27  C   UNL     1       9.560  -0.461   4.153  1.00  0.00     0.018 A 
HETATM   28  C   UNL     1       6.794  -0.810   4.341  1.00  0.00     0.015 A 
HETATM   29  C   UNL     1       7.648  -1.434   5.257  1.00  0.00     0.001 A 
HETATM   30  C   UNL     1       9.027  -1.256   5.166  1.00  0.00     0.001 A 
ENDBRANCH   2  19
TORSDOF 4
