REMARK  4 active torsions:
REMARK  status: ('A' for Active; 'I' for Inactive)
REMARK    1  A    between atoms: O_2  and  C_3 
REMARK    2  A    between atoms: C_4  and  N_5 
REMARK    3  A    between atoms: N_8  and  C_9 
REMARK    4  A    between atoms: C_9  and  C_10 
ROOT
HETATM    1  N   UNL     1       1.764   2.603  -0.875  1.00  0.00    -0.375 N 
HETATM    2  C   UNL     1       0.932   3.818  -0.834  1.00  0.00     0.153 C 
HETATM    3  C   UNL     1       0.154   3.981  -2.165  1.00  0.00     0.292 C 
HETATM    4  N   UNL     1      -0.671   2.814  -2.574  1.00  0.00     0.095 N 
HETATM    5  C   UNL     1       0.199   1.608  -2.532  1.00  0.00     0.292 C 
HETATM    6  C   UNL     1       0.991   1.388  -1.220  1.00  0.00     0.153 C 
ENDROOT
BRANCH   4   7
HETATM    7  C   UNL     1      -1.851   2.672  -1.697  1.00  0.00     0.313 C 
BRANCH   7   8
HETATM    8  C   UNL     1      -2.862   1.665  -2.206  1.00  0.00    -0.001 A 
HETATM    9  C   UNL     1      -3.144   1.449  -3.566  1.00  0.00     0.070 A 
HETATM   10  C   UNL     1      -4.093   0.551  -4.032  1.00  0.00     0.012 A 
HETATM   11  N   UNL     1      -2.588   2.001  -4.694  1.00  0.00    -0.277 N 
HETATM   12  C   UNL     1      -4.022   0.658  -5.440  1.00  0.00     0.152 A 
HETATM   13  C   UNL     1      -4.842  -0.196  -3.109  1.00  0.00     0.015 A 
HETATM   14  N   UNL     1      -3.107   1.542  -5.848  1.00  0.00    -0.186 NA
HETATM   15  C   UNL     1      -4.605  -0.001  -1.743  1.00  0.00     0.002 A 
HETATM   16  C   UNL     1      -3.642   0.913  -1.305  1.00  0.00     0.011 A 
HETATM   17  H   UNL     1      -1.828   2.675  -4.717  1.00  0.00     0.189 HD
ENDBRANCH   7   8
ENDBRANCH   4   7
BRANCH   1  18
HETATM   18  C   UNL     1       2.744   2.392   0.114  1.00  0.00     0.064 A 
HETATM   19  C   UNL     1       2.797   3.018   1.384  1.00  0.00     0.097 A 
HETATM   20  C   UNL     1       3.815   2.699   2.297  1.00  0.00     0.081 A 
HETATM   21  C   UNL     1       4.813   1.803   1.942  1.00  0.00     0.119 A 
HETATM   22  C   UNL     1       4.820   1.207   0.695  1.00  0.00     0.044 A 
HETATM   23  F   UNL     1       5.781   1.512   2.821  1.00  0.00    -0.206 F 
HETATM   24  C   UNL     1       3.795   1.502  -0.205  1.00  0.00     0.035 A 
BRANCH  19  25
HETATM   25  O   UNL     1       1.786   3.870   1.762  1.00  0.00    -0.354 OA
HETATM   26  C   UNL     1       2.241   5.064   2.396  1.00  0.00     0.210 C 
ENDBRANCH  19  25
ENDBRANCH   1  18
TORSDOF 4
