REMARK  6 active torsions:
REMARK  status: ('A' for Active; 'I' for Inactive)
REMARK    1  A    between atoms: C_9  and  C_10 
REMARK       I    between atoms: C_10  and  N_11 
REMARK    2  A    between atoms: N_11  and  N_12 
REMARK       I    between atoms: N_12  and  C_13 
REMARK       I    between atoms: C_13  and  N_14 
REMARK    3  A    between atoms: N_14  and  C_15 
REMARK    4  A    between atoms: C_15  and  C_16 
REMARK    5  A    between atoms: C_16  and  C_17 
REMARK    6  A    between atoms: C_16  and  C_27 
ROOT
HETATM    1  N   UNL     1      -3.475   3.051  -0.087  1.00  0.00    -0.249 N 
HETATM    2  C   UNL     1      -2.257   3.675   0.054  1.00  0.00     0.334 C 
HETATM    3  N   UNL     1      -2.380   5.043   0.065  1.00  0.00    -0.341 N 
HETATM    4  O   UNL     1      -1.194   3.071   0.133  1.00  0.00    -0.246 OA
HETATM    5  H   UNL     1      -4.336   3.524   0.169  1.00  0.00     0.192 HD
HETATM    6  H   UNL     1      -3.172   5.388  -0.462  1.00  0.00     0.164 HD
ENDROOT
BRANCH   1   7
HETATM    7  N   UNL     1      -3.506   1.649  -0.093  1.00  0.00    -0.261 N 
HETATM    8  C   UNL     1      -4.542   1.034  -0.771  1.00  0.00     0.291 C 
HETATM    9  O   UNL     1      -5.565   1.594  -1.137  1.00  0.00    -0.264 OA
HETATM   10  H   UNL     1      -2.595   1.179  -0.083  1.00  0.00     0.190 HD
BRANCH   8  11
HETATM   11  C   UNL     1      -4.269  -0.443  -1.073  1.00  0.00     0.157 A 
HETATM   12  C   UNL     1      -5.372  -1.414  -1.261  1.00  0.00     0.016 A 
HETATM   13  C   UNL     1      -6.728  -1.105  -1.108  1.00  0.00     0.015 A 
HETATM   14  C   UNL     1      -5.011  -2.718  -1.607  1.00  0.00     0.046 A 
HETATM   15  C   UNL     1      -7.704  -2.084  -1.330  1.00  0.00     0.001 A 
HETATM   16  C   UNL     1      -7.335  -3.376  -1.696  1.00  0.00     0.001 A 
HETATM   17  C   UNL     1      -5.987  -3.698  -1.830  1.00  0.00     0.018 A 
HETATM   18  C   UNL     1      -3.585  -3.068  -1.721  1.00  0.00     0.272 A 
HETATM   19  O   UNL     1      -3.224  -4.200  -2.023  1.00  0.00    -0.266 OA
HETATM   20  N   UNL     1      -2.692  -2.058  -1.457  1.00  0.00    -0.242 N 
HETATM   21  N   UNL     1      -3.008  -0.769  -1.159  1.00  0.00    -0.166 NA
HETATM   22  H   UNL     1      -1.704  -2.283  -1.535  1.00  0.00     0.192 HD
ENDBRANCH   8  11
ENDBRANCH   1   7
BRANCH   3  23
HETATM   23  C   UNL     1      -1.178   5.870   0.029  1.00  0.00     0.139 C 
BRANCH  23  24
HETATM   24  C   UNL     1      -1.461   7.381   0.199  1.00  0.00     0.079 C 
BRANCH  24  25
HETATM   25  C   UNL     1      -0.182   8.187   0.264  1.00  0.00    -0.020 A 
HETATM   26  C   UNL     1       0.217   9.069   1.326  1.00  0.00    -0.001 A 
HETATM   27  C   UNL     1       1.461   9.602   0.986  1.00  0.00     0.042 A 
HETATM   28  C   UNL     1      -0.365   9.465   2.549  1.00  0.00     0.014 A 
HETATM   29  C   UNL     1       2.152  10.505   1.804  1.00  0.00     0.030 A 
HETATM   30  N   UNL     1       1.808   9.076  -0.235  1.00  0.00    -0.365 N 
HETATM   31  C   UNL     1       1.553  10.876   3.010  1.00  0.00     0.002 A 
HETATM   32  C   UNL     1       0.312  10.365   3.380  1.00  0.00     0.001 A 
HETATM   33  H   UNL     1       2.662   9.292  -0.729  1.00  0.00     0.165 HD
HETATM   34  C   UNL     1       0.835   8.222  -0.676  1.00  0.00     0.097 A 
ENDBRANCH  24  25
BRANCH  24  35
HETATM   35  C   UNL     1      -2.386   7.909  -0.889  1.00  0.00    -0.007 A 
HETATM   36  S   UNL     1      -3.767   8.836  -0.457  1.00  0.00    -0.106 SA
HETATM   37  C   UNL     1      -4.237   9.024  -2.088  1.00  0.00     0.050 A 
HETATM   38  C   UNL     1      -3.371   8.394  -2.952  1.00  0.00     0.008 A 
HETATM   39  C   UNL     1      -2.303   7.754  -2.262  1.00  0.00     0.016 A 
ENDBRANCH  24  35
ENDBRANCH  23  24
ENDBRANCH   3  23
TORSDOF 6
