REMARK  6 active torsions:
REMARK  status: ('A' for Active; 'I' for Inactive)
REMARK    1  A    between atoms: O_2  and  C_3 
REMARK    2  A    between atoms: C_7  and  C_8 
REMARK    3  A    between atoms: C_8  and  N_9 
REMARK       I    between atoms: N_9  and  C_10 
REMARK    4  A    between atoms: C_10  and  C_12 
REMARK    5  A    between atoms: N_14  and  C_15 
REMARK    6  A    between atoms: C_23  and  C_27 
ROOT
HETATM    1  C   UNL     1       7.113  -2.953   3.728  1.00  0.00     0.060 C 
HETATM    2  C   UNL     1       7.411  -3.589   2.536  1.00  0.00     0.115 C 
HETATM    3  N   UNL     1       7.398  -4.960   2.723  1.00  0.00    -0.321 N 
HETATM    4  C   UNL     1       6.920  -5.217   4.009  1.00  0.00     0.051 A 
HETATM    5  C   UNL     1       6.542  -6.418   4.653  1.00  0.00     0.043 A 
HETATM    6  C   UNL     1       6.124  -6.390   5.995  1.00  0.00    -0.021 A 
HETATM    7  C   UNL     1       6.063  -5.168   6.665  1.00  0.00     0.013 A 
HETATM    8  C   UNL     1       6.388  -3.972   6.015  1.00  0.00     0.016 A 
HETATM    9  C   UNL     1       6.800  -3.986   4.665  1.00  0.00     0.008 A 
ENDROOT
BRANCH   1  10
HETATM   10  C   UNL     1       7.140  -1.513   3.982  1.00  0.00     0.254 C 
HETATM   11  N   UNL     1       6.980  -0.728   2.862  1.00  0.00    -0.353 N 
HETATM   12  H   UNL     1       6.648  -1.164   2.015  1.00  0.00     0.163 HD
HETATM   13  O   UNL     1       7.284  -1.049   5.108  1.00  0.00    -0.268 OA
BRANCH  11  14
HETATM   14  C   UNL     1       6.916   0.711   2.949  1.00  0.00     0.161 C 
BRANCH  14  15
HETATM   15  C   UNL     1       5.498   1.195   3.101  1.00  0.00    -0.038 A 
HETATM   16  C   UNL     1       4.910   1.279   4.370  1.00  0.00     0.009 A 
HETATM   17  C   UNL     1       3.597   1.724   4.511  1.00  0.00     0.003 A 
HETATM   18  C   UNL     1       2.851   2.087   3.387  1.00  0.00     0.037 A 
HETATM   19  C   UNL     1       3.417   2.001   2.115  1.00  0.00     0.068 A 
HETATM   20  C   UNL     1       4.734   1.549   1.979  1.00  0.00     0.045 A 
BRANCH  19  21
HETATM   21  O   UNL     1       2.799   2.321   0.937  1.00  0.00    -0.356 OA
HETATM   22  C   UNL     1       1.485   2.858   1.030  1.00  0.00     0.210 C 
ENDBRANCH  19  21
ENDBRANCH  14  15
ENDBRANCH  11  14
ENDBRANCH   1  10
BRANCH   3  23
HETATM   23  C   UNL     1       7.844  -5.906   1.748  1.00  0.00     0.039 A 
HETATM   24  C   UNL     1       8.427  -7.118   2.142  1.00  0.00     0.030 A 
HETATM   25  C   UNL     1       8.886  -8.025   1.183  1.00  0.00     0.002 A 
HETATM   26  C   UNL     1       8.774  -7.727  -0.173  1.00  0.00     0.000 A 
HETATM   27  C   UNL     1       8.211  -6.517  -0.573  1.00  0.00     0.002 A 
HETATM   28  C   UNL     1       7.754  -5.604   0.381  1.00  0.00     0.030 A 
ENDBRANCH   3  23
BRANCH   6  29
HETATM   29  C   UNL     1       5.750  -7.629   6.659  1.00  0.00     0.010 A 
HETATM   30  C   UNL     1       5.233  -8.840   6.139  1.00  0.00     0.152 A 
HETATM   31  N   UNL     1       5.035  -9.767   7.081  1.00  0.00    -0.187 NA
HETATM   32  N   UNL     1       5.423  -9.153   8.209  1.00  0.00    -0.289 N 
HETATM   33  H   UNL     1       5.366  -9.669   9.081  1.00  0.00     0.188 HD
HETATM   34  C   UNL     1       5.862  -7.876   8.012  1.00  0.00     0.123 A 
ENDBRANCH   6  29
TORSDOF 6
