REMARK  5 active torsions:
REMARK  status: ('A' for Active; 'I' for Inactive)
REMARK    1  A    between atoms: C_2  and  O_3 
REMARK    2  A    between atoms: O_3  and  C_4 
REMARK    3  A    between atoms: C_5  and  C_6 
REMARK       I    between atoms: C_6  and  N_7 
REMARK    4  A    between atoms: N_10  and  C_11 
REMARK    5  A    between atoms: C_15  and  C_16 
ROOT
HETATM    1  C   UNL     1       3.971   3.813  -0.715  1.00  0.00     0.256 C 
HETATM    2  N   UNL     1       2.572   3.836  -0.722  1.00  0.00    -0.346 N 
HETATM    3  C   UNL     1       1.745   4.857  -0.055  1.00  0.00     0.146 C 
HETATM    4  C   UNL     1       0.888   4.311   1.104  1.00  0.00     0.144 C 
HETATM    5  N   UNL     1      -0.218   3.468   0.617  1.00  0.00    -0.365 N 
HETATM    6  C   UNL     1       0.046   2.037   0.423  1.00  0.00     0.126 C 
HETATM    7  C   UNL     1       1.444   1.722  -0.110  1.00  0.00     0.040 C 
HETATM    8  C   UNL     1       1.875   2.657  -1.238  1.00  0.00     0.127 C 
HETATM    9  O   UNL     1       4.636   2.851  -1.095  1.00  0.00    -0.267 OA
ENDROOT
BRANCH   5  10
HETATM   10  C   UNL     1      -1.422   4.034   0.295  1.00  0.00     0.122 A 
HETATM   11  N   UNL     1      -2.557   3.307   0.045  1.00  0.00    -0.262 N 
HETATM   12  H   UNL     1      -2.670   2.303   0.097  1.00  0.00     0.191 HD
HETATM   13  N   UNL     1      -3.626   4.038  -0.304  1.00  0.00    -0.173 NA
HETATM   14  C   UNL     1      -3.196   5.308  -0.241  1.00  0.00     0.090 A 
HETATM   15  C   UNL     1      -1.828   5.345   0.152  1.00  0.00     0.084 A 
BRANCH  14  16
HETATM   16  C   UNL     1      -4.082   6.432  -0.569  1.00  0.00    -0.005 A 
HETATM   17  C   UNL     1      -3.759   7.747  -0.195  1.00  0.00     0.017 A 
HETATM   18  C   UNL     1      -4.607   8.809  -0.525  1.00  0.00     0.043 A 
HETATM   19  C   UNL     1      -5.779   8.561  -1.229  1.00  0.00     0.116 A 
HETATM   20  F   UNL     1      -6.587   9.581  -1.546  1.00  0.00    -0.206 F 
HETATM   21  C   UNL     1      -6.123   7.271  -1.608  1.00  0.00     0.043 A 
HETATM   22  C   UNL     1      -5.277   6.209  -1.277  1.00  0.00     0.017 A 
ENDBRANCH  14  16
ENDBRANCH   5  10
BRANCH   1  23
HETATM   23  C   UNL     1       4.704   5.026  -0.296  1.00  0.00     0.065 A 
HETATM   24  C   UNL     1       5.585   4.989   0.790  1.00  0.00     0.084 A 
HETATM   25  C   UNL     1       6.277   6.147   1.157  1.00  0.00     0.038 A 
HETATM   26  C   UNL     1       6.127   7.319   0.412  1.00  0.00     0.003 A 
HETATM   27  C   UNL     1       5.282   7.342  -0.698  1.00  0.00     0.001 A 
HETATM   28  C   UNL     1       4.573   6.196  -1.058  1.00  0.00     0.020 A 
BRANCH  24  29
HETATM   29  O   UNL     1       5.702   3.839   1.527  1.00  0.00    -0.350 OA
BRANCH  29  30
HETATM   30  C   UNL     1       7.054   3.364   1.564  1.00  0.00     0.171 C 
HETATM   31  C   UNL     1       7.028   1.854   1.710  1.00  0.00     0.034 C 
ENDBRANCH  29  30
ENDBRANCH  24  29
ENDBRANCH   1  23
TORSDOF 5
