REMARK  7 active torsions:
REMARK  status: ('A' for Active; 'I' for Inactive)
REMARK    1  A    between atoms: N_3  and  N_4 
REMARK       I    between atoms: N_4  and  C_5 
REMARK    2  A    between atoms: C_5  and  C_6 
REMARK    3  A    between atoms: C_9  and  O_10 
REMARK    4  A    between atoms: O_10  and  C_11 
REMARK    5  A    between atoms: C_11  and  C_12 
REMARK       I    between atoms: C_12  and  N_13 
REMARK    6  A    between atoms: N_13  and  C_14 
REMARK    7  A    between atoms: C_15  and  O_16 
ROOT
HETATM    1  C   UNL     1       5.038   3.658   0.128  1.00  0.00     0.033 A 
HETATM    2  C   UNL     1       5.865   4.435   0.946  1.00  0.00     0.020 A 
HETATM    3  C   UNL     1       7.209   4.084   1.104  1.00  0.00     0.038 A 
HETATM    4  C   UNL     1       7.730   2.955   0.466  1.00  0.00     0.069 A 
HETATM    5  C   UNL     1       6.909   2.201  -0.375  1.00  0.00     0.038 A 
HETATM    6  C   UNL     1       5.567   2.555  -0.548  1.00  0.00     0.020 A 
ENDROOT
BRANCH   4   7
HETATM    7  O   UNL     1       9.050   2.699   0.726  1.00  0.00    -0.342 OA
BRANCH   7   8
HETATM    8  C   UNL     1       9.472   1.346   0.587  1.00  0.00     0.278 C 
BRANCH   8   9
HETATM    9  C   UNL     1       8.785   0.381   1.560  1.00  0.00     0.246 C 
HETATM   10  N   UNL     1       8.913   0.786   2.874  1.00  0.00    -0.323 N 
HETATM   11  H   UNL     1       9.508   1.588   3.065  1.00  0.00     0.169 HD
HETATM   12  O   UNL     1       8.220  -0.631   1.156  1.00  0.00    -0.271 OA
BRANCH  10  13
HETATM   13  C   UNL     1       8.310   0.233   4.023  1.00  0.00     0.068 A 
HETATM   14  C   UNL     1       8.714   0.749   5.272  1.00  0.00     0.095 A 
HETATM   15  C   UNL     1       8.117   0.278   6.445  1.00  0.00     0.039 A 
HETATM   16  C   UNL     1       7.133  -0.710   6.381  1.00  0.00     0.003 A 
HETATM   17  C   UNL     1       6.743  -1.229   5.149  1.00  0.00     0.002 A 
HETATM   18  C   UNL     1       7.330  -0.760   3.971  1.00  0.00     0.032 A 
BRANCH  14  19
HETATM   19  O   UNL     1       9.689   1.720   5.230  1.00  0.00    -0.354 OA
HETATM   20  C   UNL     1      10.395   1.955   6.445  1.00  0.00     0.210 C 
ENDBRANCH  14  19
ENDBRANCH  10  13
ENDBRANCH   8   9
ENDBRANCH   7   8
ENDBRANCH   4   7
BRANCH   1  21
HETATM   21  C   UNL     1       3.601   3.985  -0.058  1.00  0.00     0.270 C 
HETATM   22  N   UNL     1       2.959   4.416   1.078  1.00  0.00    -0.259 N 
HETATM   23  H   UNL     1       3.363   4.350   1.999  1.00  0.00     0.191 HD
HETATM   24  O   UNL     1       3.083   3.825  -1.156  1.00  0.00    -0.266 OA
BRANCH  22  25
HETATM   25  N   UNL     1       1.636   4.653   1.049  1.00  0.00    -0.263 N 
HETATM   26  C   UNL     1       1.104   5.913   1.045  1.00  0.00     0.030 A 
HETATM   27  C   UNL     1       1.917   7.142   0.864  1.00  0.00     0.070 C 
HETATM   28  C   UNL     1      -0.260   5.763   1.215  1.00  0.00     0.028 A 
HETATM   29  C   UNL     1      -0.528   4.377   1.356  1.00  0.00     0.028 A 
HETATM   30  C   UNL     1       0.678   3.703   1.273  1.00  0.00     0.030 A 
HETATM   31  C   UNL     1       0.962   2.247   1.346  1.00  0.00     0.070 C 
ENDBRANCH  22  25
ENDBRANCH   1  21
TORSDOF 7
