REMARK  5 active torsions:
REMARK  status: ('A' for Active; 'I' for Inactive)
REMARK    1  A    between atoms: C_2  and  O_3 
REMARK    2  A    between atoms: O_3  and  C_4 
REMARK    3  A    between atoms: C_5  and  N_6 
REMARK       I    between atoms: N_6  and  C_7 
REMARK       I    between atoms: C_7  and  N_8 
REMARK    4  A    between atoms: N_8  and  C_9 
REMARK    5  A    between atoms: C_9  and  C_10 
ROOT
HETATM    1  N   UNL     1       2.647   1.807  -2.460  1.00  0.00    -0.306 N 
HETATM    2  C   UNL     1       1.658   0.913  -2.764  1.00  0.00     0.321 C 
HETATM    3  N   UNL     1       1.887   0.181  -3.899  1.00  0.00    -0.337 N 
HETATM    4  O   UNL     1       0.607   0.740  -2.158  1.00  0.00    -0.247 OA
HETATM    5  H   UNL     1       3.035   2.228  -3.303  1.00  0.00     0.171 HD
HETATM    6  H   UNL     1       1.123  -0.466  -4.045  1.00  0.00     0.164 HD
ENDROOT
BRANCH   1   7
HETATM    7  C   UNL     1       2.704   2.569  -1.276  1.00  0.00     0.069 A 
HETATM    8  C   UNL     1       2.442   2.055   0.003  1.00  0.00     0.096 A 
HETATM    9  C   UNL     1       2.436   2.908   1.111  1.00  0.00     0.039 A 
HETATM   10  C   UNL     1       2.767   4.255   0.966  1.00  0.00     0.003 A 
HETATM   11  C   UNL     1       3.106   4.753  -0.289  1.00  0.00     0.002 A 
HETATM   12  C   UNL     1       3.083   3.912  -1.404  1.00  0.00     0.032 A 
BRANCH   8  13
HETATM   13  O   UNL     1       2.201   0.733   0.277  1.00  0.00    -0.344 OA
BRANCH  13  14
HETATM   14  C   UNL     1       3.325  -0.123   0.016  1.00  0.00     0.121 C 
HETATM   15  C   UNL     1       2.773  -1.533  -0.175  1.00  0.00     0.040 C 
HETATM   16  C   UNL     1       4.299  -0.097   1.192  1.00  0.00     0.040 C 
ENDBRANCH  13  14
ENDBRANCH   8  13
ENDBRANCH   1   7
BRANCH   3  17
HETATM   17  C   UNL     1       3.200  -0.260  -4.338  1.00  0.00     0.183 C 
BRANCH  17  18
HETATM   18  C   UNL     1       4.032   0.749  -5.115  1.00  0.00     0.053 A 
HETATM   19  N   UNL     1       3.801   2.080  -4.945  1.00  0.00    -0.264 NA
HETATM   20  C   UNL     1       4.604   2.951  -5.599  1.00  0.00     0.118 A 
HETATM   21  C   UNL     1       5.656   2.568  -6.405  1.00  0.00     0.043 A 
HETATM   22  C   UNL     1       5.887   1.209  -6.551  1.00  0.00     0.037 A 
HETATM   23 CL   UNL     1       7.194   0.664  -7.528  1.00  0.00    -0.084 Cl
HETATM   24  C   UNL     1       5.078   0.281  -5.905  1.00  0.00     0.052 A 
ENDBRANCH  17  18
ENDBRANCH   3  17
TORSDOF 5
