REMARK  7 active torsions:
REMARK  status: ('A' for Active; 'I' for Inactive)
REMARK    1  A    between atoms: C_4  and  N_5 
REMARK    2  A    between atoms: N_8  and  C_10 
REMARK    3  A    between atoms: C_10  and  C_11 
REMARK    4  A    between atoms: C_11  and  C_12 
REMARK    5  A    between atoms: C_12  and  C_13 
REMARK    6  A    between atoms: C_13  and  N_14 
REMARK       I    between atoms: N_14  and  C_15 
REMARK    7  A    between atoms: C_15  and  C_16 
ROOT
HETATM    1  C   UNL     1       6.501   9.770   1.815  1.00  0.00     0.123 C 
ENDROOT
BRANCH   1   2
HETATM    2  C   UNL     1       6.535   8.343   2.365  1.00  0.00     0.021 C 
BRANCH   2   3
HETATM    3  C   UNL     1       6.349   7.312   1.249  1.00  0.00     0.029 C 
BRANCH   3   4
HETATM    4  C   UNL     1       6.249   5.898   1.819  1.00  0.00     0.235 C 
BRANCH   4   5
HETATM    5  N   UNL     1       6.279   4.873   0.710  1.00  0.00    -0.068 N 
HETATM    6  C   UNL     1       6.557   3.463   1.257  1.00  0.00     0.254 C 
HETATM    7  C   UNL     1       6.703   2.453   0.098  1.00  0.00     0.150 C 
HETATM    8  N   UNL     1       5.517   2.492  -0.780  1.00  0.00    -0.378 N 
HETATM    9  C   UNL     1       5.167   3.824  -1.297  1.00  0.00     0.150 C 
HETATM   10  C   UNL     1       5.008   4.846  -0.152  1.00  0.00     0.254 C 
HETATM   11  H   UNL     1       7.063   5.099   0.086  1.00  0.00     0.280 HD
BRANCH   8  12
HETATM   12  C   UNL     1       4.552   1.497  -0.630  1.00  0.00     0.030 A 
HETATM   13  C   UNL     1       3.171   1.759  -0.617  1.00  0.00     0.036 A 
HETATM   14  C   UNL     1       2.215   0.734  -0.485  1.00  0.00    -0.060 A 
HETATM   15  C   UNL     1       0.745   1.043  -0.516  1.00  0.00     0.048 C 
HETATM   16  C   UNL     1       2.641  -0.590  -0.387  1.00  0.00     0.007 A 
HETATM   17  C   UNL     1       3.998  -0.883  -0.412  1.00  0.00     0.003 A 
HETATM   18  C   UNL     1       4.935   0.148  -0.536  1.00  0.00     0.029 A 
ENDBRANCH   8  12
ENDBRANCH   4   5
ENDBRANCH   3   4
ENDBRANCH   2   3
ENDBRANCH   1   2
BRANCH   1  19
HETATM   19  N   UNL     1       6.608  10.763   2.862  1.00  0.00    -0.357 N 
HETATM   20  C   UNL     1       5.528  11.070   3.669  1.00  0.00     0.254 C 
HETATM   21  O   UNL     1       4.468  10.454   3.600  1.00  0.00    -0.268 OA
HETATM   22  H   UNL     1       7.506  11.202   3.014  1.00  0.00     0.162 HD
BRANCH  20  23
HETATM   23  C   UNL     1       5.707  12.163   4.661  1.00  0.00     0.064 A 
HETATM   24  C   UNL     1       4.846  12.270   5.740  1.00  0.00     0.077 A 
HETATM   25  C   UNL     1       4.978  13.278   6.700  1.00  0.00     0.065 A 
HETATM   26  N   UNL     1       3.747  11.488   6.105  1.00  0.00    -0.330 N 
HETATM   27  N   UNL     1       3.969  13.112   7.648  1.00  0.00    -0.331 N 
HETATM   28  C   UNL     1       5.961  14.234   6.633  1.00  0.00     0.074 A 
HETATM   29  C   UNL     1       3.194  12.006   7.278  1.00  0.00     0.176 A 
HETATM   30  H   UNL     1       3.794  13.693   8.455  1.00  0.00     0.168 HD
HETATM   31  S   UNL     1       1.875  11.427   8.076  1.00  0.00    -0.041 SA
HETATM   32  C   UNL     1       6.823  14.149   5.542  1.00  0.00     0.119 A 
HETATM   33  F   UNL     1       7.796  15.060   5.409  1.00  0.00    -0.206 F 
HETATM   34  C   UNL     1       6.709  13.140   4.564  1.00  0.00     0.061 A 
HETATM   35  H   UNL     1       3.390  10.710   5.562  1.00  0.00     0.168 HD
ENDBRANCH  20  23
ENDBRANCH   1  19
TORSDOF 7
