REMARK  10 active torsions:
REMARK  status: ('A' for Active; 'I' for Inactive)
REMARK    1  A    between atoms: C_4  and  C_5 
REMARK    2  A    between atoms: C_8  and  O_9 
REMARK    3  A    between atoms: C_14  and  C_15 
REMARK    4  A    between atoms: C_18  and  C_19 
REMARK    5  A    between atoms: C_19  and  N_20 
REMARK    6  A    between atoms: N_20  and  C_21 
REMARK    7  A    between atoms: C_21  and  N_22 
REMARK    8  A    between atoms: N_22  and  C_23 
REMARK    9  A    between atoms: C_25  and  C_26 
REMARK   10  A    between atoms: C_26  and  O_27 
ROOT
HETATM    1  C   UNL     1       2.735  -2.402   0.864  1.00  0.00     0.067 C 
HETATM    2  C   UNL     1       2.596  -3.626  -0.061  1.00  0.00     0.001 C 
HETATM    3  C   UNL     1       1.142  -3.832  -0.533  1.00  0.00     0.040 C 
HETATM    4  C   UNL     1       0.188  -4.110   0.639  1.00  0.00     0.206 C 
HETATM    5  N   UNL     1       0.970  -3.824   1.919  1.00  0.00    -0.065 N 
HETATM    6  H   UNL     1       0.336  -3.888   2.728  1.00  0.00     0.280 HD
HETATM    7  C   UNL     1       1.598  -2.427   1.910  1.00  0.00     0.246 C 
HETATM    8  C   UNL     1       2.930  -4.866   0.812  1.00  0.00     0.033 C 
HETATM    9  C   UNL     1       2.061  -4.878   2.079  1.00  0.00     0.236 C 
ENDROOT
BRANCH   4  10
HETATM   10  C   UNL     1      -1.137  -3.316   0.566  1.00  0.00     0.155 C 
BRANCH  10  11
HETATM   11  N   UNL     1      -1.856  -3.540  -0.687  1.00  0.00    -0.365 N 
HETATM   12  H   UNL     1      -2.125  -4.497  -0.899  1.00  0.00     0.161 HD
BRANCH  11  13
HETATM   13  C   UNL     1      -2.646  -2.630  -1.335  1.00  0.00     0.172 C 
HETATM   14  S   UNL     1      -3.063  -1.125  -0.743  1.00  0.00    -0.041 SA
BRANCH  13  15
HETATM   15  N   UNL     1      -3.152  -2.996  -2.550  1.00  0.00    -0.333 N 
HETATM   16  H   UNL     1      -3.889  -2.371  -2.868  1.00  0.00     0.168 HD
BRANCH  15  17
HETATM   17  C   UNL     1      -2.750  -3.972  -3.488  1.00  0.00     0.035 A 
HETATM   18  C   UNL     1      -1.543  -4.668  -3.424  1.00  0.00     0.047 A 
HETATM   19  C   UNL     1      -1.197  -5.615  -4.403  1.00  0.00     0.041 A 
HETATM   20  C   UNL     1      -2.061  -5.845  -5.477  1.00  0.00     0.018 A 
HETATM   21  C   UNL     1      -3.254  -5.128  -5.568  1.00  0.00     0.003 A 
HETATM   22  C   UNL     1      -3.593  -4.197  -4.581  1.00  0.00     0.029 A 
BRANCH  19  23
HETATM   23  C   UNL     1       0.093  -6.337  -4.234  1.00  0.00     0.293 C 
HETATM   24  O   UNL     1       0.781  -6.236  -3.228  1.00  0.00    -0.259 OA
BRANCH  23  25
HETATM   25  O   UNL     1       0.372  -7.087  -5.325  1.00  0.00    -0.323 OA
HETATM   26  C   UNL     1       1.602  -7.809  -5.246  1.00  0.00     0.213 C 
ENDBRANCH  23  25
ENDBRANCH  19  23
ENDBRANCH  15  17
ENDBRANCH  13  15
ENDBRANCH  11  13
ENDBRANCH  10  11
ENDBRANCH   4  10
BRANCH   1  27
HETATM   27  C   UNL     1       2.963  -1.022   0.309  1.00  0.00     0.038 C 
HETATM   28  N   UNL     1       2.584  -0.437  -0.878  1.00  0.00    -0.277 N 
HETATM   29  C   UNL     1       1.957  -0.983  -2.057  1.00  0.00     0.179 C 
HETATM   30  N   UNL     1       2.835   0.882  -0.918  1.00  0.00    -0.172 NA
HETATM   31  C   UNL     1       3.531   1.159   0.187  1.00  0.00     0.089 C 
HETATM   32  C   UNL     1       3.641  -0.008   0.976  1.00  0.00     0.061 C 
BRANCH  31  33
HETATM   33  C   UNL     1       4.020   2.506   0.483  1.00  0.00    -0.005 A 
HETATM   34  C   UNL     1       3.404   3.626  -0.088  1.00  0.00     0.016 A 
HETATM   35  C   UNL     1       3.838   4.916   0.231  1.00  0.00     0.037 A 
HETATM   36  C   UNL     1       4.893   5.112   1.122  1.00  0.00     0.068 A 
HETATM   37  C   UNL     1       5.534   4.003   1.672  1.00  0.00     0.037 A 
HETATM   38  C   UNL     1       5.099   2.708   1.355  1.00  0.00     0.016 A 
BRANCH  36  39
HETATM   39  O   UNL     1       5.205   6.420   1.364  1.00  0.00    -0.356 OA
HETATM   40  C   UNL     1       6.129   6.676   2.414  1.00  0.00     0.210 C 
ENDBRANCH  36  39
ENDBRANCH  31  33
ENDBRANCH   1  27
TORSDOF 10
