REMARK  5 active torsions:
REMARK  status: ('A' for Active; 'I' for Inactive)
REMARK    1  A    between atoms: C_14  and  C_15 
REMARK    2  A    between atoms: C_15  and  C_16 
REMARK    3  A    between atoms: C_16  and  C_17 
REMARK       I    between atoms: C_17  and  N_18 
REMARK    4  A    between atoms: N_21  and  C_22 
REMARK    5  A    between atoms: C_23  and  O_24 
ROOT
HETATM    1  C   UNL     1       5.492   3.886   0.001  1.00  0.00     0.051 C 
ENDROOT
BRANCH   1   2
HETATM    2  C   UNL     1       5.620   2.390  -0.007  1.00  0.00    -0.017 A 
HETATM    3  C   UNL     1       5.941   1.620  -1.180  1.00  0.00    -0.000 A 
HETATM    4  C   UNL     1       6.201   1.950  -2.529  1.00  0.00     0.021 A 
HETATM    5  C   UNL     1       5.996   0.284  -0.807  1.00  0.00     0.043 A 
HETATM    6  C   UNL     1       6.493   0.936  -3.458  1.00  0.00    -0.061 A 
HETATM    7  C   UNL     1       6.807   1.283  -4.884  1.00  0.00     0.048 C 
HETATM    8  C   UNL     1       6.545  -0.395  -3.034  1.00  0.00     0.009 A 
HETATM    9  C   UNL     1       6.294  -0.747  -1.704  1.00  0.00     0.031 A 
HETATM   10  N   UNL     1       5.724   0.238   0.535  1.00  0.00    -0.354 N 
HETATM   11  H   UNL     1       5.706  -0.608   1.087  1.00  0.00     0.166 HD
HETATM   12  C   UNL     1       5.488   1.494   1.051  1.00  0.00     0.057 A 
HETATM   13  C   UNL     1       5.183   1.673   2.452  1.00  0.00     0.032 A 
HETATM   14  S   UNL     1       5.544   0.439   3.603  1.00  0.00    -0.100 SA
HETATM   15  C   UNL     1       4.594   2.755   3.079  1.00  0.00     0.021 A 
HETATM   16  C   UNL     1       4.932   1.359   4.903  1.00  0.00     0.050 A 
HETATM   17  C   UNL     1       4.452   2.578   4.488  1.00  0.00     0.008 A 
ENDBRANCH   1   2
BRANCH   1  18
HETATM   18  C   UNL     1       4.085   4.343  -0.386  1.00  0.00     0.108 C 
BRANCH  18  19
HETATM   19  C   UNL     1       3.986   5.856  -0.455  1.00  0.00     0.220 C 
HETATM   20  N   UNL     1       2.745   6.392  -0.771  1.00  0.00    -0.349 N 
HETATM   21  C   UNL     1       1.569   5.624  -1.198  1.00  0.00     0.145 C 
HETATM   22  C   UNL     1       2.636   7.838  -0.995  1.00  0.00     0.145 C 
HETATM   23  C   UNL     1       0.247   6.213  -0.662  1.00  0.00     0.143 C 
HETATM   24  N   UNL     1       0.138   7.681  -0.807  1.00  0.00    -0.376 N 
HETATM   25  C   UNL     1       1.357   8.416  -0.372  1.00  0.00     0.143 C 
HETATM   26  O   UNL     1       4.963   6.569  -0.228  1.00  0.00    -0.273 OA
BRANCH  24  27
HETATM   27  C   UNL     1      -0.490   8.218  -1.941  1.00  0.00     0.063 A 
HETATM   28  C   UNL     1      -1.183   9.440  -1.818  1.00  0.00     0.092 A 
HETATM   29  C   UNL     1      -1.806  10.069  -2.891  1.00  0.00     0.039 A 
HETATM   30  C   UNL     1      -1.773   9.460  -4.140  1.00  0.00     0.003 A 
HETATM   31  C   UNL     1      -1.127   8.234  -4.294  1.00  0.00     0.002 A 
HETATM   32  C   UNL     1      -0.496   7.617  -3.203  1.00  0.00     0.032 A 
BRANCH  28  33
HETATM   33  O   UNL     1      -1.311  10.012  -0.577  1.00  0.00    -0.358 OA
HETATM   34  H   UNL     1      -1.008   9.301   0.023  1.00  0.00     0.218 HD
ENDBRANCH  28  33
ENDBRANCH  24  27
ENDBRANCH  18  19
ENDBRANCH   1  18
TORSDOF 5
