REMARK  5 active torsions:
REMARK  status: ('A' for Active; 'I' for Inactive)
REMARK    1  A    between atoms: C_2  and  O_3 
REMARK    2  A    between atoms: C_4  and  C_5 
REMARK    3  A    between atoms: C_5  and  O_6 
REMARK    4  A    between atoms: C_9  and  C_10 
REMARK    5  A    between atoms: C_22  and  O_23 
ROOT
HETATM    1  C   UNL     1       2.371   0.133   1.697  1.00  0.00     0.047 C 
HETATM    2  C   UNL     1       2.670   0.036   0.193  1.00  0.00     0.073 C 
HETATM    3  C   UNL     1       3.248   1.363  -0.416  1.00  0.00     0.133 C 
HETATM    4  C   UNL     1       3.777   1.266  -1.890  1.00  0.00     0.074 C 
HETATM    5  C   UNL     1       3.957  -0.142  -2.353  1.00  0.00     0.030 A 
HETATM    6  C   UNL     1       3.880  -1.241  -1.526  1.00  0.00     0.042 A 
HETATM    7  N   UNL     1       4.076  -2.345  -2.306  1.00  0.00    -0.279 N 
HETATM    8  H   UNL     1       4.092  -3.323  -2.033  1.00  0.00     0.189 HD
HETATM    9  N   UNL     1       4.209  -2.037  -3.614  1.00  0.00    -0.149 NA
HETATM   10  C   UNL     1       4.135  -0.712  -3.614  1.00  0.00     0.190 A 
HETATM   11  C   UNL     1       3.557  -1.214  -0.080  1.00  0.00     0.097 C 
ENDROOT
BRANCH   4  12
HETATM   12  C   UNL     1       5.101   1.962  -2.192  1.00  0.00    -0.047 A 
HETATM   13  C   UNL     1       6.340   1.459  -1.744  1.00  0.00     0.027 A 
HETATM   14  C   UNL     1       7.527   2.140  -2.016  1.00  0.00     0.011 A 
HETATM   15 BR   UNL     1       9.169   1.442  -1.391  1.00  0.00    -0.051 Br
HETATM   16  C   UNL     1       7.510   3.328  -2.738  1.00  0.00     0.019 A 
HETATM   17  C   UNL     1       6.294   3.841  -3.188  1.00  0.00     0.002 A 
HETATM   18  C   UNL     1       5.100   3.166  -2.917  1.00  0.00     0.008 A 
ENDBRANCH   4  12
BRANCH   3  19
HETATM   19  C   UNL     1       4.257   2.007   0.513  1.00  0.00     0.266 C 
HETATM   20  O   UNL     1       5.112   1.404   1.147  1.00  0.00    -0.265 OA
BRANCH  19  21
HETATM   21  O   UNL     1       4.072   3.358   0.531  1.00  0.00    -0.326 OA
HETATM   22  C   UNL     1       5.014   4.074   1.330  1.00  0.00     0.213 C 
ENDBRANCH  19  21
ENDBRANCH   3  19
BRANCH   2  23
HETATM   23  O   UNL     1       1.366  -0.182  -0.403  1.00  0.00    -0.389 OA
HETATM   24  H   UNL     1       1.491  -0.466  -1.327  1.00  0.00     0.210 HD
ENDBRANCH   2  23
BRANCH  10  25
HETATM   25  O   UNL     1       4.200  -0.136  -4.808  1.00  0.00    -0.343 OA
HETATM   26  H   UNL     1       4.336  -0.872  -5.429  1.00  0.00     0.219 HD
ENDBRANCH  10  25
TORSDOF 5
