REMARK  5 active torsions:
REMARK  status: ('A' for Active; 'I' for Inactive)
REMARK    1  A    between atoms: C_2  and  O_3 
REMARK    2  A    between atoms: O_3  and  C_4 
REMARK    3  A    between atoms: C_5  and  C_6 
REMARK    4  A    between atoms: N_7  and  N_8 
REMARK       I    between atoms: N_8  and  C_9 
REMARK    5  A    between atoms: C_9  and  C_10 
ROOT
HETATM    1  N   UNL     1       4.774   3.669   0.899  1.00  0.00    -0.243 N 
HETATM    2  C   UNL     1       3.742   4.222   1.649  1.00  0.00     0.274 C 
HETATM    3  O   UNL     1       3.052   3.612   2.462  1.00  0.00    -0.266 OA
HETATM    4  H   UNL     1       5.459   4.318   0.530  1.00  0.00     0.192 HD
ENDROOT
BRANCH   1   5
HETATM    5  N   UNL     1       5.233   2.375   0.942  1.00  0.00    -0.183 NA
HETATM    6  C   UNL     1       4.418   1.429   1.288  1.00  0.00     0.153 C 
BRANCH   6   7
HETATM    7  C   UNL     1       4.879   0.032   1.409  1.00  0.00     0.016 A 
HETATM    8  C   UNL     1       4.207  -0.873   2.238  1.00  0.00     0.080 A 
HETATM    9  C   UNL     1       4.598  -2.214   2.267  1.00  0.00     0.037 A 
HETATM   10  C   UNL     1       5.688  -2.643   1.507  1.00  0.00     0.003 A 
HETATM   11  C   UNL     1       6.384  -1.734   0.710  1.00  0.00     0.001 A 
HETATM   12  C   UNL     1       5.981  -0.398   0.658  1.00  0.00     0.016 A 
BRANCH   8  13
HETATM   13  O   UNL     1       3.142  -0.537   3.031  1.00  0.00    -0.351 OA
BRANCH  13  14
HETATM   14  C   UNL     1       3.523   0.337   4.105  1.00  0.00     0.171 C 
HETATM   15  C   UNL     1       2.840  -0.137   5.374  1.00  0.00     0.034 C 
ENDBRANCH  13  14
ENDBRANCH   8  13
ENDBRANCH   6   7
ENDBRANCH   1   5
BRANCH   2  16
HETATM   16  C   UNL     1       3.569   5.666   1.453  1.00  0.00     0.061 A 
HETATM   17  C   UNL     1       3.955   6.531   0.367  1.00  0.00     0.008 A 
HETATM   18  C   UNL     1       3.586   7.832   0.722  1.00  0.00     0.043 A 
HETATM   19  C   UNL     1       4.572   6.347  -0.893  1.00  0.00     0.015 A 
HETATM   20  C   UNL     1       3.837   8.947  -0.088  1.00  0.00     0.030 A 
HETATM   21  N   UNL     1       2.957   7.763   1.941  1.00  0.00    -0.364 N 
HETATM   22  C   UNL     1       4.478   8.734  -1.310  1.00  0.00     0.002 A 
HETATM   23  C   UNL     1       4.834   7.452  -1.712  1.00  0.00     0.001 A 
HETATM   24  H   UNL     1       2.565   8.555   2.431  1.00  0.00     0.165 HD
HETATM   25  C   UNL     1       2.928   6.472   2.381  1.00  0.00     0.106 A 
ENDBRANCH   2  16
TORSDOF 5
