REMARK  5 active torsions:
REMARK  status: ('A' for Active; 'I' for Inactive)
REMARK    1  A    between atoms: C_9  and  N_10 
REMARK       I    between atoms: N_10  and  C_11 
REMARK    2  A    between atoms: C_11  and  C_12 
REMARK    3  A    between atoms: C_14  and  O_15 
REMARK    4  A    between atoms: O_15  and  C_16 
REMARK    5  A    between atoms: C_16  and  C_17 
ROOT
HETATM    1  C   UNL     1       3.416   4.427   6.929  1.00  0.00    -0.013 A 
HETATM    2  C   UNL     1       2.361   3.867   7.677  1.00  0.00     0.053 A 
HETATM    3  C   UNL     1       2.558   2.704   8.499  1.00  0.00     0.100 C 
HETATM    4  N   UNL     1       2.722   1.775   9.176  1.00  0.00    -0.191 NA
HETATM    5  C   UNL     1       1.085   4.449   7.635  1.00  0.00     0.023 A 
HETATM    6  C   UNL     1       0.852   5.582   6.855  1.00  0.00     0.002 A 
HETATM    7  C   UNL     1       1.888   6.138   6.111  1.00  0.00     0.001 A 
HETATM    8  C   UNL     1       3.161   5.566   6.145  1.00  0.00     0.011 A 
ENDROOT
BRANCH   1   9
HETATM    9  C   UNL     1       4.806   3.831   6.948  1.00  0.00     0.216 C 
BRANCH   9  10
HETATM   10  O   UNL     1       4.747   2.546   6.335  1.00  0.00    -0.347 OA
BRANCH  10  11
HETATM   11  C   UNL     1       5.870   1.770   6.404  1.00  0.00     0.070 A 
HETATM   12  C   UNL     1       5.694   0.449   5.984  1.00  0.00     0.053 A 
HETATM   13  C   UNL     1       6.764  -0.454   5.994  1.00  0.00     0.035 A 
HETATM   14  C   UNL     1       8.030  -0.017   6.402  1.00  0.00     0.017 A 
HETATM   15  C   UNL     1       8.209   1.302   6.821  1.00  0.00     0.004 A 
HETATM   16  C   UNL     1       7.132   2.193   6.824  1.00  0.00     0.037 A 
BRANCH  13  17
HETATM   17  C   UNL     1       6.528  -1.842   5.503  1.00  0.00     0.256 C 
HETATM   18  N   UNL     1       7.327  -2.821   6.073  1.00  0.00    -0.323 N 
HETATM   19  H   UNL     1       7.902  -2.543   6.858  1.00  0.00     0.169 HD
HETATM   20  O   UNL     1       5.665  -2.025   4.652  1.00  0.00    -0.267 OA
BRANCH  18  21
HETATM   21  C   UNL     1       7.410  -4.177   5.691  1.00  0.00     0.035 A 
HETATM   22  C   UNL     1       6.668  -4.729   4.643  1.00  0.00     0.039 A 
HETATM   23  C   UNL     1       6.859  -6.062   4.313  1.00  0.00    -0.022 A 
HETATM   24  C   UNL     1       6.206  -6.829   3.217  1.00  0.00     0.274 C 
HETATM   25  C   UNL     1       7.779  -6.856   4.998  1.00  0.00    -0.025 A 
HETATM   26  N   UNL     1       6.651  -8.271   3.440  1.00  0.00    -0.067 N 
HETATM   27  C   UNL     1       6.898  -9.035   2.189  1.00  0.00     0.270 C 
HETATM   28  H   UNL     1       5.886  -8.720   3.957  1.00  0.00     0.280 HD
HETATM   29  C   UNL     1       7.834  -8.220   4.400  1.00  0.00     0.273 C 
HETATM   30  C   UNL     1       8.519  -6.335   6.045  1.00  0.00     0.012 A 
HETATM   31  C   UNL     1       8.324  -4.991   6.391  1.00  0.00     0.030 A 
ENDBRANCH  18  21
ENDBRANCH  13  17
ENDBRANCH  10  11
ENDBRANCH   9  10
ENDBRANCH   1   9
TORSDOF 5
