REMARK  4 active torsions:
REMARK  status: ('A' for Active; 'I' for Inactive)
REMARK    1  A    between atoms: C_9  and  C_10 
REMARK    2  A    between atoms: C_18  and  C_19 
REMARK       I    between atoms: C_19  and  N_20 
REMARK    3  A    between atoms: N_20  and  C_21 
REMARK    4  A    between atoms: C_24  and  O_25 
ROOT
HETATM    1  C   UNL     1       0.791  -0.146  -1.105  1.00  0.00     0.070 C 
HETATM    2  C   UNL     1       2.175  -0.120  -0.504  1.00  0.00     0.037 C 
HETATM    3  N   UNL     1       2.661   1.144  -0.179  1.00  0.00    -0.192 N 
HETATM    4  C   UNL     1       3.963   1.381   0.079  1.00  0.00     0.725 A 
HETATM    5  N   UNL     1       4.821   0.326   0.222  1.00  0.00    -0.084 N 
HETATM    6  N   UNL     1       6.091   0.744   0.400  1.00  0.00    -0.149 NA
HETATM    7  C   UNL     1       5.917   2.071   0.384  1.00  0.00     0.275 A 
HETATM    8  N   UNL     1       4.627   2.502   0.198  1.00  0.00    -0.054 NA
HETATM    9  C   UNL     1       4.408  -1.081   0.161  1.00  0.00     0.202 C 
HETATM   10  C   UNL     1       2.972  -1.207  -0.343  1.00  0.00     0.062 C 
HETATM   11  H   UNL     1       2.075   1.944  -0.407  1.00  0.00     0.184 HD
ENDROOT
BRANCH  10  12
HETATM   12  C   UNL     1       2.613  -2.587  -0.768  1.00  0.00     0.256 C 
HETATM   13  N   UNL     1       1.420  -3.044  -0.256  1.00  0.00    -0.323 N 
HETATM   14  H   UNL     1       0.927  -2.437   0.384  1.00  0.00     0.169 HD
HETATM   15  O   UNL     1       3.409  -3.202  -1.468  1.00  0.00    -0.267 OA
BRANCH  13  16
HETATM   16  C   UNL     1       0.792  -4.276  -0.543  1.00  0.00     0.035 A 
HETATM   17  C   UNL     1       1.326  -5.245  -1.393  1.00  0.00     0.032 A 
HETATM   18  C   UNL     1       0.630  -6.435  -1.637  1.00  0.00     0.039 A 
HETATM   19  C   UNL     1      -0.605  -6.679  -1.038  1.00  0.00     0.068 A 
HETATM   20  C   UNL     1      -1.150  -5.712  -0.197  1.00  0.00     0.039 A 
HETATM   21  C   UNL     1      -0.453  -4.520   0.051  1.00  0.00     0.032 A 
BRANCH  19  22
HETATM   22  O   UNL     1      -1.172  -7.879  -1.363  1.00  0.00    -0.356 OA
HETATM   23  C   UNL     1      -2.330  -8.261  -0.632  1.00  0.00     0.210 C 
ENDBRANCH  19  22
ENDBRANCH  13  16
ENDBRANCH  10  12
BRANCH   9  24
HETATM   24  C   UNL     1       4.593  -1.750   1.525  1.00  0.00    -0.026 A 
HETATM   25  C   UNL     1       5.247  -2.993   1.605  1.00  0.00     0.035 A 
HETATM   26  C   UNL     1       5.437  -3.628   2.839  1.00  0.00     0.056 A 
HETATM   27 CL   UNL     1       6.258  -5.148   2.844  1.00  0.00    -0.083 Cl
HETATM   28  C   UNL     1       4.967  -3.028   4.011  1.00  0.00     0.055 A 
HETATM   29 CL   UNL     1       5.171  -3.744   5.570  1.00  0.00    -0.083 Cl
HETATM   30  C   UNL     1       4.301  -1.802   3.942  1.00  0.00     0.026 A 
HETATM   31  C   UNL     1       4.108  -1.171   2.710  1.00  0.00     0.011 A 
ENDBRANCH   9  24
TORSDOF 4
