REMARK  6 active torsions:
REMARK  status: ('A' for Active; 'I' for Inactive)
REMARK    1  A    between atoms: C_9  and  C_10 
REMARK       I    between atoms: C_10  and  N_11 
REMARK    2  A    between atoms: N_11  and  N_12 
REMARK       I    between atoms: N_12  and  C_13 
REMARK    3  A    between atoms: C_13  and  C_14 
REMARK    4  A    between atoms: C_14  and  O_15 
REMARK    5  A    between atoms: O_15  and  C_16 
REMARK    6  A    between atoms: C_17  and  C_18 
ROOT
HETATM    1  N   UNL     1       8.486   3.777  -0.704  1.00  0.00    -0.265 N 
HETATM    2  C   UNL     1       9.199   4.646   0.103  1.00  0.00     0.260 C 
HETATM    3  O   UNL     1      10.155   4.305   0.798  1.00  0.00    -0.269 OA
HETATM    4  H   UNL     1       7.589   4.034  -1.107  1.00  0.00     0.190 HD
ENDROOT
BRANCH   1   5
HETATM    5  N   UNL     1       8.793   2.415  -0.653  1.00  0.00    -0.262 N 
HETATM    6  C   UNL     1       7.930   1.530  -0.026  1.00  0.00     0.291 C 
HETATM    7  O   UNL     1       6.788   1.827   0.320  1.00  0.00    -0.264 OA
HETATM    8  H   UNL     1       9.776   2.143  -0.699  1.00  0.00     0.190 HD
BRANCH   6   9
HETATM    9  C   UNL     1       8.532   0.201   0.166  1.00  0.00     0.158 A 
HETATM   10  C   UNL     1       7.963  -0.939   0.809  1.00  0.00     0.029 A 
HETATM   11  C   UNL     1       6.753  -1.241   1.467  1.00  0.00     0.023 A 
HETATM   12  C   UNL     1       8.928  -1.934   0.699  1.00  0.00     0.063 A 
HETATM   13  C   UNL     1       6.550  -2.533   1.985  1.00  0.00    -0.061 A 
HETATM   14  C   UNL     1       5.283  -2.871   2.717  1.00  0.00     0.048 C 
HETATM   15  C   UNL     1       7.550  -3.504   1.850  1.00  0.00     0.009 A 
HETATM   16  C   UNL     1       8.758  -3.226   1.202  1.00  0.00     0.032 A 
HETATM   17  N   UNL     1       9.973  -1.354   0.038  1.00  0.00    -0.277 N 
HETATM   18  H   UNL     1      10.854  -1.786  -0.217  1.00  0.00     0.189 HD
HETATM   19  N   UNL     1       9.775  -0.068  -0.296  1.00  0.00    -0.168 NA
ENDBRANCH   6   9
ENDBRANCH   1   5
BRANCH   2  20
HETATM   20  C   UNL     1       8.695   6.085   0.039  1.00  0.00     0.280 C 
BRANCH  20  21
HETATM   21  O   UNL     1       8.946   6.700  -1.214  1.00  0.00    -0.341 OA
BRANCH  21  22
HETATM   22  C   UNL     1      10.206   7.175  -1.487  1.00  0.00     0.080 A 
HETATM   23  C   UNL     1      10.426   7.647  -2.803  1.00  0.00     0.007 A 
HETATM   24  C   UNL     1      11.698   8.161  -3.130  1.00  0.00     0.015 A 
HETATM   25  C   UNL     1      12.728   8.202  -2.192  1.00  0.00     0.001 A 
HETATM   26  C   UNL     1      12.505   7.724  -0.908  1.00  0.00     0.003 A 
HETATM   27  C   UNL     1      11.253   7.214  -0.556  1.00  0.00     0.037 A 
BRANCH  23  28
HETATM   28  C   UNL     1       9.386   7.607  -3.851  1.00  0.00    -0.023 A 
HETATM   29  C   UNL     1       8.171   8.294  -3.703  1.00  0.00     0.012 A 
HETATM   30  C   UNL     1       7.202   8.266  -4.710  1.00  0.00     0.001 A 
HETATM   31  C   UNL     1       7.434   7.554  -5.884  1.00  0.00     0.000 A 
HETATM   32  C   UNL     1       8.634   6.867  -6.052  1.00  0.00     0.001 A 
HETATM   33  C   UNL     1       9.600   6.894  -5.044  1.00  0.00     0.012 A 
ENDBRANCH  23  28
ENDBRANCH  21  22
ENDBRANCH  20  21
ENDBRANCH   2  20
TORSDOF 6
