REMARK  5 active torsions:
REMARK  status: ('A' for Active; 'I' for Inactive)
REMARK    1  A    between atoms: C_5  and  O_6 
REMARK    2  A    between atoms: O_6  and  C_7 
REMARK    3  A    between atoms: C_7  and  C_8 
REMARK       I    between atoms: C_8  and  N_9 
REMARK    4  A    between atoms: N_9  and  N_10 
REMARK       I    between atoms: N_10  and  C_11 
REMARK    5  A    between atoms: C_11  and  C_12 
ROOT
HETATM    1  N   UNL     1       8.600   1.879  -0.479  1.00  0.00    -0.263 N 
HETATM    2  C   UNL     1       9.024   3.137  -0.862  1.00  0.00     0.276 C 
HETATM    3  O   UNL     1       8.291   4.123  -0.808  1.00  0.00    -0.266 OA
HETATM    4  H   UNL     1       9.186   1.055  -0.636  1.00  0.00     0.190 HD
ENDROOT
BRANCH   1   5
HETATM    5  N   UNL     1       7.265   1.677  -0.126  1.00  0.00    -0.265 N 
HETATM    6  C   UNL     1       6.708   0.429  -0.307  1.00  0.00     0.260 C 
HETATM    7  O   UNL     1       7.350  -0.548  -0.691  1.00  0.00    -0.269 OA
HETATM    8  H   UNL     1       6.700   2.499   0.087  1.00  0.00     0.190 HD
BRANCH   6   9
HETATM    9  C   UNL     1       5.202   0.378  -0.070  1.00  0.00     0.280 C 
BRANCH   9  10
HETATM   10  O   UNL     1       4.821   1.305   0.942  1.00  0.00    -0.342 OA
BRANCH  10  11
HETATM   11  C   UNL     1       3.527   1.202   1.376  1.00  0.00     0.069 A 
HETATM   12  C   UNL     1       3.295   1.660   2.674  1.00  0.00     0.037 A 
HETATM   13  C   UNL     1       2.011   1.613   3.223  1.00  0.00     0.009 A 
HETATM   14  C   UNL     1       0.941   1.111   2.476  1.00  0.00    -0.062 A 
HETATM   15  C   UNL     1      -0.447   1.092   3.045  1.00  0.00     0.048 C 
HETATM   16  C   UNL     1       1.172   0.685   1.163  1.00  0.00     0.009 A 
HETATM   17  C   UNL     1       2.459   0.727   0.616  1.00  0.00     0.037 A 
ENDBRANCH  10  11
ENDBRANCH   9  10
ENDBRANCH   6   9
ENDBRANCH   1   5
BRANCH   2  18
HETATM   18  C   UNL     1      10.399   3.202  -1.326  1.00  0.00     0.107 A 
HETATM   19  C   UNL     1      11.292   2.153  -1.449  1.00  0.00     0.169 A 
HETATM   20  N   UNL     1      12.493   2.699  -1.914  1.00  0.00    -0.219 N 
HETATM   21  N   UNL     1      11.146   0.814  -1.197  1.00  0.00    -0.233 NA
HETATM   22  C   UNL     1      13.615   1.882  -2.122  1.00  0.00     0.036 A 
HETATM   23  N   UNL     1      12.383   4.036  -2.106  1.00  0.00    -0.170 NA
HETATM   24  C   UNL     1      14.895   2.496  -2.601  1.00  0.00     0.070 C 
HETATM   25  C   UNL     1      13.518   0.562  -1.878  1.00  0.00     0.053 A 
HETATM   26  C   UNL     1      12.190   0.064  -1.402  1.00  0.00     0.035 A 
HETATM   27  C   UNL     1      12.056  -1.416  -1.147  1.00  0.00     0.070 C 
HETATM   28  C   UNL     1      11.129   4.339  -1.755  1.00  0.00     0.071 A 
HETATM   29  C   UNL     1      10.657   5.746  -1.843  1.00  0.00     0.073 C 
ENDBRANCH   2  18
TORSDOF 5
