REMARK  6 active torsions:
REMARK  status: ('A' for Active; 'I' for Inactive)
REMARK    1  A    between atoms: C_2  and  N_3 
REMARK    2  A    between atoms: N_3  and  C_5 
REMARK    3  A    between atoms: N_3  and  C_26 
REMARK    4  A    between atoms: C_5  and  C_6 
REMARK    5  A    between atoms: C_8  and  N_9 
REMARK       I    between atoms: N_9  and  C_10 
REMARK    6  A    between atoms: C_10  and  C_11 
ROOT
HETATM    1  N   UNL     1      -1.595  -5.060   0.671  1.00  0.00    -0.322 N 
HETATM    2  C   UNL     1      -0.837  -6.220   0.626  1.00  0.00     0.277 C 
HETATM    3  O   UNL     1       0.369  -6.295   0.845  1.00  0.00    -0.266 OA
HETATM    4  H   UNL     1      -2.581  -5.218   0.467  1.00  0.00     0.169 HD
ENDROOT
BRANCH   1   5
HETATM    5  C   UNL     1      -1.157  -3.745   0.891  1.00  0.00     0.035 A 
HETATM    6  C   UNL     1       0.184  -3.410   1.089  1.00  0.00     0.038 A 
HETATM    7  C   UNL     1       0.600  -2.073   1.205  1.00  0.00    -0.030 A 
HETATM    8  C   UNL     1      -0.371  -1.065   1.196  1.00  0.00     0.009 A 
HETATM    9  C   UNL     1      -1.719  -1.392   1.037  1.00  0.00     0.003 A 
HETATM   10  C   UNL     1      -2.108  -2.724   0.873  1.00  0.00     0.029 A 
BRANCH   7  11
HETATM   11  C   UNL     1       2.070  -1.759   1.304  1.00  0.00     0.273 C 
BRANCH  11  12
HETATM   12  N   UNL     1       2.810  -1.602  -0.023  1.00  0.00    -0.068 N 
HETATM   13  H   UNL     1       3.791  -1.434   0.230  1.00  0.00     0.280 HD
BRANCH  12  14
HETATM   14  C   UNL     1       2.375  -0.397  -0.837  1.00  0.00     0.231 C 
HETATM   15  C   UNL     1       2.758   0.900  -0.147  1.00  0.00     0.034 C 
ENDBRANCH  12  14
BRANCH  12  16
HETATM   16  C   UNL     1       2.822  -2.852  -0.891  1.00  0.00     0.231 C 
HETATM   17  C   UNL     1       3.646  -3.959  -0.259  1.00  0.00     0.034 C 
ENDBRANCH  12  16
ENDBRANCH  11  12
ENDBRANCH   7  11
ENDBRANCH   1   5
BRANCH   2  18
HETATM   18  C   UNL     1      -1.643  -7.392   0.246  1.00  0.00     0.157 A 
HETATM   19  N   UNL     1      -2.918  -7.253  -0.180  1.00  0.00    -0.168 NA
HETATM   20  N   UNL     1      -3.290  -8.512  -0.485  1.00  0.00    -0.277 N 
HETATM   21  H   UNL     1      -4.223  -8.667  -0.851  1.00  0.00     0.189 HD
HETATM   22  C   UNL     1      -2.329  -9.457  -0.252  1.00  0.00     0.063 A 
HETATM   23  C   UNL     1      -1.236  -8.758   0.243  1.00  0.00     0.029 A 
HETATM   24  C   UNL     1      -2.331 -10.843  -0.427  1.00  0.00     0.032 A 
HETATM   25  C   UNL     1      -0.076  -9.474   0.601  1.00  0.00     0.023 A 
HETATM   26  C   UNL     1      -0.047 -10.870   0.444  1.00  0.00    -0.061 A 
HETATM   27  C   UNL     1      -1.170 -11.536  -0.062  1.00  0.00     0.009 A 
HETATM   28  C   UNL     1       1.164 -11.643   0.881  1.00  0.00     0.048 C 
ENDBRANCH   2  18
TORSDOF 6
