REMARK  5 active torsions:
REMARK  status: ('A' for Active; 'I' for Inactive)
REMARK    1  A    between atoms: C_7  and  C_8 
REMARK    2  A    between atoms: N_9  and  N_10 
REMARK       I    between atoms: N_10  and  C_11 
REMARK    3  A    between atoms: C_11  and  C_12 
REMARK    4  A    between atoms: C_12  and  N_13 
REMARK       I    between atoms: N_13  and  C_14 
REMARK    5  A    between atoms: C_14  and  C_15 
ROOT
HETATM    1  N   UNL     1       3.038  -4.631   0.086  1.00  0.00    -0.246 N 
HETATM    2  C   UNL     1       3.851  -5.755   0.073  1.00  0.00     0.255 C 
HETATM    3  O   UNL     1       5.080  -5.758   0.110  1.00  0.00    -0.270 OA
HETATM    4  H   UNL     1       2.022  -4.754   0.140  1.00  0.00     0.192 HD
ENDROOT
BRANCH   1   5
HETATM    5  N   UNL     1       3.583  -3.382   0.076  1.00  0.00    -0.184 NA
HETATM    6  C   UNL     1       2.733  -2.406   0.076  1.00  0.00     0.153 C 
BRANCH   6   7
HETATM    7  C   UNL     1       3.196  -1.030   0.037  1.00  0.00     0.018 A 
HETATM    8  C   UNL     1       4.514  -0.590   0.010  1.00  0.00     0.018 A 
HETATM    9  C   UNL     1       5.798  -1.342   0.018  1.00  0.00     0.069 C 
HETATM   10  N   UNL     1       4.496   0.782  -0.034  1.00  0.00    -0.358 N 
HETATM   11  H   UNL     1       5.317   1.371  -0.064  1.00  0.00     0.166 HD
HETATM   12  C   UNL     1       3.205   1.251  -0.041  1.00  0.00     0.043 A 
HETATM   13  C   UNL     1       2.364   0.140   0.005  1.00  0.00     0.004 A 
HETATM   14  C   UNL     1       2.728   2.567  -0.087  1.00  0.00     0.030 A 
HETATM   15  C   UNL     1       0.969   0.360   0.005  1.00  0.00     0.014 A 
HETATM   16  C   UNL     1       0.474   1.669  -0.040  1.00  0.00     0.001 A 
HETATM   17  C   UNL     1       1.344   2.755  -0.086  1.00  0.00     0.002 A 
ENDBRANCH   6   7
ENDBRANCH   1   5
BRANCH   2  18
HETATM   18  C   UNL     1       3.052  -7.053  -0.046  1.00  0.00     0.227 C 
BRANCH  18  19
HETATM   19  N   UNL     1       2.285  -7.371   1.148  1.00  0.00    -0.348 N 
HETATM   20  C   UNL     1       1.088  -6.751   1.423  1.00  0.00     0.252 C 
HETATM   21  O   UNL     1       0.649  -5.829   0.741  1.00  0.00    -0.268 OA
HETATM   22  H   UNL     1       2.742  -7.923   1.863  1.00  0.00     0.163 HD
BRANCH  20  23
HETATM   23  C   UNL     1       0.369  -7.216   2.638  1.00  0.00     0.032 A 
HETATM   24  C   UNL     1      -0.413  -6.297   3.351  1.00  0.00     0.020 A 
HETATM   25  C   UNL     1      -1.113  -6.709   4.486  1.00  0.00     0.043 A 
HETATM   26  C   UNL     1      -1.038  -8.037   4.894  1.00  0.00     0.116 A 
HETATM   27  F   UNL     1      -1.716  -8.433   5.979  1.00  0.00    -0.206 F 
HETATM   28  C   UNL     1      -0.278  -8.963   4.187  1.00  0.00     0.043 A 
HETATM   29  C   UNL     1       0.428  -8.555   3.053  1.00  0.00     0.020 A 
ENDBRANCH  20  23
ENDBRANCH  18  19
ENDBRANCH   2  18
TORSDOF 5
