REMARK  6 active torsions:
REMARK  status: ('A' for Active; 'I' for Inactive)
REMARK    1  A    between atoms: C_2  and  C_3 
REMARK       I    between atoms: C_3  and  N_4 
REMARK    2  A    between atoms: N_4  and  C_5 
REMARK    3  A    between atoms: C_7  and  N_8 
REMARK       I    between atoms: N_8  and  C_9 
REMARK    4  A    between atoms: C_9  and  C_10 
REMARK    5  A    between atoms: C_12  and  O_13 
REMARK    6  A    between atoms: O_13  and  C_14 
ROOT
HETATM    1  N   UNL     1      -2.158  -4.821   0.673  1.00  0.00    -0.323 N 
HETATM    2  C   UNL     1      -1.629  -6.056   0.343  1.00  0.00     0.256 C 
HETATM    3  O   UNL     1      -2.221  -6.981  -0.202  1.00  0.00    -0.267 OA
HETATM    4  H   UNL     1      -1.597  -4.207   1.250  1.00  0.00     0.169 HD
ENDROOT
BRANCH   1   5
HETATM    5  C   UNL     1      -3.451  -4.340   0.362  1.00  0.00     0.037 A 
HETATM    6  C   UNL     1      -3.811  -3.083   0.877  1.00  0.00     0.059 A 
HETATM    7  C   UNL     1      -5.070  -2.530   0.618  1.00  0.00     0.036 A 
HETATM    8  C   UNL     1      -5.975  -3.246  -0.171  1.00  0.00     0.029 A 
HETATM    9  C   UNL     1      -5.625  -4.490  -0.694  1.00  0.00     0.004 A 
HETATM   10  C   UNL     1      -4.368  -5.033  -0.429  1.00  0.00     0.029 A 
BRANCH   7  11
HETATM   11  N   UNL     1      -5.501  -1.278   1.106  1.00  0.00    -0.327 N 
HETATM   12  C   UNL     1      -4.786  -0.376   1.872  1.00  0.00     0.221 C 
HETATM   13  O   UNL     1      -3.633  -0.505   2.270  1.00  0.00    -0.273 OA
HETATM   14  H   UNL     1      -6.446  -1.013   0.859  1.00  0.00     0.169 HD
BRANCH  12  15
HETATM   15  C   UNL     1      -5.587   0.868   2.211  1.00  0.00     0.098 C 
HETATM   16  C   UNL     1      -5.843   1.732   0.989  1.00  0.00     0.014 C 
ENDBRANCH  12  15
ENDBRANCH   7  11
ENDBRANCH   1   5
BRANCH   2  17
HETATM   17  C   UNL     1      -0.206  -6.280   0.722  1.00  0.00     0.037 A 
HETATM   18  C   UNL     1       0.727  -5.246   0.779  1.00  0.00     0.075 A 
HETATM   19  C   UNL     1       2.036  -5.581   1.072  1.00  0.00     0.165 A 
HETATM   20  N   UNL     1       2.462  -6.837   1.318  1.00  0.00    -0.237 NA
HETATM   21  C   UNL     1       1.539  -7.817   1.257  1.00  0.00     0.120 A 
HETATM   22  C   UNL     1       0.208  -7.593   0.960  1.00  0.00     0.036 A 
BRANCH  19  23
HETATM   23  O   UNL     1       2.951  -4.546   1.107  1.00  0.00    -0.329 OA
BRANCH  23  24
HETATM   24  C   UNL     1       4.340  -4.931   0.998  1.00  0.00     0.130 C 
HETATM   25  C   UNL     1       5.347  -3.754   1.093  1.00  0.00     0.032 C 
HETATM   26  C   UNL     1       6.289  -4.707   1.850  1.00  0.00     0.005 C 
HETATM   27  C   UNL     1       5.036  -5.500   2.264  1.00  0.00     0.032 C 
ENDBRANCH  23  24
ENDBRANCH  19  23
ENDBRANCH   2  17
TORSDOF 6
