REMARK  5 active torsions:
REMARK  status: ('A' for Active; 'I' for Inactive)
REMARK    1  A    between atoms: N_7  and  N_8 
REMARK       I    between atoms: N_8  and  C_9 
REMARK    2  A    between atoms: C_9  and  C_10 
REMARK    3  A    between atoms: C_13  and  O_14 
REMARK    4  A    between atoms: O_14  and  C_15 
REMARK    5  A    between atoms: C_15  and  C_16 
ROOT
HETATM    1  N   UNL     1      -1.993   3.661   0.634  1.00  0.00    -0.242 N 
HETATM    2  C   UNL     1      -2.655   4.564  -0.186  1.00  0.00     0.271 C 
HETATM    3  O   UNL     1      -2.128   5.331  -0.986  1.00  0.00    -0.266 OA
HETATM    4  H   UNL     1      -2.481   3.260   1.420  1.00  0.00     0.192 HD
ENDROOT
BRANCH   2   5
HETATM    5  C   UNL     1      -4.135   4.595  -0.041  1.00  0.00     0.033 A 
HETATM    6  C   UNL     1      -4.796   5.816  -0.212  1.00  0.00     0.020 A 
HETATM    7  C   UNL     1      -6.191   5.883  -0.147  1.00  0.00     0.038 A 
HETATM    8  C   UNL     1      -6.936   4.722   0.066  1.00  0.00     0.069 A 
HETATM    9  C   UNL     1      -6.273   3.505   0.257  1.00  0.00     0.038 A 
HETATM   10  C   UNL     1      -4.878   3.434   0.197  1.00  0.00     0.020 A 
BRANCH   8  11
HETATM   11  O   UNL     1      -8.301   4.646   0.104  1.00  0.00    -0.347 OA
BRANCH  11  12
HETATM   12  C   UNL     1      -9.015   5.755  -0.440  1.00  0.00     0.214 C 
BRANCH  12  13
HETATM   13  C   UNL     1     -10.451   5.340  -0.658  1.00  0.00    -0.034 A 
HETATM   14  C   UNL     1     -11.300   5.117   0.436  1.00  0.00     0.011 A 
HETATM   15  C   UNL     1     -12.628   4.731   0.234  1.00  0.00     0.024 A 
HETATM   16  C   UNL     1     -13.111   4.561  -1.061  1.00  0.00     0.034 A 
HETATM   17 CL   UNL     1     -14.746   4.086  -1.310  1.00  0.00    -0.084 Cl
HETATM   18  C   UNL     1     -12.278   4.771  -2.158  1.00  0.00     0.024 A 
HETATM   19  C   UNL     1     -10.951   5.157  -1.957  1.00  0.00     0.011 A 
ENDBRANCH  12  13
ENDBRANCH  11  12
ENDBRANCH   8  11
ENDBRANCH   2   5
BRANCH   1  20
HETATM   20  N   UNL     1      -0.637   3.616   0.597  1.00  0.00    -0.166 NA
HETATM   21  C   UNL     1       0.030   2.767   1.311  1.00  0.00     0.157 A 
HETATM   22  C   UNL     1      -0.341   1.668   2.217  1.00  0.00     0.027 A 
HETATM   23  C   UNL     1       1.576   2.809   1.320  1.00  0.00     0.277 A 
HETATM   24  C   UNL     1      -1.548   1.092   2.573  1.00  0.00     0.016 A 
HETATM   25  C   UNL     1       0.862   1.169   2.730  1.00  0.00     0.048 A 
HETATM   26  C   UNL     1      -1.524   0.031   3.487  1.00  0.00     0.001 A 
HETATM   27  C   UNL     1      -0.310  -0.446   4.014  1.00  0.00     0.002 A 
HETATM   28  C   UNL     1       0.905   0.122   3.629  1.00  0.00     0.030 A 
HETATM   29  N   UNL     1       1.963   1.835   2.210  1.00  0.00    -0.321 N 
HETATM   30  H   UNL     1       2.932   1.640   2.410  1.00  0.00     0.169 HD
HETATM   31  O   UNL     1       2.290   3.548   0.681  1.00  0.00    -0.266 OA
ENDBRANCH   1  20
TORSDOF 5
