REMARK  4 active torsions:
REMARK  status: ('A' for Active; 'I' for Inactive)
REMARK    1  A    between atoms: O_2  and  C_3 
REMARK    2  A    between atoms: C_4  and  C_5 
REMARK    3  A    between atoms: C_9  and  N_10 
REMARK    4  A    between atoms: C_13  and  C_14 
ROOT
HETATM    1  C   UNL     1       4.066   1.073  -2.647  1.00  0.00     0.167 C 
HETATM    2  N   UNL     1       2.779   1.715  -2.883  1.00  0.00    -0.074 N 
HETATM    3  C   UNL     1       2.388   2.900  -2.320  1.00  0.00     0.736 A 
HETATM    4  N   UNL     1       1.202   3.211  -2.772  1.00  0.00     0.131 NA
HETATM    5  C   UNL     1       0.891   2.152  -3.575  1.00  0.00     0.753 A 
HETATM    6  N   UNL     1       1.828   1.215  -3.691  1.00  0.00     0.037 NA
HETATM    7  N   UNL     1       3.179   3.557  -1.449  1.00  0.00    -0.214 N 
HETATM    8  C   UNL     1       4.582   3.178  -1.314  1.00  0.00     0.135 C 
HETATM    9  C   UNL     1       4.723   1.645  -1.375  1.00  0.00     0.063 C 
HETATM   10  H   UNL     1       2.952   4.529  -1.256  1.00  0.00     0.178 HD
ENDROOT
BRANCH   1  11
HETATM   11  C   UNL     1       4.990   1.161  -3.858  1.00  0.00     0.001 A 
HETATM   12  C   UNL     1       5.816   0.073  -4.187  1.00  0.00     0.076 A 
HETATM   13  C   UNL     1       6.723   0.149  -5.249  1.00  0.00     0.037 A 
HETATM   14  C   UNL     1       6.793   1.304  -6.025  1.00  0.00     0.003 A 
HETATM   15  C   UNL     1       5.965   2.384  -5.733  1.00  0.00     0.001 A 
HETATM   16  C   UNL     1       5.075   2.316  -4.658  1.00  0.00     0.012 A 
BRANCH  12  17
HETATM   17  O   UNL     1       5.766  -1.050  -3.401  1.00  0.00    -0.355 OA
HETATM   18  C   UNL     1       5.357  -2.195  -4.154  1.00  0.00     0.210 C 
ENDBRANCH  12  17
ENDBRANCH   1  11
BRANCH   8  19
HETATM   19  C   UNL     1       5.152   3.726  -0.016  1.00  0.00    -0.035 A 
HETATM   20  C   UNL     1       4.403   3.740   1.174  1.00  0.00     0.010 A 
HETATM   21  C   UNL     1       4.950   4.245   2.356  1.00  0.00     0.019 A 
HETATM   22  C   UNL     1       6.256   4.729   2.362  1.00  0.00     0.011 A 
HETATM   23 BR   UNL     1       6.996   5.414   3.961  1.00  0.00    -0.051 Br
HETATM   24  C   UNL     1       7.020   4.709   1.199  1.00  0.00     0.019 A 
HETATM   25  C   UNL     1       6.471   4.208   0.015  1.00  0.00     0.010 A 
ENDBRANCH   8  19
BRANCH   5  26
HETATM   26  N   UNL     1      -0.283   2.150  -4.199  1.00  0.00    -0.229 N 
HETATM   27  H   UNL     1      -0.763   3.036  -4.269  1.00  0.00     0.174 HD
HETATM   28  H   UNL     1      -0.369   1.549  -5.007  1.00  0.00     0.174 HD
ENDBRANCH   5  26
TORSDOF 4
