REMARK  4 active torsions:
REMARK  status: ('A' for Active; 'I' for Inactive)
REMARK    1  A    between atoms: C_4  and  O_5 
REMARK    2  A    between atoms: O_5  and  C_6 
REMARK    3  A    between atoms: C_9  and  N_10 
REMARK       I    between atoms: N_10  and  C_11 
REMARK    4  A    between atoms: C_11  and  C_12 
ROOT
HETATM    1  C   UNL     1       3.542  -1.048  -0.007  1.00  0.00     0.076 A 
HETATM    2  C   UNL     1       4.555  -0.965  -0.956  1.00  0.00     0.039 A 
HETATM    3  C   UNL     1       5.306  -2.100  -1.278  1.00  0.00     0.032 A 
HETATM    4  C   UNL     1       5.061  -3.317  -0.635  1.00  0.00     0.035 A 
HETATM    5  C   UNL     1       4.060  -3.377   0.347  1.00  0.00     0.032 A 
HETATM    6  C   UNL     1       3.305  -2.245   0.666  1.00  0.00     0.039 A 
ENDROOT
BRANCH   4   7
HETATM    7  N   UNL     1       5.753  -4.513  -0.921  1.00  0.00    -0.323 N 
HETATM    8  C   UNL     1       6.767  -4.695  -1.841  1.00  0.00     0.257 C 
HETATM    9  O   UNL     1       7.313  -3.830  -2.517  1.00  0.00    -0.267 OA
HETATM   10  H   UNL     1       5.483  -5.316  -0.369  1.00  0.00     0.169 HD
BRANCH   8  11
HETATM   11  C   UNL     1       7.221  -6.121  -1.942  1.00  0.00     0.048 A 
HETATM   12  C   UNL     1       8.532  -6.343  -2.144  1.00  0.00     0.108 A 
HETATM   13  N   UNL     1       9.015  -7.625  -2.260  1.00  0.00    -0.333 N 
HETATM   14  C   UNL     1       8.229  -8.751  -2.197  1.00  0.00     0.245 A 
HETATM   15  H   UNL     1      10.005  -7.784  -2.407  1.00  0.00     0.168 HD
HETATM   16  O   UNL     1       8.677  -9.887  -2.290  1.00  0.00    -0.268 OA
HETATM   17  C   UNL     1       6.773  -8.510  -2.016  1.00  0.00     0.075 A 
HETATM   18  C   UNL     1       6.312  -7.254  -1.903  1.00  0.00     0.024 A 
ENDBRANCH   8  11
ENDBRANCH   4   7
BRANCH   1  19
HETATM   19  O   UNL     1       2.836   0.091   0.291  1.00  0.00    -0.311 OA
BRANCH  19  20
HETATM   20  C   UNL     1       1.487   0.097   0.004  1.00  0.00     0.076 A 
HETATM   21  C   UNL     1       0.705   0.955   0.780  1.00  0.00     0.037 A 
HETATM   22  C   UNL     1      -0.667   1.060   0.546  1.00  0.00     0.003 A 
HETATM   23  C   UNL     1      -1.259   0.313  -0.473  1.00  0.00     0.000 A 
HETATM   24  C   UNL     1      -0.478  -0.532  -1.261  1.00  0.00     0.003 A 
HETATM   25  C   UNL     1       0.895  -0.636  -1.029  1.00  0.00     0.037 A 
ENDBRANCH  19  20
ENDBRANCH   1  19
TORSDOF 4
