REMARK  4 active torsions:
REMARK  status: ('A' for Active; 'I' for Inactive)
REMARK    1  A    between atoms: O_2  and  C_3 
REMARK    2  A    between atoms: C_4  and  C_5 
REMARK    3  A    between atoms: C_9  and  N_10 
REMARK    4  A    between atoms: C_13  and  C_14 
ROOT
HETATM    1  C   UNL     1       1.534   2.626   0.667  1.00  0.00     0.167 C 
HETATM    2  N   UNL     1       1.168   4.036   0.825  1.00  0.00    -0.074 N 
HETATM    3  C   UNL     1      -0.123   4.488   0.952  1.00  0.00     0.736 A 
HETATM    4  N   UNL     1      -0.105   5.772   1.196  1.00  0.00     0.131 NA
HETATM    5  C   UNL     1       1.225   6.048   1.288  1.00  0.00     0.753 A 
HETATM    6  N   UNL     1       2.047   5.019   1.098  1.00  0.00     0.037 NA
HETATM    7  N   UNL     1      -1.174   3.646   0.863  1.00  0.00    -0.214 N 
HETATM    8  C   UNL     1      -0.916   2.240   1.151  1.00  0.00     0.135 C 
HETATM    9  C   UNL     1       0.289   1.779   0.318  1.00  0.00     0.063 C 
HETATM   10  H   UNL     1      -2.053   4.007   1.226  1.00  0.00     0.178 HD
ENDROOT
BRANCH   1  11
HETATM   11  C   UNL     1       2.640   2.366  -0.354  1.00  0.00     0.001 A 
HETATM   12  C   UNL     1       3.380   1.167  -0.285  1.00  0.00     0.076 A 
HETATM   13  C   UNL     1       4.401   0.910  -1.207  1.00  0.00     0.037 A 
HETATM   14  C   UNL     1       4.669   1.817  -2.231  1.00  0.00     0.003 A 
HETATM   15  C   UNL     1       3.919   2.983  -2.338  1.00  0.00     0.001 A 
HETATM   16  C   UNL     1       2.910   3.254  -1.412  1.00  0.00     0.012 A 
BRANCH  12  17
HETATM   17  O   UNL     1       3.062   0.307   0.737  1.00  0.00    -0.355 OA
HETATM   18  C   UNL     1       3.215  -1.078   0.433  1.00  0.00     0.210 C 
ENDBRANCH  12  17
ENDBRANCH   1  11
BRANCH   8  19
HETATM   19  C   UNL     1      -2.161   1.421   0.872  1.00  0.00    -0.035 A 
HETATM   20  C   UNL     1      -2.726   1.355  -0.413  1.00  0.00     0.010 A 
HETATM   21  C   UNL     1      -3.862   0.580  -0.655  1.00  0.00     0.019 A 
HETATM   22  C   UNL     1      -4.451  -0.129   0.389  1.00  0.00     0.011 A 
HETATM   23 BR   UNL     1      -5.987  -1.181   0.063  1.00  0.00    -0.051 Br
HETATM   24  C   UNL     1      -3.916  -0.066   1.674  1.00  0.00     0.019 A 
HETATM   25  C   UNL     1      -2.777   0.707   1.913  1.00  0.00     0.010 A 
ENDBRANCH   8  19
BRANCH   5  26
HETATM   26  N   UNL     1       1.598   7.298   1.547  1.00  0.00    -0.229 N 
HETATM   27  H   UNL     1       0.914   8.020   1.370  1.00  0.00     0.174 HD
HETATM   28  H   UNL     1       2.551   7.544   1.316  1.00  0.00     0.174 HD
ENDBRANCH   5  26
TORSDOF 4
