REMARK  7 active torsions:
REMARK  status: ('A' for Active; 'I' for Inactive)
REMARK    1  A    between atoms: C_2  and  N_3 
REMARK    2  A    between atoms: N_3  and  C_4 
REMARK    3  A    between atoms: C_6  and  N_7 
REMARK    4  A    between atoms: N_7  and  C_8 
REMARK    5  A    between atoms: C_8  and  C_9 
REMARK    6  A    between atoms: C_9  and  C_10 
REMARK    7  A    between atoms: C_11  and  O_12 
ROOT
HETATM    1  C   UNL     1       2.692  -1.333  -2.035  1.00  0.00     0.119 A 
HETATM    2  N   UNL     1       2.202  -1.231  -3.285  1.00  0.00    -0.207 NA
HETATM    3  C   UNL     1       2.222  -2.324  -4.057  1.00  0.00     0.181 A 
HETATM    4  N   UNL     1       2.714  -3.490  -3.655  1.00  0.00    -0.330 N 
HETATM    5  H   UNL     1       2.752  -4.235  -4.338  1.00  0.00     0.168 HD
HETATM    6  C   UNL     1       3.177  -3.657  -2.413  1.00  0.00     0.048 A 
HETATM    7  C   UNL     1       3.173  -2.561  -1.528  1.00  0.00     0.031 A 
HETATM    8  C   UNL     1       3.657  -4.911  -2.004  1.00  0.00     0.030 A 
HETATM    9  C   UNL     1       4.124  -5.091  -0.703  1.00  0.00     0.002 A 
HETATM   10  C   UNL     1       4.113  -4.026   0.193  1.00  0.00     0.001 A 
HETATM   11  C   UNL     1       3.643  -2.774  -0.211  1.00  0.00     0.017 A 
ENDROOT
BRANCH   3  12
HETATM   12  N   UNL     1       1.786  -2.190  -5.360  1.00  0.00    -0.262 NA
HETATM   13  H   UNL     1       1.453  -1.224  -5.448  1.00  0.00     0.130 HD
BRANCH  12  14
HETATM   14  C   UNL     1       0.823  -3.162  -5.885  1.00  0.00     0.100 C 
BRANCH  14  15
HETATM   15  C   UNL     1      -0.427  -2.489  -6.471  1.00  0.00     0.056 C 
BRANCH  15  16
HETATM   16  C   UNL     1      -0.279  -1.598  -7.691  1.00  0.00    -0.024 A 
HETATM   17  C   UNL     1      -1.433  -0.962  -8.202  1.00  0.00     0.074 A 
HETATM   18  C   UNL     1      -1.337  -0.117  -9.312  1.00  0.00     0.037 A 
HETATM   19  C   UNL     1      -0.106   0.092  -9.933  1.00  0.00     0.003 A 
HETATM   20  C   UNL     1       1.032  -0.546  -9.453  1.00  0.00     0.001 A 
HETATM   21  C   UNL     1       0.947  -1.388  -8.343  1.00  0.00     0.010 A 
BRANCH  17  22
HETATM   22  O   UNL     1      -2.602  -1.230  -7.532  1.00  0.00    -0.355 OA
HETATM   23  C   UNL     1      -3.814  -0.801  -8.144  1.00  0.00     0.210 C 
ENDBRANCH  17  22
ENDBRANCH  15  16
ENDBRANCH  14  15
ENDBRANCH  12  14
ENDBRANCH   3  12
BRANCH   1  24
HETATM   24  N   UNL     1       2.670  -0.207  -1.207  1.00  0.00    -0.273 NA
HETATM   25  H   UNL     1       3.558  -0.072  -0.729  1.00  0.00     0.129 HD
BRANCH  24  26
HETATM   26  C   UNL     1       2.154   1.060  -1.744  1.00  0.00     0.053 C 
HETATM   27  C   UNL     1       3.205   1.750  -2.614  1.00  0.00     0.026 C 
HETATM   28  C   UNL     1       1.790   1.957  -0.560  1.00  0.00     0.026 C 
ENDBRANCH  24  26
ENDBRANCH   1  24
TORSDOF 7
