REMARK  4 active torsions:
REMARK  status: ('A' for Active; 'I' for Inactive)
REMARK    1  A    between atoms: C_3  and  C_4 
REMARK    2  A    between atoms: C_15  and  C_16 
REMARK       I    between atoms: C_16  and  N_17 
REMARK    3  A    between atoms: N_17  and  C_18 
REMARK    4  A    between atoms: C_18  and  C_19 
ROOT
HETATM    1  C   UNL     1       6.328   6.789   3.256  1.00  0.00     0.055 C 
HETATM    2  C   UNL     1       5.956   6.151   1.951  1.00  0.00     0.024 A 
HETATM    3  C   UNL     1       6.043   4.848   1.628  1.00  0.00     0.096 A 
HETATM    4  O   UNL     1       5.636   4.295   0.428  1.00  0.00    -0.307 OA
HETATM    5  C   UNL     1       5.147   5.108  -0.563  1.00  0.00     0.106 A 
HETATM    6  C   UNL     1       5.050   6.489  -0.380  1.00  0.00     0.050 A 
HETATM    7  C   UNL     1       5.432   7.074   0.915  1.00  0.00     0.193 A 
HETATM    8  O   UNL     1       5.325   8.278   1.120  1.00  0.00    -0.287 OA
HETATM    9  C   UNL     1       4.750   4.542  -1.786  1.00  0.00     0.066 A 
HETATM   10  C   UNL     1       4.297   5.393  -2.813  1.00  0.00     0.020 A 
HETATM   11  C   UNL     1       4.220   6.773  -2.627  1.00  0.00     0.002 A 
HETATM   12  C   UNL     1       4.589   7.323  -1.405  1.00  0.00     0.018 A 
ENDROOT
BRANCH   9  13
HETATM   13  C   UNL     1       4.738   3.074  -2.089  1.00  0.00     0.255 C 
HETATM   14  N   UNL     1       4.994   2.198  -1.061  1.00  0.00    -0.349 N 
HETATM   15  H   UNL     1       5.267   2.553  -0.153  1.00  0.00     0.163 HD
HETATM   16  O   UNL     1       4.469   2.687  -3.223  1.00  0.00    -0.268 OA
BRANCH  14  17
HETATM   17  C   UNL     1       4.937   0.757  -1.235  1.00  0.00     0.114 C 
HETATM   18  C   UNL     1       6.202   0.236  -1.923  1.00  0.00     0.037 C 
BRANCH  17  19
HETATM   19  C   UNL     1       4.641   0.113   0.107  1.00  0.00    -0.033 A 
HETATM   20  C   UNL     1       5.641  -0.337   0.974  1.00  0.00     0.028 A 
HETATM   21  C   UNL     1       5.272  -0.883   2.195  1.00  0.00     0.116 A 
HETATM   22  N   UNL     1       3.996  -0.991   2.619  1.00  0.00    -0.273 NA
HETATM   23  C   UNL     1       3.043  -0.541   1.778  1.00  0.00     0.116 A 
HETATM   24  C   UNL     1       3.311   0.013   0.536  1.00  0.00     0.028 A 
ENDBRANCH  17  19
ENDBRANCH  14  17
ENDBRANCH   9  13
BRANCH   3  25
HETATM   25  C   UNL     1       6.601   3.843   2.544  1.00  0.00    -0.002 A 
HETATM   26  C   UNL     1       5.763   2.921   3.181  1.00  0.00     0.014 A 
HETATM   27  C   UNL     1       6.297   1.978   4.061  1.00  0.00     0.001 A 
HETATM   28  C   UNL     1       7.670   1.941   4.301  1.00  0.00     0.000 A 
HETATM   29  C   UNL     1       8.513   2.847   3.660  1.00  0.00     0.001 A 
HETATM   30  C   UNL     1       7.982   3.794   2.783  1.00  0.00     0.014 A 
ENDBRANCH   3  25
TORSDOF 4
