REMARK  5 active torsions:
REMARK  status: ('A' for Active; 'I' for Inactive)
REMARK    1  A    between atoms: C_3  and  O_4 
REMARK    2  A    between atoms: O_4  and  C_5 
REMARK    3  A    between atoms: C_5  and  C_6 
REMARK       I    between atoms: C_6  and  N_7 
REMARK    4  A    between atoms: N_7  and  N_8 
REMARK    5  A    between atoms: C_9  and  C_10 
ROOT
HETATM    1  C   UNL     1       2.432   4.584   0.049  1.00  0.00     0.261 C 
HETATM    2  N   UNL     1       1.212   4.556  -0.625  1.00  0.00    -0.246 N 
HETATM    3  O   UNL     1       3.093   3.598   0.371  1.00  0.00    -0.269 OA
HETATM    4  H   UNL     1       0.660   5.410  -0.619  1.00  0.00     0.192 HD
ENDROOT
BRANCH   2   5
HETATM    5  N   UNL     1       0.478   3.410  -0.831  1.00  0.00    -0.184 NA
HETATM    6  C   UNL     1       1.126   2.352  -1.203  1.00  0.00     0.153 C 
BRANCH   6   7
HETATM    7  C   UNL     1       0.435   1.083  -1.361  1.00  0.00     0.018 A 
HETATM    8  C   UNL     1      -0.900   0.718  -0.979  1.00  0.00     0.004 A 
HETATM    9  C   UNL     1      -1.081  -0.623  -1.319  1.00  0.00     0.043 A 
HETATM   10  C   UNL     1      -1.974   1.394  -0.360  1.00  0.00     0.014 A 
HETATM   11  C   UNL     1      -2.271  -1.319  -1.073  1.00  0.00     0.030 A 
HETATM   12  N   UNL     1       0.089  -1.057  -1.893  1.00  0.00    -0.358 N 
HETATM   13  C   UNL     1      -3.315  -0.624  -0.458  1.00  0.00     0.002 A 
HETATM   14  C   UNL     1      -3.172   0.714  -0.106  1.00  0.00     0.001 A 
HETATM   15  H   UNL     1       0.238  -1.997  -2.233  1.00  0.00     0.166 HD
HETATM   16  C   UNL     1       1.018  -0.048  -1.923  1.00  0.00     0.018 A 
HETATM   17  C   UNL     1       2.375  -0.265  -2.489  1.00  0.00     0.069 C 
ENDBRANCH   6   7
ENDBRANCH   2   5
BRANCH   1  18
HETATM   18  C   UNL     1       2.853   5.992   0.462  1.00  0.00     0.280 C 
BRANCH  18  19
HETATM   19  O   UNL     1       2.578   6.926  -0.578  1.00  0.00    -0.342 OA
BRANCH  19  20
HETATM   20  C   UNL     1       3.170   8.155  -0.429  1.00  0.00     0.075 A 
HETATM   21  C   UNL     1       3.517   8.838  -1.607  1.00  0.00    -0.029 A 
HETATM   22  C   UNL     1       3.325   8.219  -2.964  1.00  0.00     0.051 C 
HETATM   23  C   UNL     1       4.132  10.097  -1.512  1.00  0.00     0.009 A 
HETATM   24  C   UNL     1       4.362  10.684  -0.269  1.00  0.00     0.001 A 
HETATM   25  C   UNL     1       3.986  10.018   0.893  1.00  0.00     0.003 A 
HETATM   26  C   UNL     1       3.389   8.758   0.815  1.00  0.00     0.037 A 
ENDBRANCH  19  20
ENDBRANCH  18  19
ENDBRANCH   1  18
TORSDOF 5
