REMARK  3 active torsions:
REMARK  status: ('A' for Active; 'I' for Inactive)
REMARK    1  A    between atoms: C_6  and  C_7 
REMARK       I    between atoms: C_7  and  N_8 
REMARK    2  A    between atoms: N_8  and  C_9 
REMARK    3  A    between atoms: N_12  and  C_13 
ROOT
HETATM    1  C   UNL     1       7.298   2.715  -0.193  1.00  0.00     0.177 C 
HETATM    2  C   UNL     1       7.968   3.458   0.984  1.00  0.00     0.248 C 
HETATM    3  O   UNL     1       8.827   2.875   1.649  1.00  0.00    -0.271 OA
HETATM    4  N   UNL     1       7.470   4.764   1.170  1.00  0.00    -0.299 N 
HETATM    5  C   UNL     1       6.524   5.275   0.180  1.00  0.00     0.134 C 
HETATM    6  C   UNL     1       7.023   5.016  -1.237  1.00  0.00     0.023 C 
HETATM    7  C   UNL     1       7.367   3.547  -1.471  1.00  0.00     0.036 C 
ENDROOT
BRANCH   1   8
HETATM    8  N   UNL     1       7.932   1.419  -0.376  1.00  0.00    -0.344 N 
HETATM    9  C   UNL     1       7.297   0.371  -0.994  1.00  0.00     0.253 C 
HETATM   10  O   UNL     1       6.194   0.452  -1.519  1.00  0.00    -0.268 OA
HETATM   11  H   UNL     1       8.822   1.277   0.094  1.00  0.00     0.163 HD
BRANCH   9  12
HETATM   12  C   UNL     1       8.069  -0.899  -1.021  1.00  0.00     0.043 A 
HETATM   13  C   UNL     1       8.424  -1.546   0.182  1.00  0.00    -0.045 A 
HETATM   14  C   UNL     1       9.193  -2.720   0.115  1.00  0.00     0.014 A 
HETATM   15  C   UNL     1       8.031  -1.020   1.535  1.00  0.00     0.049 C 
HETATM   16  C   UNL     1       9.572  -3.268  -1.115  1.00  0.00    -0.061 A 
HETATM   17  C   UNL     1      10.375  -4.535  -1.181  1.00  0.00     0.048 C 
HETATM   18  C   UNL     1       9.180  -2.632  -2.298  1.00  0.00     0.014 A 
HETATM   19  C   UNL     1       8.436  -1.442  -2.269  1.00  0.00    -0.045 A 
HETATM   20  C   UNL     1       8.035  -0.796  -3.567  1.00  0.00     0.049 C 
ENDBRANCH   9  12
ENDBRANCH   1   8
BRANCH   4  21
HETATM   21  C   UNL     1       7.810   5.500   2.318  1.00  0.00     0.154 A 
HETATM   22  N   UNL     1       8.615   5.053   3.286  1.00  0.00    -0.155 NA
HETATM   23  N   UNL     1       8.657   6.027   4.201  1.00  0.00    -0.283 N 
HETATM   24  C   UNL     1       9.444   5.850   5.396  1.00  0.00     0.179 C 
HETATM   25  C   UNL     1       7.914   7.114   3.866  1.00  0.00     0.115 A 
HETATM   26  C   UNL     1       7.347   6.806   2.652  1.00  0.00     0.071 A 
ENDBRANCH   4  21
TORSDOF 3
