REMARK  7 active torsions:
REMARK  status: ('A' for Active; 'I' for Inactive)
REMARK    1  A    between atoms: C_2  and  N_3 
REMARK    2  A    between atoms: C_2  and  C_17 
REMARK       I    between atoms: N_3  and  C_4 
REMARK    3  A    between atoms: C_4  and  C_5 
REMARK    4  A    between atoms: C_6  and  N_7 
REMARK    5  A    between atoms: C_17  and  O_18 
REMARK    6  A    between atoms: C_17  and  C_19 
REMARK    7  A    between atoms: C_22  and  O_23 
ROOT
HETATM    1  N   UNL     1       3.615   1.484  -2.815  1.00  0.00    -0.350 N 
HETATM    2  C   UNL     1       2.824   0.490  -3.318  1.00  0.00     0.255 C 
HETATM    3  O   UNL     1       1.831   0.124  -2.686  1.00  0.00    -0.268 OA
HETATM    4  H   UNL     1       4.407   1.821  -3.360  1.00  0.00     0.163 HD
ENDROOT
BRANCH   1   5
HETATM    5  C   UNL     1       3.298   2.197  -1.575  1.00  0.00     0.114 C 
HETATM    6  C   UNL     1       3.927   3.592  -1.591  1.00  0.00     0.035 C 
BRANCH   5   7
HETATM    7  C   UNL     1       3.643   1.376  -0.298  1.00  0.00     0.173 C 
BRANCH   7   8
HETATM    8  O   UNL     1       3.003   1.968   0.843  1.00  0.00    -0.389 OA
HETATM    9  H   UNL     1       3.207   1.383   1.594  1.00  0.00     0.210 HD
ENDBRANCH   7   8
BRANCH   7  10
HETATM   10  C   UNL     1       5.129   1.216  -0.022  1.00  0.00    -0.028 A 
HETATM   11  C   UNL     1       5.850   0.178  -0.626  1.00  0.00     0.012 A 
HETATM   12  C   UNL     1       7.218   0.026  -0.379  1.00  0.00     0.037 A 
HETATM   13  C   UNL     1       7.892   0.901   0.475  1.00  0.00     0.068 A 
HETATM   14  C   UNL     1       7.187   1.943   1.074  1.00  0.00     0.037 A 
HETATM   15  C   UNL     1       5.819   2.099   0.825  1.00  0.00     0.012 A 
BRANCH  13  16
HETATM   16  O   UNL     1       9.225   0.637   0.635  1.00  0.00    -0.356 OA
HETATM   17  C   UNL     1       9.936   1.458   1.553  1.00  0.00     0.210 C 
ENDBRANCH  13  16
ENDBRANCH   7  10
ENDBRANCH   5   7
ENDBRANCH   1   5
BRANCH   2  18
HETATM   18  C   UNL     1       3.157  -0.205  -4.613  1.00  0.00     0.079 A 
HETATM   19  C   UNL     1       4.066   0.079  -5.645  1.00  0.00     0.165 A 
HETATM   20  N   UNL     1       4.181  -0.733  -6.758  1.00  0.00    -0.241 NA
HETATM   21  C   UNL     1       3.403  -1.823  -6.877  1.00  0.00     0.119 A 
HETATM   22  C   UNL     1       2.483  -2.183  -5.928  1.00  0.00     0.020 A 
HETATM   23  C   UNL     1       2.369  -1.372  -4.803  1.00  0.00     0.022 A 
BRANCH  19  24
HETATM   24  N   UNL     1       4.955   1.207  -5.705  1.00  0.00    -0.226 N 
HETATM   25  N   UNL     1       5.073   2.164  -4.752  1.00  0.00    -0.179 NA
HETATM   26  C   UNL     1       5.998   3.009  -5.211  1.00  0.00     0.141 A 
HETATM   27  C   UNL     1       6.509   2.626  -6.453  1.00  0.00     0.040 A 
HETATM   28  C   UNL     1       5.832   1.471  -6.751  1.00  0.00     0.122 A 
ENDBRANCH  19  24
ENDBRANCH   2  18
TORSDOF 7
