REMARK  10 active torsions:
REMARK  status: ('A' for Active; 'I' for Inactive)
REMARK    1  A    between atoms: C_8  and  C_9 
REMARK    2  A    between atoms: N_14  and  C_15 
REMARK    3  A    between atoms: C_15  and  C_16 
REMARK    4  A    between atoms: C_16  and  C_17 
REMARK    5  A    between atoms: C_20  and  O_21 
REMARK    6  A    between atoms: C_27  and  N_28 
REMARK    7  A    between atoms: N_28  and  C_29 
REMARK    8  A    between atoms: C_29  and  C_30 
REMARK    9  A    between atoms: C_30  and  O_31 
REMARK   10  A    between atoms: C_30  and  C_32 
ROOT
HETATM    1  C   UNL     1       1.012   0.130   0.877  1.00  0.00     0.052 C 
HETATM    2  C   UNL     1       2.464   0.154   0.514  1.00  0.00    -0.015 A 
HETATM    3  C   UNL     1       3.156  -1.167   0.320  1.00  0.00     0.144 A 
HETATM    4  N   UNL     1       2.517  -2.262   0.584  1.00  0.00    -0.217 NA
HETATM    5  N   UNL     1       4.461  -1.134  -0.144  1.00  0.00    -0.272 N 
HETATM    6  C   UNL     1       5.122  -2.322  -0.411  1.00  0.00     0.266 C 
HETATM    7  O   UNL     1       6.296  -2.393  -0.783  1.00  0.00    -0.267 OA
HETATM    8  C   UNL     1       4.332  -3.574  -0.225  1.00  0.00     0.074 C 
HETATM    9  C   UNL     1       3.107  -3.470   0.341  1.00  0.00     0.121 C 
HETATM   10  C   UNL     1       5.131   0.071  -0.318  1.00  0.00     0.102 A 
HETATM   11  C   UNL     1       4.538   1.247  -0.089  1.00  0.00     0.018 A 
HETATM   12  C   UNL     1       3.158   1.286   0.315  1.00  0.00     0.012 A 
ENDROOT
BRANCH   8  13
HETATM   13  C   UNL     1       4.930  -4.827  -0.676  1.00  0.00     0.045 C 
HETATM   14  C   UNL     1       4.450  -5.610  -1.653  1.00  0.00     0.077 A 
HETATM   15  S   UNL     1       3.068  -5.331  -2.638  1.00  0.00    -0.055 SA
HETATM   16  C   UNL     1       5.055  -6.925  -1.989  1.00  0.00     0.266 A 
HETATM   17  C   UNL     1       3.116  -6.945  -3.324  1.00  0.00     0.148 A 
HETATM   18  S   UNL     1       1.923  -7.505  -4.348  1.00  0.00    -0.052 SA
HETATM   19  N   UNL     1       4.242  -7.608  -2.877  1.00  0.00    -0.298 N 
HETATM   20  O   UNL     1       6.101  -7.333  -1.504  1.00  0.00    -0.266 OA
BRANCH  19  21
HETATM   21  C   UNL     1       4.614  -8.963  -3.288  1.00  0.00     0.138 C 
BRANCH  21  22
HETATM   22  C   UNL     1       5.354  -8.971  -4.632  1.00  0.00     0.059 C 
BRANCH  22  23
HETATM   23  C   UNL     1       5.569 -10.369  -5.155  1.00  0.00    -0.057 A 
HETATM   24  C   UNL     1       4.483 -11.133  -5.602  1.00  0.00     0.010 A 
HETATM   25  C   UNL     1       4.682 -12.426  -6.087  1.00  0.00     0.037 A 
HETATM   26  C   UNL     1       5.965 -12.972  -6.153  1.00  0.00     0.068 A 
HETATM   27  C   UNL     1       7.049 -12.217  -5.707  1.00  0.00     0.037 A 
HETATM   28  C   UNL     1       6.852 -10.924  -5.209  1.00  0.00     0.010 A 
BRANCH  26  29
HETATM   29  O   UNL     1       6.022 -14.241  -6.660  1.00  0.00    -0.356 OA
HETATM   30  C   UNL     1       7.315 -14.743  -6.973  1.00  0.00     0.210 C 
ENDBRANCH  26  29
ENDBRANCH  22  23
ENDBRANCH  21  22
ENDBRANCH  19  21
ENDBRANCH   8  13
BRANCH   9  31
HETATM   31  N   UNL     1       2.319  -4.571   0.655  1.00  0.00    -0.274 NA
HETATM   32  H   UNL     1       1.394  -4.224   0.923  1.00  0.00     0.129 HD
BRANCH  31  33
HETATM   33  C   UNL     1       2.761  -5.687   1.501  1.00  0.00     0.130 C 
BRANCH  33  34
HETATM   34  C   UNL     1       1.624  -6.162   2.442  1.00  0.00     0.164 C 
BRANCH  34  35
HETATM   35  O   UNL     1       1.097  -5.045   3.175  1.00  0.00    -0.390 OA
HETATM   36  H   UNL     1       1.704  -4.293   3.051  1.00  0.00     0.210 HD
ENDBRANCH  34  35
BRANCH  34  37
HETATM   37  C   UNL     1       0.457  -6.905   1.819  1.00  0.00    -0.029 A 
HETATM   38  C   UNL     1       0.295  -7.082   0.437  1.00  0.00     0.010 A 
HETATM   39  C   UNL     1      -0.799  -7.788  -0.074  1.00  0.00     0.001 A 
HETATM   40  C   UNL     1      -1.749  -8.329   0.789  1.00  0.00     0.000 A 
HETATM   41  C   UNL     1      -1.609  -8.162   2.163  1.00  0.00     0.001 A 
HETATM   42  C   UNL     1      -0.517  -7.456   2.672  1.00  0.00     0.010 A 
ENDBRANCH  34  37
ENDBRANCH  33  34
ENDBRANCH  31  33
ENDBRANCH   9  31
TORSDOF 10
