REMARK  6 active torsions:
REMARK  status: ('A' for Active; 'I' for Inactive)
REMARK    1  A    between atoms: O_2  and  C_3 
REMARK    2  A    between atoms: C_5  and  C_6 
REMARK    3  A    between atoms: C_12  and  C_13 
REMARK       I    between atoms: C_13  and  N_14 
REMARK    4  A    between atoms: N_14  and  C_15 
REMARK    5  A    between atoms: C_15  and  C_16 
REMARK    6  A    between atoms: C_23  and  C_24 
ROOT
HETATM    1  C   UNL     1       5.341  -1.307  -4.200  1.00  0.00     0.118 C 
HETATM    2  N   UNL     1       4.987  -2.171  -5.328  1.00  0.00    -0.365 N 
HETATM    3  C   UNL     1       4.714  -1.678  -6.564  1.00  0.00     0.138 A 
HETATM    4  N   UNL     1       4.657  -0.322  -6.783  1.00  0.00    -0.240 N 
HETATM    5  N   UNL     1       4.249   0.016  -8.015  1.00  0.00    -0.181 NA
HETATM    6  C   UNL     1       4.128  -1.164  -8.628  1.00  0.00     0.160 A 
HETATM    7  C   UNL     1       4.419  -2.265  -7.782  1.00  0.00     0.096 A 
HETATM    8  C   UNL     1       4.853   0.689  -5.763  1.00  0.00     0.221 C 
HETATM    9  C   UNL     1       4.678   0.073  -4.365  1.00  0.00     0.066 C 
HETATM   10  H   UNL     1       4.762  -3.131  -5.070  1.00  0.00     0.161 HD
ENDROOT
BRANCH   7  11
HETATM   11  C   UNL     1       4.372  -3.661  -8.174  1.00  0.00     0.257 C 
HETATM   12  N   UNL     1       4.975  -4.537  -7.302  1.00  0.00    -0.352 N 
HETATM   13  H   UNL     1       5.590  -4.147  -6.602  1.00  0.00     0.163 HD
HETATM   14  O   UNL     1       3.855  -4.019  -9.228  1.00  0.00    -0.267 OA
BRANCH  12  15
HETATM   15  C   UNL     1       5.098  -5.941  -7.616  1.00  0.00     0.161 C 
BRANCH  15  16
HETATM   16  C   UNL     1       5.032  -6.799  -6.378  1.00  0.00    -0.041 A 
HETATM   17  C   UNL     1       3.985  -6.648  -5.456  1.00  0.00     0.009 A 
HETATM   18  C   UNL     1       3.892  -7.484  -4.342  1.00  0.00     0.001 A 
HETATM   19  C   UNL     1       4.836  -8.488  -4.143  1.00  0.00     0.000 A 
HETATM   20  C   UNL     1       5.875  -8.657  -5.057  1.00  0.00     0.001 A 
HETATM   21  C   UNL     1       5.972  -7.819  -6.170  1.00  0.00     0.009 A 
ENDBRANCH  15  16
ENDBRANCH  12  15
ENDBRANCH   7  11
BRANCH   1  22
HETATM   22  C   UNL     1       6.838  -1.280  -3.938  1.00  0.00    -0.033 A 
HETATM   23  C   UNL     1       7.335  -0.577  -2.825  1.00  0.00     0.046 A 
HETATM   24  C   UNL     1       8.705  -0.517  -2.544  1.00  0.00     0.068 A 
HETATM   25  C   UNL     1       9.603  -1.185  -3.373  1.00  0.00     0.037 A 
HETATM   26  C   UNL     1       9.131  -1.907  -4.469  1.00  0.00     0.003 A 
HETATM   27  C   UNL     1       7.764  -1.958  -4.746  1.00  0.00     0.009 A 
BRANCH  24  28
HETATM   28  O   UNL     1       9.029   0.220  -1.438  1.00  0.00    -0.356 OA
HETATM   29  C   UNL     1      10.415   0.377  -1.157  1.00  0.00     0.210 C 
ENDBRANCH  24  28
ENDBRANCH   1  22
BRANCH   8  30
HETATM   30  C   UNL     1       6.173   1.397  -5.975  1.00  0.00     0.409 C 
HETATM   31  F   UNL     1       7.224   0.567  -6.112  1.00  0.00    -0.169 F 
HETATM   32  F   UNL     1       6.148   2.197  -7.066  1.00  0.00    -0.169 F 
HETATM   33  F   UNL     1       6.439   2.210  -4.919  1.00  0.00    -0.169 F 
ENDBRANCH   8  30
TORSDOF 6
