REMARK  9 active torsions:
REMARK  status: ('A' for Active; 'I' for Inactive)
REMARK    1  A    between atoms: C_2  and  O_3 
REMARK    2  A    between atoms: O_3  and  C_4 
REMARK    3  A    between atoms: C_4  and  C_5 
REMARK    4  A    between atoms: C_10  and  C_11 
REMARK       I    between atoms: C_11  and  N_12 
REMARK    5  A    between atoms: N_12  and  C_13 
REMARK    6  A    between atoms: C_15  and  C_16 
REMARK    7  A    between atoms: C_16  and  C_17 
REMARK    8  A    between atoms: C_17  and  C_18 
REMARK    9  A    between atoms: C_18  and  C_19 
ROOT
HETATM    1  C   UNL     1       8.222  -2.434   2.141  1.00  0.00     0.725 A 
HETATM    2  N   UNL     1       8.274  -1.126   2.126  1.00  0.00    -0.046 NA
HETATM    3  C   UNL     1       9.311  -0.821   2.963  1.00  0.00     0.165 A 
HETATM    4  N   UNL     1       9.935  -1.882   3.488  1.00  0.00    -0.144 NA
HETATM    5  N   UNL     1       9.225  -2.891   2.954  1.00  0.00    -0.106 N 
HETATM    6  H   UNL     1       9.476  -3.843   3.183  1.00  0.00     0.208 HD
ENDROOT
BRANCH   1   7
HETATM    7  N   UNL     1       7.364  -3.276   1.478  1.00  0.00    -0.152 N 
HETATM    8  C   UNL     1       6.344  -2.788   0.688  1.00  0.00     0.272 C 
HETATM    9  O   UNL     1       6.014  -1.613   0.581  1.00  0.00    -0.267 OA
HETATM   10  H   UNL     1       7.451  -4.272   1.590  1.00  0.00     0.187 HD
BRANCH   8  11
HETATM   11  C   UNL     1       5.602  -3.835  -0.044  1.00  0.00     0.063 A 
HETATM   12  C   UNL     1       6.096  -5.028  -0.567  1.00  0.00     0.022 A 
HETATM   13  N   UNL     1       5.066  -5.643  -1.234  1.00  0.00    -0.354 N 
HETATM   14  C   UNL     1       7.452  -5.641  -0.578  1.00  0.00     0.069 C 
HETATM   15  C   UNL     1       3.941  -4.852  -1.251  1.00  0.00     0.115 A 
HETATM   16  H   UNL     1       5.132  -6.514  -1.747  1.00  0.00     0.166 HD
HETATM   17  C   UNL     1       4.212  -3.757  -0.437  1.00  0.00    -0.011 A 
HETATM   18  C   UNL     1       3.272  -2.654  -0.071  1.00  0.00     0.052 C 
BRANCH  15  19
HETATM   19  C   UNL     1       2.794  -5.233  -2.048  1.00  0.00     0.310 C 
HETATM   20  O   UNL     1       2.695  -6.308  -2.627  1.00  0.00    -0.258 OA
BRANCH  19  21
HETATM   21  O   UNL     1       1.893  -4.218  -2.121  1.00  0.00    -0.317 OA
BRANCH  21  22
HETATM   22  C   UNL     1       0.793  -4.414  -3.019  1.00  0.00     0.175 C 
HETATM   23  C   UNL     1      -0.331  -5.164  -2.332  1.00  0.00     0.034 C 
ENDBRANCH  21  22
ENDBRANCH  19  21
ENDBRANCH  15  19
ENDBRANCH   8  11
ENDBRANCH   1   7
BRANCH   3  24
HETATM   24  C   UNL     1       9.677   0.586   3.262  1.00  0.00     0.083 C 
BRANCH  24  25
HETATM   25  C   UNL     1       8.684   1.230   4.229  1.00  0.00     0.012 C 
BRANCH  25  26
HETATM   26  C   UNL     1       8.947   2.728   4.384  1.00  0.00     0.041 C 
BRANCH  26  27
HETATM   27  C   UNL     1       7.990   3.366   5.341  1.00  0.00    -0.030 A 
HETATM   28  C   UNL     1       8.214   3.643   6.728  1.00  0.00    -0.002 A 
HETATM   29  C   UNL     1       7.050   4.226   7.231  1.00  0.00     0.042 A 
HETATM   30  C   UNL     1       9.299   3.448   7.607  1.00  0.00     0.014 A 
HETATM   31  C   UNL     1       6.917   4.625   8.567  1.00  0.00     0.030 A 
HETATM   32  N   UNL     1       6.153   4.301   6.191  1.00  0.00    -0.365 N 
HETATM   33  C   UNL     1       8.009   4.423   9.415  1.00  0.00     0.002 A 
HETATM   34  C   UNL     1       9.185   3.843   8.945  1.00  0.00     0.001 A 
HETATM   35  H   UNL     1       5.218   4.676   6.266  1.00  0.00     0.165 HD
HETATM   36  C   UNL     1       6.708   3.790   5.050  1.00  0.00     0.096 A 
ENDBRANCH  26  27
ENDBRANCH  25  26
ENDBRANCH  24  25
ENDBRANCH   3  24
TORSDOF 9
