REMARK  6 active torsions:
REMARK  status: ('A' for Active; 'I' for Inactive)
REMARK    1  A    between atoms: C_4  and  C_5 
REMARK    2  A    between atoms: C_6  and  C_7 
REMARK    3  A    between atoms: C_7  and  C_8 
REMARK    4  A    between atoms: C_8  and  C_9 
REMARK       I    between atoms: C_9  and  N_10 
REMARK    5  A    between atoms: N_10  and  C_11 
REMARK    6  A    between atoms: C_18  and  C_19 
REMARK       I    between atoms: C_19  and  N_20 
ROOT
HETATM    1  C   UNL     1       8.891  -0.339  -1.455  1.00  0.00     0.035 A 
HETATM    2  C   UNL     1       9.903  -1.236  -1.826  1.00  0.00     0.046 A 
HETATM    3  C   UNL     1      11.121  -0.738  -2.341  1.00  0.00     0.030 A 
HETATM    4  C   UNL     1      11.278   0.635  -2.482  1.00  0.00     0.063 A 
HETATM    5  N   UNL     1      12.529   0.806  -3.005  1.00  0.00    -0.277 N 
HETATM    6  H   UNL     1      12.979   1.682  -3.245  1.00  0.00     0.189 HD
HETATM    7  N   UNL     1      13.211  -0.333  -3.201  1.00  0.00    -0.168 NA
HETATM    8  C   UNL     1      12.355  -1.298  -2.792  1.00  0.00     0.156 A 
HETATM    9  C   UNL     1      10.292   1.556  -2.125  1.00  0.00     0.034 A 
HETATM   10  C   UNL     1       9.101   1.039  -1.602  1.00  0.00     0.032 A 
ENDROOT
BRANCH   1  11
HETATM   11  N   UNL     1       7.649  -0.735  -0.911  1.00  0.00    -0.327 N 
HETATM   12  C   UNL     1       7.151  -2.019  -0.794  1.00  0.00     0.222 C 
HETATM   13  O   UNL     1       7.698  -3.048  -1.177  1.00  0.00    -0.273 OA
HETATM   14  H   UNL     1       7.047   0.018  -0.609  1.00  0.00     0.169 HD
BRANCH  12  15
HETATM   15  C   UNL     1       5.816  -2.094  -0.066  1.00  0.00     0.107 C 
BRANCH  15  16
HETATM   16  C   UNL     1       4.682  -1.281  -0.692  1.00  0.00     0.036 C 
BRANCH  16  17
HETATM   17  C   UNL     1       4.166  -1.684  -2.047  1.00  0.00    -0.025 C 
HETATM   18  C   UNL     1       4.549  -2.737  -2.787  1.00  0.00     0.007 C 
BRANCH  18  19
HETATM   19  C   UNL     1       3.992  -3.038  -4.114  1.00  0.00    -0.036 A 
HETATM   20  C   UNL     1       4.852  -3.497  -5.120  1.00  0.00     0.011 A 
HETATM   21  C   UNL     1       4.357  -3.816  -6.387  1.00  0.00     0.001 A 
HETATM   22  C   UNL     1       2.996  -3.689  -6.657  1.00  0.00     0.000 A 
HETATM   23  C   UNL     1       2.128  -3.250  -5.659  1.00  0.00     0.001 A 
HETATM   24  C   UNL     1       2.623  -2.931  -4.392  1.00  0.00     0.011 A 
ENDBRANCH  18  19
ENDBRANCH  16  17
ENDBRANCH  15  16
ENDBRANCH  12  15
ENDBRANCH   1  11
BRANCH   8  25
HETATM   25  C   UNL     1      12.737  -2.716  -2.831  1.00  0.00     0.270 C 
HETATM   26  N   UNL     1      13.994  -2.942  -3.323  1.00  0.00    -0.365 N 
HETATM   27  H   UNL     1      14.555  -2.146  -3.603  1.00  0.00     0.159 HD
HETATM   28  H   UNL     1      14.350  -3.883  -3.371  1.00  0.00     0.159 HD
HETATM   29  O   UNL     1      12.027  -3.644  -2.459  1.00  0.00    -0.266 OA
ENDBRANCH   8  25
TORSDOF 6
