REMARK  8 active torsions:
REMARK  status: ('A' for Active; 'I' for Inactive)
REMARK    1  A    between atoms: C_4  and  C_5 
REMARK    2  A    between atoms: C_5  and  C_6 
REMARK    3  A    between atoms: C_10  and  S_11 
REMARK    4  A    between atoms: S_11  and  C_12 
REMARK    5  A    between atoms: C_12  and  C_13 
REMARK       I    between atoms: C_13  and  N_14 
REMARK    6  A    between atoms: N_14  and  N_15 
REMARK       I    between atoms: N_15  and  C_16 
REMARK       I    between atoms: C_16  and  N_17 
REMARK    7  A    between atoms: N_17  and  C_18 
REMARK    8  A    between atoms: C_18  and  C_19 
ROOT
HETATM    1  C   UNL     1       4.056  -7.770   0.014  1.00  0.00     0.245 C 
HETATM    2  N   UNL     1       4.148  -8.550  -1.122  1.00  0.00    -0.265 N 
HETATM    3  O   UNL     1       3.650  -8.212   1.092  1.00  0.00    -0.271 OA
HETATM    4  H   UNL     1       4.094  -8.105  -2.043  1.00  0.00     0.190 HD
ENDROOT
BRANCH   1   5
HETATM    5  C   UNL     1       4.422  -6.314  -0.160  1.00  0.00     0.187 C 
BRANCH   5   6
HETATM    6  S   UNL     1       2.964  -5.354  -0.620  1.00  0.00    -0.081 SA
BRANCH   6   7
HETATM    7  C   UNL     1       1.981  -5.293   0.799  1.00  0.00     0.185 A 
HETATM    8  N   UNL     1       1.958  -6.225   1.793  1.00  0.00    -0.254 N 
HETATM    9  N   UNL     1       1.006  -5.945   2.703  1.00  0.00    -0.157 NA
HETATM   10  H   UNL     1       2.511  -7.072   1.897  1.00  0.00     0.191 HD
HETATM   11  C   UNL     1       0.445  -4.849   2.169  1.00  0.00     0.153 A 
HETATM   12  N   UNL     1       1.059  -4.389   1.027  1.00  0.00    -0.206 NA
BRANCH  11  13
HETATM   13  C   UNL     1      -0.751  -4.188   2.757  1.00  0.00     0.120 C 
BRANCH  13  14
HETATM   14  C   UNL     1      -1.916  -4.588   1.880  1.00  0.00    -0.051 A 
HETATM   15  C   UNL     1      -2.590  -5.802   2.089  1.00  0.00     0.007 A 
HETATM   16  C   UNL     1      -3.644  -6.180   1.256  1.00  0.00     0.001 A 
HETATM   17  C   UNL     1      -4.037  -5.351   0.206  1.00  0.00     0.000 A 
HETATM   18  C   UNL     1      -3.376  -4.145  -0.013  1.00  0.00     0.001 A 
HETATM   19  C   UNL     1      -2.320  -3.765   0.817  1.00  0.00     0.007 A 
ENDBRANCH  13  14
ENDBRANCH  11  13
ENDBRANCH   6   7
ENDBRANCH   5   6
ENDBRANCH   1   5
BRANCH   2  20
HETATM   20  N   UNL     1       3.496  -9.810  -1.061  1.00  0.00    -0.249 N 
HETATM   21  C   UNL     1       2.624 -10.083  -2.097  1.00  0.00     0.335 C 
HETATM   22  N   UNL     1       1.812 -11.146  -1.821  1.00  0.00    -0.338 N 
HETATM   23  O   UNL     1       2.589  -9.418  -3.127  1.00  0.00    -0.246 OA
HETATM   24  H   UNL     1       2.131 -11.809  -1.131  1.00  0.00     0.164 HD
HETATM   25  H   UNL     1       3.172 -10.059  -0.127  1.00  0.00     0.192 HD
BRANCH  22  26
HETATM   26  C   UNL     1       0.856 -11.623  -2.793  1.00  0.00     0.162 C 
BRANCH  26  27
HETATM   27  C   UNL     1      -0.255 -12.374  -2.110  1.00  0.00    -0.040 A 
HETATM   28  C   UNL     1      -1.302 -11.671  -1.497  1.00  0.00     0.009 A 
HETATM   29  C   UNL     1      -2.326 -12.354  -0.839  1.00  0.00     0.001 A 
HETATM   30  C   UNL     1      -2.310 -13.746  -0.782  1.00  0.00     0.000 A 
HETATM   31  C   UNL     1      -1.269 -14.456  -1.379  1.00  0.00     0.001 A 
HETATM   32  C   UNL     1      -0.243 -13.774  -2.038  1.00  0.00     0.009 A 
ENDBRANCH  26  27
ENDBRANCH  22  26
ENDBRANCH   2  20
TORSDOF 8
