REMARK  7 active torsions:
REMARK  status: ('A' for Active; 'I' for Inactive)
REMARK    1  A    between atoms: C_2  and  C_3 
REMARK    2  A    between atoms: C_6  and  O_7 
REMARK    3  A    between atoms: O_7  and  C_8 
REMARK    4  A    between atoms: C_8  and  C_9 
REMARK    5  A    between atoms: C_9  and  C_10 
REMARK       I    between atoms: C_10  and  N_11 
REMARK    6  A    between atoms: N_11  and  C_12 
REMARK    7  A    between atoms: C_19  and  C_20 
REMARK       I    between atoms: C_20  and  N_21 
ROOT
HETATM    1  C   UNL     1       3.134  -8.331  -2.440  1.00  0.00     0.224 C 
HETATM    2  N   UNL     1       2.656  -8.220  -1.148  1.00  0.00    -0.327 N 
HETATM    3  O   UNL     1       3.531  -9.357  -2.982  1.00  0.00    -0.273 OA
HETATM    4  H   UNL     1       2.455  -7.276  -0.826  1.00  0.00     0.169 HD
ENDROOT
BRANCH   2   5
HETATM    5  C   UNL     1       2.498  -9.246  -0.194  1.00  0.00     0.035 A 
HETATM    6  C   UNL     1       2.588 -10.611  -0.500  1.00  0.00     0.046 A 
HETATM    7  C   UNL     1       2.392 -11.566   0.522  1.00  0.00     0.030 A 
HETATM    8  C   UNL     1       2.137 -11.124   1.814  1.00  0.00     0.063 A 
HETATM    9  C   UNL     1       2.366 -12.991   0.608  1.00  0.00     0.156 A 
HETATM   10  N   UNL     1       2.012 -12.257   2.567  1.00  0.00    -0.277 N 
HETATM   11  C   UNL     1       2.044  -9.773   2.153  1.00  0.00     0.034 A 
HETATM   12  H   UNL     1       1.832 -12.315   3.563  1.00  0.00     0.189 HD
HETATM   13  N   UNL     1       2.136 -13.402   1.877  1.00  0.00    -0.168 NA
HETATM   14  C   UNL     1       2.217  -8.846   1.119  1.00  0.00     0.032 A 
BRANCH   9  15
HETATM   15  C   UNL     1       2.538 -13.961  -0.483  1.00  0.00     0.270 C 
HETATM   16  N   UNL     1       2.453 -15.268  -0.087  1.00  0.00    -0.365 N 
HETATM   17  H   UNL     1       2.265 -15.467   0.889  1.00  0.00     0.159 HD
HETATM   18  H   UNL     1       2.526 -16.002  -0.773  1.00  0.00     0.159 HD
HETATM   19  O   UNL     1       2.728 -13.667  -1.658  1.00  0.00    -0.266 OA
ENDBRANCH   9  15
ENDBRANCH   2   5
BRANCH   1  20
HETATM   20  C   UNL     1       3.102  -7.026  -3.216  1.00  0.00     0.130 C 
BRANCH  20  21
HETATM   21  C   UNL     1       3.739  -5.873  -2.452  1.00  0.00     0.185 C 
BRANCH  21  22
HETATM   22  O   UNL     1       2.788  -5.430  -1.470  1.00  0.00    -0.351 OA
BRANCH  22  23
HETATM   23  C   UNL     1       3.053  -4.194  -0.950  1.00  0.00     0.068 A 
HETATM   24  C   UNL     1       1.959  -3.345  -0.800  1.00  0.00     0.037 A 
HETATM   25  C   UNL     1       2.128  -2.071  -0.254  1.00  0.00     0.010 A 
HETATM   26  C   UNL     1       3.390  -1.640   0.178  1.00  0.00    -0.055 A 
HETATM   27  C   UNL     1       4.479  -2.515   0.039  1.00  0.00     0.010 A 
HETATM   28  C   UNL     1       4.312  -3.788  -0.518  1.00  0.00     0.037 A 
BRANCH  26  29
HETATM   29  C   UNL     1       3.603  -0.260   0.775  1.00  0.00     0.010 C 
HETATM   30  C   UNL     1       2.669   0.011   1.958  1.00  0.00     0.015 C 
HETATM   31  C   UNL     1       3.456   0.826  -0.293  1.00  0.00     0.015 C 
ENDBRANCH  26  29
ENDBRANCH  22  23
ENDBRANCH  21  22
ENDBRANCH  20  21
ENDBRANCH   1  20
TORSDOF 7
