REMARK  2 active torsions:
REMARK  status: ('A' for Active; 'I' for Inactive)
REMARK    1  A    between atoms: C_9  and  N_10 
REMARK    2  A    between atoms: N_10  and  C_11 
ROOT
HETATM    1  C   UNL     1       0.711   0.192   0.104  1.00  0.00     0.050 C 
HETATM    2  C   UNL     1       2.201   0.056   0.049  1.00  0.00    -0.032 A 
HETATM    3  C   UNL     1       2.927  -1.212   0.014  1.00  0.00     0.053 A 
HETATM    4  C   UNL     1       4.296  -0.988   0.036  1.00  0.00     0.114 A 
HETATM    5  N   UNL     1       5.269  -1.911   0.048  1.00  0.00    -0.226 NA
HETATM    6  C   UNL     1       4.805  -3.160   0.045  1.00  0.00     0.125 A 
HETATM    7  C   UNL     1       5.809  -4.272   0.064  1.00  0.00     0.093 C 
HETATM    8  N   UNL     1       3.512  -3.516   0.012  1.00  0.00    -0.215 NA
HETATM    9  C   UNL     1       2.536  -2.577  -0.016  1.00  0.00     0.143 A 
HETATM   10  S   UNL     1       4.705   0.659   0.037  1.00  0.00    -0.074 SA
HETATM   11  C   UNL     1       3.069   1.142   0.039  1.00  0.00    -0.012 A 
HETATM   12  C   UNL     1       2.740   2.600   0.051  1.00  0.00     0.057 C 
ENDROOT
BRANCH   9  13
HETATM   13  N   UNL     1       1.192  -2.971  -0.122  1.00  0.00    -0.340 N 
HETATM   14  H   UNL     1       0.586  -2.240  -0.457  1.00  0.00     0.167 HD
BRANCH  13  15
HETATM   15  C   UNL     1       0.580  -4.235  -0.040  1.00  0.00     0.036 A 
HETATM   16  C   UNL     1       1.191  -5.354   0.537  1.00  0.00     0.069 A 
HETATM   17  C   UNL     1       0.532  -6.585   0.591  1.00  0.00     0.104 A 
HETATM   18  C   UNL     1      -0.741  -6.726   0.035  1.00  0.00     0.102 A 
HETATM   19  O   UNL     1       1.200  -7.617   1.202  1.00  0.00    -0.346 OA
HETATM   20  O   UNL     1      -1.431  -7.910   0.018  1.00  0.00    -0.346 OA
HETATM   21  C   UNL     1      -1.373  -5.624  -0.530  1.00  0.00     0.042 A 
HETATM   22  C   UNL     1      -0.569  -9.017   0.308  1.00  0.00     0.202 C 
HETATM   23  C   UNL     1       0.320  -8.706   1.500  1.00  0.00     0.202 C 
HETATM   24  C   UNL     1      -0.716  -4.390  -0.565  1.00  0.00     0.032 A 
ENDBRANCH  13  15
ENDBRANCH   9  13
TORSDOF 2
