REMARK  4 active torsions:
REMARK  status: ('A' for Active; 'I' for Inactive)
REMARK    1  A    between atoms: C_5  and  N_6 
REMARK       I    between atoms: N_6  and  C_7 
REMARK    2  A    between atoms: C_7  and  C_8 
REMARK    3  A    between atoms: N_12  and  C_13 
REMARK    4  A    between atoms: C_24  and  O_25 
ROOT
HETATM    1  C   UNL     1      -3.614  -3.228  -0.764  1.00  0.00     0.034 A 
HETATM    2  C   UNL     1      -4.195  -4.434  -0.359  1.00  0.00     0.049 A 
HETATM    3  C   UNL     1      -5.361  -4.349   0.374  1.00  0.00     0.064 A 
HETATM    4  C   UNL     1      -5.987  -3.143   0.710  1.00  0.00     0.066 A 
HETATM    5  N   UNL     1      -7.150  -3.461   1.446  1.00  0.00    -0.293 N 
HETATM    6  C   UNL     1      -7.179  -4.872   1.624  1.00  0.00     0.328 A 
HETATM    7  O   UNL     1      -7.971  -5.536   2.271  1.00  0.00    -0.247 OA
HETATM    8  N   UNL     1      -6.093  -5.393   0.916  1.00  0.00    -0.306 N 
HETATM    9  C   UNL     1      -5.422  -1.950   0.314  1.00  0.00     0.033 A 
HETATM   10  C   UNL     1      -4.233  -1.999  -0.432  1.00  0.00     0.019 A 
HETATM   11  H   UNL     1      -5.884  -6.377   0.881  1.00  0.00     0.171 HD
ENDROOT
BRANCH   1  12
HETATM   12  C   UNL     1      -2.362  -3.178  -1.572  1.00  0.00     0.252 C 
HETATM   13  N   UNL     1      -1.536  -4.275  -1.514  1.00  0.00    -0.346 N 
HETATM   14  H   UNL     1      -1.756  -5.080  -0.947  1.00  0.00     0.163 HD
HETATM   15  O   UNL     1      -2.107  -2.196  -2.258  1.00  0.00    -0.268 OA
BRANCH  13  16
HETATM   16  C   UNL     1      -0.311  -4.338  -2.290  1.00  0.00     0.147 C 
HETATM   17  C   UNL     1       0.575  -5.478  -1.865  1.00  0.00    -0.027 A 
HETATM   18  C   UNL     1       1.103  -6.141  -2.978  1.00  0.00    -0.047 A 
HETATM   19  C   UNL     1       0.931  -5.859  -0.578  1.00  0.00     0.010 A 
HETATM   20  C   UNL     1       1.976  -7.207  -2.829  1.00  0.00     0.008 A 
HETATM   21  C   UNL     1       0.648  -5.507  -4.260  1.00  0.00     0.073 C 
HETATM   22  C   UNL     1       2.317  -7.611  -1.537  1.00  0.00     0.001 A 
HETATM   23  C   UNL     1       1.801  -6.939  -0.419  1.00  0.00     0.001 A 
HETATM   24  C   UNL     1      -0.555  -4.668  -3.795  1.00  0.00     0.149 C 
BRANCH  24  25
HETATM   25  O   UNL     1      -1.755  -5.440  -3.982  1.00  0.00    -0.393 OA
HETATM   26  H   UNL     1      -2.472  -4.895  -3.613  1.00  0.00     0.210 HD
ENDBRANCH  24  25
ENDBRANCH  13  16
ENDBRANCH   1  12
BRANCH   5  27
HETATM   27  C   UNL     1      -8.077  -2.593   2.141  1.00  0.00     0.095 C 
HETATM   28  C   UNL     1      -8.094  -1.105   1.794  1.00  0.00     0.026 C 
HETATM   29  C   UNL     1      -9.412  -0.625   2.382  1.00  0.00     0.002 C 
HETATM   30  C   UNL     1     -10.387  -1.731   2.018  1.00  0.00     0.002 C 
HETATM   31  C   UNL     1      -9.550  -3.008   1.934  1.00  0.00     0.026 C 
ENDBRANCH   5  27
TORSDOF 4
