REMARK  9 active torsions:
REMARK  status: ('A' for Active; 'I' for Inactive)
REMARK    1  A    between atoms: C_2  and  C_3 
REMARK    2  A    between atoms: C_4  and  N_5 
REMARK       I    between atoms: N_5  and  C_6 
REMARK    3  A    between atoms: C_6  and  C_7 
REMARK    4  A    between atoms: C_7  and  S_8 
REMARK    5  A    between atoms: S_8  and  C_9 
REMARK    6  A    between atoms: C_13  and  C_14 
REMARK       I    between atoms: C_14  and  N_15 
REMARK    7  A    between atoms: N_15  and  C_16 
REMARK    8  A    between atoms: C_17  and  O_18 
REMARK    9  A    between atoms: C_25  and  C_26 
ROOT
HETATM    1  C   UNL     1       4.738  -4.297  -4.445  1.00  0.00     0.087 C 
HETATM    2  N   UNL     1       4.841  -4.365  -5.823  1.00  0.00    -0.353 N 
HETATM    3  C   UNL     1       4.508  -5.484  -6.565  1.00  0.00     0.019 C 
HETATM    4  C   UNL     1       4.305  -5.259  -8.043  1.00  0.00     0.069 C 
HETATM    5  C   UNL     1       4.354  -6.670  -5.935  1.00  0.00     0.046 C 
HETATM    6  C   UNL     1       4.576  -6.804  -4.428  1.00  0.00     0.104 C 
HETATM    7  C   UNL     1       4.642  -5.442  -3.722  1.00  0.00     0.055 C 
HETATM    8  C   UNL     1       4.452  -5.367  -2.216  1.00  0.00     0.019 C 
HETATM    9  N   UNL     1       4.294  -5.305  -0.967  1.00  0.00    -0.096 N 
HETATM   10  H   UNL     1       4.787  -3.462  -6.290  1.00  0.00     0.166 HD
ENDROOT
BRANCH   1  11
HETATM   11  S   UNL     1       4.653  -2.707  -3.693  1.00  0.00    -0.102 SA
BRANCH  11  12
HETATM   12  C   UNL     1       2.859  -2.666  -3.333  1.00  0.00     0.184 C 
BRANCH  12  13
HETATM   13  C   UNL     1       2.399  -1.266  -2.954  1.00  0.00     0.231 C 
HETATM   14  N   UNL     1       1.262  -0.735  -3.519  1.00  0.00    -0.326 N 
HETATM   15  H   UNL     1       1.283   0.275  -3.424  1.00  0.00     0.169 HD
HETATM   16  O   UNL     1       3.018  -0.561  -2.152  1.00  0.00    -0.272 OA
BRANCH  14  17
HETATM   17  C   UNL     1       0.552  -1.261  -4.611  1.00  0.00     0.041 A 
HETATM   18  C   UNL     1      -0.175  -2.464  -4.556  1.00  0.00    -0.032 A 
HETATM   19  C   UNL     1      -0.788  -2.928  -5.736  1.00  0.00     0.009 A 
HETATM   20  C   UNL     1      -0.715  -2.196  -6.922  1.00  0.00     0.001 A 
HETATM   21  C   UNL     1      -0.051  -0.975  -6.944  1.00  0.00     0.002 A 
HETATM   22  C   UNL     1       0.568  -0.502  -5.788  1.00  0.00     0.030 A 
BRANCH  18  23
HETATM   23  C   UNL     1      -0.437  -3.231  -3.278  1.00  0.00     0.036 C 
HETATM   24  C   UNL     1      -1.827  -2.949  -2.722  1.00  0.00     0.010 C 
ENDBRANCH  18  23
ENDBRANCH  14  17
ENDBRANCH  12  13
ENDBRANCH  11  12
ENDBRANCH   1  11
BRANCH   6  25
HETATM   25  C   UNL     1       3.580  -7.750  -3.759  1.00  0.00    -0.044 A 
HETATM   26  C   UNL     1       4.049  -8.880  -3.067  1.00  0.00     0.008 A 
HETATM   27  C   UNL     1       3.155  -9.756  -2.451  1.00  0.00     0.001 A 
HETATM   28  C   UNL     1       1.785  -9.517  -2.517  1.00  0.00     0.000 A 
HETATM   29  C   UNL     1       1.306  -8.399  -3.197  1.00  0.00     0.001 A 
HETATM   30  C   UNL     1       2.195  -7.517  -3.811  1.00  0.00     0.008 A 
ENDBRANCH   6  25
BRANCH   5  31
HETATM   31  C   UNL     1       3.776  -7.803  -6.700  1.00  0.00     0.255 C 
HETATM   32  N   UNL     1       4.670  -8.818  -6.929  1.00  0.00    -0.321 N 
HETATM   33  H   UNL     1       5.629  -8.708  -6.618  1.00  0.00     0.169 HD
HETATM   34  O   UNL     1       2.620  -7.718  -7.099  1.00  0.00    -0.268 OA
BRANCH  32  35
HETATM   35  C   UNL     1       4.432 -10.022  -7.633  1.00  0.00     0.068 A 
HETATM   36  C   UNL     1       5.535 -10.876  -7.843  1.00  0.00     0.095 A 
HETATM   37  C   UNL     1       5.358 -12.080  -8.535  1.00  0.00     0.039 A 
HETATM   38  C   UNL     1       4.098 -12.435  -9.020  1.00  0.00     0.003 A 
HETATM   39  C   UNL     1       3.009 -11.594  -8.813  1.00  0.00     0.002 A 
HETATM   40  C   UNL     1       3.175 -10.393  -8.120  1.00  0.00     0.032 A 
BRANCH  36  41
HETATM   41  O   UNL     1       6.733 -10.432  -7.330  1.00  0.00    -0.354 OA
HETATM   42  C   UNL     1       7.888 -11.199  -7.652  1.00  0.00     0.210 C 
ENDBRANCH  36  41
ENDBRANCH  32  35
ENDBRANCH   5  31
TORSDOF 9
