REMARK  8 active torsions:
REMARK  status: ('A' for Active; 'I' for Inactive)
REMARK       I    between atoms: C_2  and  N_3 
REMARK    1  A    between atoms: N_6  and  C_7 
REMARK    2  A    between atoms: C_8  and  N_9 
REMARK    3  A    between atoms: N_9  and  C_10 
REMARK    4  A    between atoms: C_10  and  N_11 
REMARK       I    between atoms: N_11  and  C_12 
REMARK    5  A    between atoms: C_12  and  C_13 
REMARK    6  A    between atoms: C_15  and  O_16 
REMARK    7  A    between atoms: O_16  and  C_17 
REMARK    8  A    between atoms: C_17  and  C_18 
ROOT
HETATM    1  C   UNL     1       7.832  -1.854   3.413  1.00  0.00     0.179 C 
HETATM    2  S   UNL     1       7.545  -0.350   4.086  1.00  0.00    -0.040 SA
ENDROOT
BRANCH   1   3
HETATM    3  N   UNL     1       7.273  -2.174   2.228  1.00  0.00    -0.331 N 
HETATM    4  H   UNL     1       6.967  -1.396   1.648  1.00  0.00     0.168 HD
BRANCH   3   5
HETATM    5  C   UNL     1       6.768  -3.407   1.750  1.00  0.00     0.061 A 
HETATM    6  C   UNL     1       6.342  -3.429   0.391  1.00  0.00     0.057 A 
HETATM    7  C   UNL     1       5.632  -4.555  -0.046  1.00  0.00     0.031 A 
HETATM    8  C   UNL     1       5.402  -5.643   0.803  1.00  0.00     0.002 A 
HETATM    9  C   UNL     1       5.872  -5.623   2.112  1.00  0.00     0.002 A 
HETATM   10  C   UNL     1       6.548  -4.503   2.591  1.00  0.00     0.032 A 
BRANCH   6  11
HETATM   11  N   UNL     1       6.651  -2.338  -0.449  1.00  0.00    -0.376 N 
HETATM   12  C   UNL     1       8.118  -2.182  -0.697  1.00  0.00     0.143 C 
HETATM   13  C   UNL     1       8.561  -2.936  -1.966  1.00  0.00     0.145 C 
HETATM   14  N   UNL     1       7.757  -2.500  -3.114  1.00  0.00    -0.349 N 
HETATM   15  C   UNL     1       8.151  -1.514  -4.004  1.00  0.00     0.215 C 
HETATM   16  C   UNL     1       6.324  -2.739  -2.924  1.00  0.00     0.145 C 
HETATM   17  C   UNL     1       9.624  -1.203  -4.077  1.00  0.00     0.117 C 
HETATM   18  O   UNL     1       7.354  -0.910  -4.722  1.00  0.00    -0.274 OA
HETATM   19  C   UNL     1       5.811  -2.050  -1.640  1.00  0.00     0.143 C 
ENDBRANCH   6  11
ENDBRANCH   3   5
ENDBRANCH   1   3
BRANCH   1  20
HETATM   20  N   UNL     1       8.681  -2.695   4.064  1.00  0.00    -0.299 N 
HETATM   21  C   UNL     1       9.687  -3.448   3.465  1.00  0.00     0.257 C 
HETATM   22  O   UNL     1       9.787  -3.744   2.282  1.00  0.00    -0.267 OA
HETATM   23  H   UNL     1       8.928  -2.321   4.971  1.00  0.00     0.171 HD
BRANCH  21  24
HETATM   24  C   UNL     1      10.777  -3.843   4.396  1.00  0.00     0.035 A 
HETATM   25  C   UNL     1      10.501  -4.253   5.703  1.00  0.00     0.053 A 
HETATM   26  C   UNL     1      11.558  -4.517   6.570  1.00  0.00     0.070 A 
HETATM   27  C   UNL     1      12.881  -4.427   6.140  1.00  0.00     0.037 A 
HETATM   28  C   UNL     1      13.154  -4.047   4.826  1.00  0.00     0.004 A 
HETATM   29  C   UNL     1      12.104  -3.755   3.952  1.00  0.00     0.017 A 
BRANCH  26  30
HETATM   30  O   UNL     1      11.255  -4.931   7.836  1.00  0.00    -0.347 OA
BRANCH  30  31
HETATM   31  C   UNL     1      11.490  -3.887   8.788  1.00  0.00     0.214 C 
BRANCH  31  32
HETATM   32  C   UNL     1      10.610  -4.157   9.982  1.00  0.00    -0.034 A 
HETATM   33  C   UNL     1      11.035  -5.027  10.995  1.00  0.00     0.009 A 
HETATM   34  C   UNL     1      10.204  -5.307  12.081  1.00  0.00     0.001 A 
HETATM   35  C   UNL     1       8.939  -4.728  12.160  1.00  0.00     0.000 A 
HETATM   36  C   UNL     1       8.502  -3.870  11.153  1.00  0.00     0.001 A 
HETATM   37  C   UNL     1       9.331  -3.587  10.067  1.00  0.00     0.009 A 
ENDBRANCH  31  32
ENDBRANCH  30  31
ENDBRANCH  26  30
ENDBRANCH  21  24
ENDBRANCH   1  20
TORSDOF 8
