REMARK  6 active torsions:
REMARK  status: ('A' for Active; 'I' for Inactive)
REMARK    1  A    between atoms: C_8  and  C_9 
REMARK    2  A    between atoms: C_9  and  C_10 
REMARK       I    between atoms: C_10  and  N_11 
REMARK    3  A    between atoms: N_11  and  C_12 
REMARK    4  A    between atoms: C_12  and  C_13 
REMARK    5  A    between atoms: C_13  and  N_14 
REMARK    6  A    between atoms: C_13  and  C_20 
ROOT
HETATM    1  C   UNL     1       0.792  -5.821   2.952  1.00  0.00     0.160 C 
ENDROOT
BRANCH   1   2
HETATM    2  N   UNL     1       2.214  -6.027   3.205  1.00  0.00    -0.358 N 
HETATM    3  C   UNL     1       2.685  -6.059   4.504  1.00  0.00     0.226 C 
HETATM    4  O   UNL     1       1.971  -5.633   5.416  1.00  0.00    -0.273 OA
HETATM    5  H   UNL     1       2.726  -6.566   2.514  1.00  0.00     0.162 HD
BRANCH   3   6
HETATM    6  C   UNL     1       4.119  -6.555   4.727  1.00  0.00     0.111 C 
HETATM    7  C   UNL     1       5.069  -6.244   3.570  1.00  0.00     0.025 C 
BRANCH   6   8
HETATM    8  C   UNL     1       4.179  -7.996   5.148  1.00  0.00     0.004 A 
HETATM    9  C   UNL     1       4.854  -8.494   6.254  1.00  0.00     0.033 A 
HETATM   10  C   UNL     1       5.661  -7.833   7.308  1.00  0.00     0.070 C 
HETATM   11  N   UNL     1       4.660  -9.846   6.244  1.00  0.00    -0.282 N 
HETATM   12  H   UNL     1       5.007 -10.538   6.902  1.00  0.00     0.189 HD
HETATM   13  N   UNL     1       3.924 -10.269   5.213  1.00  0.00    -0.179 NA
HETATM   14  C   UNL     1       3.633  -9.160   4.527  1.00  0.00     0.060 A 
HETATM   15  C   UNL     1       2.835  -9.294   3.284  1.00  0.00     0.073 C 
ENDBRANCH   6   8
ENDBRANCH   3   6
ENDBRANCH   1   2
BRANCH   1  16
HETATM   16  C   UNL     1       0.281  -4.337   2.945  1.00  0.00     0.238 C 
BRANCH  16  17
HETATM   17  N   UNL     1       0.820  -3.540   4.146  1.00  0.00    -0.061 N 
HETATM   18  H   UNL     1       0.945  -4.238   4.910  1.00  0.00     0.280 HD
HETATM   19  C   UNL     1      -0.023  -2.399   4.674  1.00  0.00     0.236 C 
HETATM   20  C   UNL     1       0.557  -1.181   3.993  1.00  0.00     0.029 C 
HETATM   21  C   UNL     1       2.044  -1.432   4.106  1.00  0.00     0.029 C 
HETATM   22  C   UNL     1       2.199  -2.928   3.892  1.00  0.00     0.236 C 
ENDBRANCH  16  17
BRANCH  16  23
HETATM   23  C   UNL     1      -1.232  -4.334   2.786  1.00  0.00    -0.024 A 
HETATM   24  C   UNL     1      -2.081  -4.908   3.751  1.00  0.00     0.033 A 
HETATM   25  C   UNL     1      -3.467  -4.882   3.578  1.00  0.00     0.034 A 
HETATM   26 CL   UNL     1      -4.483  -5.567   4.783  1.00  0.00    -0.084 Cl
HETATM   27  C   UNL     1      -4.028  -4.299   2.447  1.00  0.00     0.024 A 
HETATM   28  C   UNL     1      -3.200  -3.732   1.480  1.00  0.00     0.002 A 
HETATM   29  C   UNL     1      -1.814  -3.747   1.647  1.00  0.00     0.009 A 
ENDBRANCH  16  23
ENDBRANCH   1  16
TORSDOF 6
