REMARK  3 active torsions:
REMARK  status: ('A' for Active; 'I' for Inactive)
REMARK    1  A    between atoms: C_8  and  C_9 
REMARK    2  A    between atoms: C_16  and  O_17 
REMARK    3  A    between atoms: C_24  and  N_25 
ROOT
HETATM    1  C   UNL     1      -0.202   2.370  -0.633  1.00  0.00     0.073 C 
HETATM    2  C   UNL     1       0.906   1.394  -0.773  1.00  0.00     0.062 A 
HETATM    3  N   UNL     1       0.675   0.174  -1.289  1.00  0.00    -0.177 NA
HETATM    4  N   UNL     1       1.882  -0.428  -1.277  1.00  0.00    -0.256 N 
HETATM    5  H   UNL     1       1.963  -1.372  -1.637  1.00  0.00     0.191 HD
HETATM    6  C   UNL     1       2.859   0.368  -0.773  1.00  0.00     0.175 A 
HETATM    7  C   UNL     1       2.267   1.552  -0.420  1.00  0.00     0.034 A 
HETATM    8  C   UNL     1       3.089   2.656   0.153  1.00  0.00     0.106 A 
HETATM    9  C   UNL     1       4.568   2.253   0.192  1.00  0.00     0.081 A 
HETATM   10  C   UNL     1       5.488   3.253   0.623  1.00  0.00     0.100 C 
HETATM   11  N   UNL     1       6.246   4.059   0.974  1.00  0.00    -0.191 NA
HETATM   12  C   UNL     1       5.013   1.027  -0.199  1.00  0.00     0.140 A 
HETATM   13  O   UNL     1       4.138   0.030  -0.670  1.00  0.00    -0.279 OA
ENDROOT
BRANCH   8  14
HETATM   14  C   UNL     1       2.506   2.947   1.540  1.00  0.00    -0.033 A 
HETATM   15  C   UNL     1       1.958   4.219   1.896  1.00  0.00    -0.016 A 
HETATM   16  C   UNL     1       1.451   4.407   3.216  1.00  0.00     0.008 A 
HETATM   17  C   UNL     1       1.884   5.326   1.010  1.00  0.00     0.013 A 
HETATM   18  C   UNL     1       0.907   5.662   3.569  1.00  0.00     0.015 A 
HETATM   19  C   UNL     1       1.501   3.348   4.157  1.00  0.00     0.079 A 
HETATM   20  C   UNL     1       0.850   6.725   2.672  1.00  0.00     0.001 A 
HETATM   21  C   UNL     1       1.340   6.556   1.390  1.00  0.00     0.001 A 
HETATM   22  C   UNL     1       2.042   2.118   3.796  1.00  0.00     0.038 A 
HETATM   23  C   UNL     1       2.539   1.923   2.512  1.00  0.00     0.012 A 
BRANCH  19  24
HETATM   24  O   UNL     1       0.991   3.616   5.407  1.00  0.00    -0.355 OA
HETATM   25  C   UNL     1       1.106   2.609   6.403  1.00  0.00     0.210 C 
ENDBRANCH  19  24
ENDBRANCH   8  14
BRANCH  12  26
HETATM   26  N   UNL     1       6.327   0.615  -0.189  1.00  0.00    -0.282 NA
HETATM   27  H   UNL     1       6.938   1.105   0.459  1.00  0.00     0.126 HD
HETATM   28  H   UNL     1       6.413  -0.397  -0.133  1.00  0.00     0.126 HD
ENDBRANCH  12  26
TORSDOF 3
