REMARK  5 active torsions:
REMARK  status: ('A' for Active; 'I' for Inactive)
REMARK    1  A    between atoms: C_2  and  C_3 
REMARK    2  A    between atoms: C_11  and  N_12 
REMARK       I    between atoms: N_12  and  C_13 
REMARK    3  A    between atoms: C_13  and  C_14 
REMARK    4  A    between atoms: C_16  and  O_17 
REMARK    5  A    between atoms: O_17  and  C_18 
ROOT
HETATM    1  N   UNL     1      -1.460  -2.273  -0.479  1.00  0.00    -0.323 N 
HETATM    2  C   UNL     1      -2.784  -2.536  -0.783  1.00  0.00     0.256 C 
HETATM    3  O   UNL     1      -3.247  -3.605  -1.164  1.00  0.00    -0.267 OA
HETATM    4  H   UNL     1      -1.210  -1.325  -0.240  1.00  0.00     0.169 HD
ENDROOT
BRANCH   1   5
HETATM    5  C   UNL     1      -0.375  -3.174  -0.572  1.00  0.00     0.035 A 
HETATM    6  C   UNL     1      -0.494  -4.502  -0.982  1.00  0.00     0.030 A 
HETATM    7  C   UNL     1       0.638  -5.323  -1.092  1.00  0.00     0.016 A 
HETATM    8  C   UNL     1       1.914  -4.835  -0.789  1.00  0.00    -0.005 A 
HETATM    9  C   UNL     1       2.025  -3.509  -0.351  1.00  0.00     0.016 A 
HETATM   10  C   UNL     1       0.895  -2.687  -0.247  1.00  0.00     0.030 A 
BRANCH   8  11
HETATM   11  C   UNL     1       3.106  -5.678  -0.936  1.00  0.00     0.088 A 
HETATM   12  N   UNL     1       4.306  -5.296  -0.462  1.00  0.00    -0.175 NA
HETATM   13  N   UNL     1       5.138  -6.296  -0.787  1.00  0.00    -0.289 N 
HETATM   14  H   UNL     1       6.113  -6.215  -0.518  1.00  0.00     0.188 HD
HETATM   15  C   UNL     1       4.534  -7.311  -1.460  1.00  0.00     0.111 A 
HETATM   16  C   UNL     1       3.216  -6.947  -1.574  1.00  0.00     0.053 A 
ENDBRANCH   8  11
ENDBRANCH   1   5
BRANCH   2  17
HETATM   17  C   UNL     1      -3.724  -1.386  -0.657  1.00  0.00     0.037 A 
HETATM   18  C   UNL     1      -4.855  -1.385  -1.474  1.00  0.00     0.075 A 
HETATM   19  C   UNL     1      -5.747  -0.341  -1.349  1.00  0.00     0.165 A 
HETATM   20  N   UNL     1      -5.588   0.686  -0.490  1.00  0.00    -0.237 NA
HETATM   21  C   UNL     1      -4.491   0.656   0.296  1.00  0.00     0.120 A 
HETATM   22  C   UNL     1      -3.539  -0.350   0.258  1.00  0.00     0.036 A 
BRANCH  19  23
HETATM   23  O   UNL     1      -6.859  -0.379  -2.168  1.00  0.00    -0.329 OA
BRANCH  23  24
HETATM   24  C   UNL     1      -7.896   0.582  -1.886  1.00  0.00     0.130 C 
HETATM   25  C   UNL     1      -7.692   2.025  -2.419  1.00  0.00     0.032 C 
HETATM   26  C   UNL     1      -9.191   2.040  -2.771  1.00  0.00     0.005 C 
HETATM   27  C   UNL     1      -9.119   0.504  -2.839  1.00  0.00     0.032 C 
ENDBRANCH  23  24
ENDBRANCH  19  23
ENDBRANCH   2  17
TORSDOF 5
