REMARK  8 active torsions:
REMARK  status: ('A' for Active; 'I' for Inactive)
REMARK    1  A    between atoms: O_2  and  C_3 
REMARK    2  A    between atoms: C_4  and  O_5 
REMARK    3  A    between atoms: C_6  and  O_7 
REMARK    4  A    between atoms: C_10  and  C_11 
REMARK    5  A    between atoms: C_11  and  N_12 
REMARK    6  A    between atoms: C_16  and  C_17 
REMARK       I    between atoms: C_17  and  N_18 
REMARK    7  A    between atoms: N_21  and  C_23 
REMARK    8  A    between atoms: C_23  and  C_24 
ROOT
HETATM    1  N   UNL     1       2.074  -4.931  -0.402  1.00  0.00    -0.067 N 
HETATM    2  H   UNL     1       1.108  -5.233  -0.591  1.00  0.00     0.280 HD
HETATM    3  C   UNL     1       2.809  -6.102   0.197  1.00  0.00     0.236 C 
HETATM    4  C   UNL     1       2.217  -6.472   1.557  1.00  0.00     0.042 C 
HETATM    5  C   UNL     1       2.222  -5.293   2.532  1.00  0.00     0.081 C 
HETATM    6  C   UNL     1       1.511  -4.093   1.889  1.00  0.00     0.042 C 
HETATM    7  C   UNL     1       2.017  -3.723   0.500  1.00  0.00     0.236 C 
ENDROOT
BRANCH   5   8
HETATM    8  C   UNL     1       3.668  -4.969   2.922  1.00  0.00     0.224 C 
HETATM    9  N   UNL     1       4.309  -5.742   3.892  1.00  0.00    -0.349 N 
HETATM   10  C   UNL     1       5.711  -5.379   4.156  1.00  0.00     0.153 C 
HETATM   11  C   UNL     1       3.593  -6.343   5.029  1.00  0.00     0.153 C 
HETATM   12  C   UNL     1       6.517  -6.492   4.835  1.00  0.00     0.255 C 
HETATM   13  N   UNL     1       5.809  -6.957   6.098  1.00  0.00    -0.064 N 
HETATM   14  H   UNL     1       5.759  -6.150   6.734  1.00  0.00     0.280 HD
HETATM   15  C   UNL     1       4.399  -7.423   5.782  1.00  0.00     0.255 C 
HETATM   16  O   UNL     1       4.292  -4.129   2.271  1.00  0.00    -0.273 OA
BRANCH  13  17
HETATM   17  C   UNL     1       6.577  -8.034   6.849  1.00  0.00     0.273 C 
BRANCH  17  18
HETATM   18  C   UNL     1       7.989  -7.642   7.193  1.00  0.00    -0.030 A 
HETATM   19  C   UNL     1       9.059  -8.158   6.439  1.00  0.00     0.048 A 
HETATM   20  C   UNL     1      10.335  -7.736   6.744  1.00  0.00     0.105 A 
HETATM   21  C   UNL     1      10.581  -6.843   7.757  1.00  0.00     0.105 A 
HETATM   22  O   UNL     1      11.468  -8.121   6.102  1.00  0.00    -0.323 OA
HETATM   23  O   UNL     1      11.902  -6.558   7.884  1.00  0.00    -0.323 OA
HETATM   24  C   UNL     1       9.562  -6.324   8.525  1.00  0.00     0.040 A 
HETATM   25  C   UNL     1      12.470  -7.400   6.857  1.00  0.00     0.352 A 
HETATM   26  C   UNL     1       8.253  -6.727   8.239  1.00  0.00     0.012 A 
ENDBRANCH  17  18
ENDBRANCH  13  17
ENDBRANCH   5   8
BRANCH   1  27
HETATM   27  C   UNL     1       2.652  -4.519  -1.753  1.00  0.00     0.273 C 
BRANCH  27  28
HETATM   28  C   UNL     1       2.599  -5.605  -2.791  1.00  0.00    -0.027 A 
HETATM   29  C   UNL     1       1.371  -5.969  -3.359  1.00  0.00     0.048 A 
HETATM   30  C   UNL     1       1.315  -6.990  -4.302  1.00  0.00     0.104 A 
HETATM   31  C   UNL     1       2.474  -7.676  -4.662  1.00  0.00     0.133 A 
HETATM   32  C   UNL     1       3.712  -7.330  -4.110  1.00  0.00     0.104 A 
HETATM   33  C   UNL     1       3.770  -6.289  -3.179  1.00  0.00     0.048 A 
BRANCH  30  34
HETATM   34  O   UNL     1       0.092  -7.351  -4.794  1.00  0.00    -0.353 OA
HETATM   35  C   UNL     1      -0.204  -6.611  -5.980  1.00  0.00     0.210 C 
ENDBRANCH  30  34
BRANCH  31  36
HETATM   36  O   UNL     1       2.397  -8.698  -5.571  1.00  0.00    -0.356 OA
HETATM   37  H   UNL     1       3.310  -9.021  -5.700  1.00  0.00     0.218 HD
ENDBRANCH  31  36
BRANCH  32  38
HETATM   38  O   UNL     1       4.770  -8.084  -4.542  1.00  0.00    -0.353 OA
HETATM   39  C   UNL     1       6.064  -7.742  -4.061  1.00  0.00     0.210 C 
ENDBRANCH  32  38
ENDBRANCH  27  28
ENDBRANCH   1  27
TORSDOF 8
