REMARK  7 active torsions:
REMARK  status: ('A' for Active; 'I' for Inactive)
REMARK    1  A    between atoms: C_3  and  O_4 
REMARK    2  A    between atoms: C_5  and  C_6 
REMARK       I    between atoms: C_6  and  N_7 
REMARK    3  A    between atoms: N_7  and  C_8 
REMARK    4  A    between atoms: C_8  and  C_9 
REMARK    5  A    between atoms: C_9  and  C_10 
REMARK    6  A    between atoms: C_10  and  C_11 
REMARK    7  A    between atoms: C_15  and  C_16 
ROOT
HETATM    1  C   UNL     1       7.765  -3.695  -0.314  1.00  0.00     0.126 C 
ENDROOT
BRANCH   1   2
HETATM    2  N   UNL     1       7.259  -2.327  -0.165  1.00  0.00    -0.352 N 
HETATM    3  C   UNL     1       6.699  -1.580  -1.208  1.00  0.00     0.256 C 
HETATM    4  O   UNL     1       5.881  -0.676  -1.016  1.00  0.00    -0.267 OA
HETATM    5  C   UNL     1       6.881  -1.933   1.186  1.00  0.00     0.152 C 
BRANCH   3   6
HETATM    6  C   UNL     1       7.018  -1.879  -2.625  1.00  0.00     0.065 A 
HETATM    7  C   UNL     1       5.983  -1.869  -3.576  1.00  0.00     0.087 A 
HETATM    8  C   UNL     1       6.242  -2.151  -4.923  1.00  0.00    -0.028 A 
HETATM    9  C   UNL     1       5.134  -2.145  -5.937  1.00  0.00     0.051 C 
HETATM   10  C   UNL     1       7.561  -2.416  -5.315  1.00  0.00     0.009 A 
HETATM   11  C   UNL     1       8.603  -2.370  -4.386  1.00  0.00     0.002 A 
HETATM   12  C   UNL     1       8.336  -2.083  -3.046  1.00  0.00     0.020 A 
BRANCH   7  13
HETATM   13  O   UNL     1       4.690  -1.565  -3.227  1.00  0.00    -0.359 OA
HETATM   14  H   UNL     1       4.725  -1.065  -2.381  1.00  0.00     0.218 HD
ENDBRANCH   7  13
ENDBRANCH   3   6
ENDBRANCH   1   2
BRANCH   1  15
HETATM   15  C   UNL     1       6.649  -4.735  -0.454  1.00  0.00     0.026 C 
BRANCH  15  16
HETATM   16  C   UNL     1       7.253  -6.131  -0.609  1.00  0.00     0.060 C 
BRANCH  16  17
HETATM   17  C   UNL     1       6.270  -7.242  -0.755  1.00  0.00     0.030 A 
HETATM   18  N   UNL     1       4.927  -7.090  -0.955  1.00  0.00    -0.282 N 
HETATM   19  H   UNL     1       4.393  -6.230  -1.025  1.00  0.00     0.189 HD
HETATM   20  N   UNL     1       4.261  -8.247  -1.071  1.00  0.00    -0.174 NA
HETATM   21  C   UNL     1       5.200  -9.203  -0.966  1.00  0.00     0.089 A 
HETATM   22  C   UNL     1       6.473  -8.606  -0.755  1.00  0.00     0.060 A 
BRANCH  21  23
HETATM   23  C   UNL     1       4.870 -10.631  -1.073  1.00  0.00    -0.006 A 
HETATM   24  C   UNL     1       3.533 -11.049  -1.165  1.00  0.00     0.014 A 
HETATM   25  C   UNL     1       3.208 -12.404  -1.274  1.00  0.00     0.001 A 
HETATM   26  C   UNL     1       4.218 -13.363  -1.294  1.00  0.00     0.000 A 
HETATM   27  C   UNL     1       5.551 -12.967  -1.206  1.00  0.00     0.001 A 
HETATM   28  C   UNL     1       5.875 -11.611  -1.096  1.00  0.00     0.014 A 
ENDBRANCH  21  23
ENDBRANCH  16  17
ENDBRANCH  15  16
ENDBRANCH   1  15
TORSDOF 7
