REMARK  5 active torsions:
REMARK  status: ('A' for Active; 'I' for Inactive)
REMARK    1  A    between atoms: O_2  and  C_3 
REMARK    2  A    between atoms: C_6  and  C_7 
REMARK    3  A    between atoms: C_12  and  C_13 
REMARK    4  A    between atoms: N_14  and  N_15 
REMARK       I    between atoms: N_15  and  C_16 
REMARK    5  A    between atoms: C_16  and  C_17 
ROOT
HETATM    1  C   UNL     1       7.106   3.782  -1.908  1.00  0.00     0.154 C 
HETATM    2  N   UNL     1       8.320   4.043  -2.277  1.00  0.00    -0.183 NA
ENDROOT
BRANCH   1   3
HETATM    3  C   UNL     1       6.275   4.872  -1.443  1.00  0.00     0.031 A 
HETATM    4  C   UNL     1       4.955   4.834  -0.889  1.00  0.00     0.100 A 
HETATM    5  N   UNL     1       4.511   6.077  -0.630  1.00  0.00    -0.174 NA
HETATM    6  N   UNL     1       5.525   6.879  -0.974  1.00  0.00    -0.288 N 
HETATM    7  H   UNL     1       5.409   7.879  -0.851  1.00  0.00     0.188 HD
HETATM    8  C   UNL     1       6.603   6.213  -1.464  1.00  0.00     0.124 A 
BRANCH   4   9
HETATM    9  C   UNL     1       4.103   3.676  -0.607  1.00  0.00    -0.005 A 
HETATM   10  C   UNL     1       2.737   3.723  -0.916  1.00  0.00     0.016 A 
HETATM   11  C   UNL     1       1.903   2.627  -0.659  1.00  0.00     0.037 A 
HETATM   12  C   UNL     1       2.426   1.470  -0.085  1.00  0.00     0.068 A 
HETATM   13  C   UNL     1       3.784   1.424   0.238  1.00  0.00     0.037 A 
HETATM   14  C   UNL     1       4.617   2.520  -0.012  1.00  0.00     0.016 A 
BRANCH  12  15
HETATM   15  O   UNL     1       1.729   0.332   0.214  1.00  0.00    -0.356 OA
HETATM   16  C   UNL     1       0.337   0.338  -0.075  1.00  0.00     0.210 C 
ENDBRANCH  12  15
ENDBRANCH   4   9
ENDBRANCH   1   3
BRANCH   2  17
HETATM   17  N   UNL     1       9.119   3.023  -2.733  1.00  0.00    -0.243 N 
HETATM   18  C   UNL     1       8.690   1.844  -3.331  1.00  0.00     0.271 C 
HETATM   19  O   UNL     1       7.523   1.525  -3.533  1.00  0.00    -0.266 OA
HETATM   20  H   UNL     1      10.084   3.309  -2.863  1.00  0.00     0.192 HD
BRANCH  18  21
HETATM   21  C   UNL     1       9.774   0.926  -3.791  1.00  0.00     0.036 A 
HETATM   22  C   UNL     1      11.039   0.908  -3.184  1.00  0.00     0.057 A 
HETATM   23  C   UNL     1      11.969   0.014  -3.675  1.00  0.00     0.106 A 
HETATM   24  C   UNL     1      11.684  -0.844  -4.712  1.00  0.00     0.105 A 
HETATM   25  O   UNL     1      13.239  -0.138  -3.211  1.00  0.00    -0.323 OA
HETATM   26  O   UNL     1      12.739  -1.641  -5.031  1.00  0.00    -0.323 OA
HETATM   27  C   UNL     1      10.449  -0.863  -5.318  1.00  0.00     0.041 A 
HETATM   28  C   UNL     1      13.721  -1.191  -4.075  1.00  0.00     0.352 A 
HETATM   29  C   UNL     1       9.483   0.032  -4.847  1.00  0.00     0.020 A 
ENDBRANCH  18  21
ENDBRANCH   2  17
TORSDOF 5
