REMARK  9 active torsions:
REMARK  status: ('A' for Active; 'I' for Inactive)
REMARK    1  A    between atoms: C_2  and  O_3 
REMARK    2  A    between atoms: O_3  and  C_4 
REMARK    3  A    between atoms: C_7  and  N_8 
REMARK       I    between atoms: N_8  and  C_9 
REMARK    4  A    between atoms: C_9  and  C_10 
REMARK    5  A    between atoms: C_10  and  S_11 
REMARK    6  A    between atoms: S_11  and  C_12 
REMARK    7  A    between atoms: C_16  and  C_17 
REMARK       I    between atoms: C_17  and  N_18 
REMARK    8  A    between atoms: N_18  and  C_19 
REMARK    9  A    between atoms: C_27  and  C_28 
ROOT
HETATM    1  C   UNL     1       6.623  -2.251  -1.178  1.00  0.00     0.087 C 
HETATM    2  N   UNL     1       7.537  -3.235  -0.843  1.00  0.00    -0.353 N 
HETATM    3  C   UNL     1       7.212  -4.570  -0.709  1.00  0.00     0.019 C 
HETATM    4  C   UNL     1       8.378  -5.526  -0.652  1.00  0.00     0.069 C 
HETATM    5  C   UNL     1       5.904  -4.917  -0.679  1.00  0.00     0.046 C 
HETATM    6  C   UNL     1       4.820  -3.846  -0.499  1.00  0.00     0.104 C 
HETATM    7  C   UNL     1       5.301  -2.464  -0.960  1.00  0.00     0.055 C 
HETATM    8  C   UNL     1       4.302  -1.321  -1.034  1.00  0.00     0.019 C 
HETATM    9  N   UNL     1       3.474  -0.373  -1.096  1.00  0.00    -0.096 N 
HETATM   10  H   UNL     1       8.512  -2.999  -1.019  1.00  0.00     0.166 HD
ENDROOT
BRANCH   1  11
HETATM   11  S   UNL     1       7.204  -0.821  -2.020  1.00  0.00    -0.102 SA
BRANCH  11  12
HETATM   12  C   UNL     1       7.411  -1.645  -3.639  1.00  0.00     0.184 C 
BRANCH  12  13
HETATM   13  C   UNL     1       8.184  -0.833  -4.654  1.00  0.00     0.231 C 
HETATM   14  N   UNL     1       7.697   0.444  -4.841  1.00  0.00    -0.327 N 
HETATM   15  H   UNL     1       7.123   0.822  -4.095  1.00  0.00     0.169 HD
HETATM   16  O   UNL     1       9.088  -1.366  -5.295  1.00  0.00    -0.272 OA
BRANCH  14  17
HETATM   17  C   UNL     1       7.959   1.291  -5.936  1.00  0.00     0.034 A 
HETATM   18  C   UNL     1       8.595   0.868  -7.104  1.00  0.00     0.032 A 
HETATM   19  C   UNL     1       8.746   1.744  -8.182  1.00  0.00     0.039 A 
HETATM   20  C   UNL     1       8.268   3.053  -8.112  1.00  0.00     0.068 A 
HETATM   21  C   UNL     1       7.655   3.487  -6.938  1.00  0.00     0.039 A 
HETATM   22  C   UNL     1       7.494   2.608  -5.860  1.00  0.00     0.032 A 
BRANCH  20  23
HETATM   23  O   UNL     1       8.458   3.791  -9.245  1.00  0.00    -0.352 OA
BRANCH  23  24
HETATM   24  C   UNL     1       7.848   5.080  -9.287  1.00  0.00     0.171 C 
HETATM   25  C   UNL     1       8.024   5.633 -10.690  1.00  0.00     0.034 C 
ENDBRANCH  23  24
ENDBRANCH  20  23
ENDBRANCH  14  17
ENDBRANCH  12  13
ENDBRANCH  11  12
ENDBRANCH   1  11
BRANCH   6  26
HETATM   26  C   UNL     1       4.302  -3.828   0.938  1.00  0.00    -0.042 A 
HETATM   27  C   UNL     1       5.025  -3.237   1.983  1.00  0.00     0.027 A 
HETATM   28  C   UNL     1       4.504  -3.280   3.268  1.00  0.00     0.116 A 
HETATM   29  N   UNL     1       3.337  -3.876   3.586  1.00  0.00    -0.273 NA
HETATM   30  C   UNL     1       2.663  -4.460   2.574  1.00  0.00     0.116 A 
HETATM   31  C   UNL     1       3.094  -4.460   1.256  1.00  0.00     0.027 A 
ENDBRANCH   6  26
BRANCH   5  32
HETATM   32  C   UNL     1       5.443  -6.310  -0.965  1.00  0.00     0.255 C 
HETATM   33  N   UNL     1       6.073  -6.838  -2.080  1.00  0.00    -0.323 N 
HETATM   34  H   UNL     1       6.743  -6.243  -2.547  1.00  0.00     0.169 HD
HETATM   35  O   UNL     1       4.537  -6.816  -0.320  1.00  0.00    -0.268 OA
BRANCH  33  36
HETATM   36  C   UNL     1       5.930  -8.119  -2.644  1.00  0.00     0.035 A 
HETATM   37  C   UNL     1       5.008  -9.070  -2.207  1.00  0.00     0.031 A 
HETATM   38  C   UNL     1       4.942 -10.322  -2.830  1.00  0.00     0.026 A 
HETATM   39  C   UNL     1       5.803 -10.628  -3.882  1.00  0.00     0.034 A 
HETATM   40 CL   UNL     1       5.723 -12.170  -4.640  1.00  0.00    -0.084 Cl
HETATM   41  C   UNL     1       6.730  -9.690  -4.323  1.00  0.00     0.026 A 
HETATM   42  C   UNL     1       6.788  -8.437  -3.708  1.00  0.00     0.031 A 
ENDBRANCH  33  36
ENDBRANCH   5  32
TORSDOF 9
