REMARK  5 active torsions:
REMARK  status: ('A' for Active; 'I' for Inactive)
REMARK    1  A    between atoms: C_2  and  O_3 
REMARK    2  A    between atoms: O_3  and  C_4 
REMARK    3  A    between atoms: C_5  and  C_6 
REMARK    4  A    between atoms: C_7  and  C_8 
REMARK       I    between atoms: C_8  and  N_9 
REMARK    5  A    between atoms: N_9  and  C_10 
ROOT
HETATM    1  C   UNL     1       3.952   4.036  -0.375  1.00  0.00     0.041 C 
HETATM    2  C   UNL     1       4.468   5.277  -0.499  1.00  0.00     0.099 C 
HETATM    3  C   UNL     1       5.968   5.519  -0.552  1.00  0.00     0.025 C 
HETATM    4  N   UNL     1       7.212   5.720  -0.595  1.00  0.00    -0.096 N 
ENDROOT
BRANCH   2   5
HETATM    5  C   UNL     1       3.517   6.437  -0.631  1.00  0.00     0.265 C 
HETATM    6  N   UNL     1       4.113   7.667  -0.855  1.00  0.00    -0.321 N 
HETATM    7  H   UNL     1       5.088   7.660  -1.121  1.00  0.00     0.169 HD
HETATM    8  O   UNL     1       2.305   6.230  -0.617  1.00  0.00    -0.267 OA
BRANCH   6   9
HETATM    9  C   UNL     1       3.446   8.896  -1.119  1.00  0.00     0.047 A 
HETATM   10  C   UNL     1       2.244   9.298  -0.495  1.00  0.00    -0.035 A 
HETATM   11  C   UNL     1       1.573   8.567   0.637  1.00  0.00     0.050 C 
HETATM   12  C   UNL     1       1.628  10.499  -0.901  1.00  0.00     0.009 A 
HETATM   13  C   UNL     1       2.215  11.329  -1.848  1.00  0.00     0.001 A 
HETATM   14  C   UNL     1       3.438  10.978  -2.403  1.00  0.00     0.009 A 
HETATM   15  C   UNL     1       4.067   9.772  -2.048  1.00  0.00    -0.035 A 
HETATM   16  C   UNL     1       5.379   9.448  -2.718  1.00  0.00     0.050 C 
ENDBRANCH   6   9
ENDBRANCH   2   5
BRANCH   1  17
HETATM   17  C   UNL     1       4.656   2.728  -0.373  1.00  0.00     0.002 A 
HETATM   18  C   UNL     1       4.059   1.625  -1.054  1.00  0.00     0.079 A 
HETATM   19  C   UNL     1       4.690   0.372  -1.092  1.00  0.00     0.047 A 
HETATM   20  C   UNL     1       5.935   0.250  -0.509  1.00  0.00    -0.020 A 
HETATM   21  C   UNL     1       6.515   1.316   0.154  1.00  0.00     0.076 A 
HETATM   22  C   UNL     1       6.826  -0.929  -0.409  1.00  0.00     0.073 C 
HETATM   23  C   UNL     1       5.887   2.539   0.274  1.00  0.00     0.051 A 
HETATM   24  O   UNL     1       7.764   1.036   0.651  1.00  0.00    -0.345 OA
HETATM   25  C   UNL     1       8.122  -0.217   0.009  1.00  0.00     0.129 C 
HETATM   26  C   UNL     1       9.040   0.078  -1.180  1.00  0.00     0.040 C 
BRANCH  18  27
HETATM   27  O   UNL     1       2.839   1.862  -1.642  1.00  0.00    -0.351 OA
BRANCH  27  28
HETATM   28  C   UNL     1       2.468   1.010  -2.725  1.00  0.00     0.171 C 
HETATM   29  C   UNL     1       1.339   1.688  -3.479  1.00  0.00     0.034 C 
ENDBRANCH  27  28
ENDBRANCH  18  27
ENDBRANCH   1  17
TORSDOF 5
