REMARK  10 active torsions:
REMARK  status: ('A' for Active; 'I' for Inactive)
REMARK    1  A    between atoms: C_3  and  C_4 
REMARK    2  A    between atoms: C_4  and  C_5 
REMARK       I    between atoms: C_5  and  N_6 
REMARK    3  A    between atoms: N_6  and  C_7 
REMARK    4  A    between atoms: C_7  and  C_8 
REMARK    5  A    between atoms: C_8  and  O_9 
REMARK    6  A    between atoms: C_15  and  N_16 
REMARK    7  A    between atoms: N_16  and  C_17 
REMARK    8  A    between atoms: C_26  and  C_27 
REMARK    9  A    between atoms: C_27  and  O_28 
REMARK   10  A    between atoms: C_30  and  O_31 
ROOT
HETATM    1  C   UNL     1      -2.115   1.961   0.389  1.00  0.00     0.016 C 
HETATM    2  C   UNL     1      -0.657   1.398   0.425  1.00  0.00    -0.030 C 
HETATM    3  C   UNL     1      -0.646  -0.032   1.128  1.00  0.00     0.056 C 
HETATM    4  C   UNL     1      -1.074  -1.110   0.158  1.00  0.00     0.056 C 
HETATM    5  C   UNL     1      -1.259  -0.904  -1.192  1.00  0.00     0.012 C 
HETATM    6  S   UNL     1      -1.772  -2.337  -1.945  1.00  0.00    -0.055 SA
HETATM    7  C   UNL     1      -1.438  -3.198  -0.484  1.00  0.00     0.172 C 
HETATM    8  N   UNL     1      -1.164  -2.433   0.554  1.00  0.00    -0.227 NA
HETATM    9  C   UNL     1      -1.021   0.368  -1.923  1.00  0.00     0.055 C 
HETATM   10  C   UNL     1      -0.129   1.315  -1.071  1.00  0.00     0.012 C 
HETATM   11  C   UNL     1       1.445   1.107  -1.241  1.00  0.00     0.008 C 
HETATM   12  C   UNL     1       1.846   1.836  -2.558  1.00  0.00     0.020 C 
HETATM   13  C   UNL     1       2.229   1.794  -0.078  1.00  0.00     0.128 C 
HETATM   14  C   UNL     1       1.441   2.931   0.556  1.00  0.00     0.033 C 
HETATM   15  C   UNL     1       0.186   2.414   1.258  1.00  0.00     0.013 C 
ENDROOT
BRANCH   3  16
HETATM   16  C   UNL     1      -1.493  -0.067   2.413  1.00  0.00     0.114 C 
BRANCH  16  17
HETATM   17  C   UNL     1      -0.902  -0.955   3.486  1.00  0.00     0.218 C 
HETATM   18  N   UNL     1      -1.270  -2.276   3.413  1.00  0.00    -0.359 N 
HETATM   19  H   UNL     1      -1.495  -2.638   2.483  1.00  0.00     0.162 HD
HETATM   20  O   UNL     1      -0.193  -0.494   4.378  1.00  0.00    -0.274 OA
BRANCH  18  21
HETATM   21  C   UNL     1      -0.812  -3.229   4.408  1.00  0.00     0.148 C 
BRANCH  21  22
HETATM   22  C   UNL     1      -1.767  -4.417   4.550  1.00  0.00     0.186 C 
BRANCH  22  23
HETATM   23  O   UNL     1      -1.691  -5.318   3.442  1.00  0.00    -0.394 OA
HETATM   24  C   UNL     1      -0.606  -6.231   3.553  1.00  0.00     0.201 C 
ENDBRANCH  22  23
ENDBRANCH  21  22
ENDBRANCH  18  21
ENDBRANCH  16  17
ENDBRANCH   3  16
BRANCH  11  25
HETATM   25  C   UNL     1       1.936  -0.362  -1.362  1.00  0.00     0.176 C 
BRANCH  25  26
HETATM   26  O   UNL     1       1.527  -0.977  -2.579  1.00  0.00    -0.400 OA
HETATM   27  H   UNL     1       1.798  -1.910  -2.517  1.00  0.00     0.209 HD
ENDBRANCH  25  26
ENDBRANCH  11  25
BRANCH   7  28
HETATM   28  N   UNL     1      -1.446  -4.555  -0.508  1.00  0.00    -0.334 N 
HETATM   29  H   UNL     1      -1.879  -4.942  -1.339  1.00  0.00     0.168 HD
BRANCH  28  30
HETATM   30  C   UNL     1      -0.310  -5.326  -0.154  1.00  0.00     0.051 A 
HETATM   31  C   UNL     1       0.779  -4.856   0.583  1.00  0.00     0.145 A 
HETATM   32  N   UNL     1       1.869  -5.599   0.916  1.00  0.00    -0.271 NA
HETATM   33  C   UNL     1       1.868  -6.887   0.521  1.00  0.00     0.116 A 
HETATM   34  C   UNL     1       0.823  -7.472  -0.170  1.00  0.00     0.021 A 
HETATM   35  C   UNL     1      -0.281  -6.684  -0.495  1.00  0.00     0.032 A 
ENDBRANCH  28  30
ENDBRANCH   7  28
BRANCH  13  36
HETATM   36  O   UNL     1       2.563   0.850   0.939  1.00  0.00    -0.395 OA
HETATM   37  H   UNL     1       3.037   1.322   1.648  1.00  0.00     0.210 HD
ENDBRANCH  13  36
TORSDOF 10
