REMARK  3 active torsions:
REMARK  status: ('A' for Active; 'I' for Inactive)
REMARK    1  A    between atoms: C_2  and  N_3 
REMARK    2  A    between atoms: C_7  and  C_8 
REMARK       I    between atoms: C_8  and  N_9 
REMARK    3  A    between atoms: N_9  and  C_10 
ROOT
HETATM    1  C   UNL     1       4.728  -3.786   6.316  1.00  0.00     0.036 A 
HETATM    2  C   UNL     1       5.286  -2.793   5.512  1.00  0.00     0.049 A 
HETATM    3  C   UNL     1       6.235  -1.882   6.026  1.00  0.00     0.061 A 
HETATM    4  C   UNL     1       6.634  -1.976   7.366  1.00  0.00     0.050 A 
HETATM    5  N   UNL     1       7.635  -1.214   7.992  1.00  0.00    -0.324 N 
HETATM    6  C   UNL     1       8.766  -0.673   7.440  1.00  0.00     0.245 C 
HETATM    7  O   UNL     1       9.620  -0.220   8.206  1.00  0.00    -0.271 OA
HETATM    8  C   UNL     1       9.006  -0.855   5.943  1.00  0.00     0.180 C 
HETATM    9  N   UNL     1       7.912  -0.288   5.172  1.00  0.00    -0.334 N 
HETATM   10  C   UNL     1       6.634  -0.784   5.108  1.00  0.00     0.256 C 
HETATM   11  O   UNL     1       5.807  -0.351   4.309  1.00  0.00    -0.267 OA
HETATM   12  C   UNL     1      10.248  -0.097   5.455  1.00  0.00     0.037 C 
HETATM   13  C   UNL     1       9.863   0.356   4.054  1.00  0.00     0.022 C 
HETATM   14  C   UNL     1       8.389   0.686   4.207  1.00  0.00     0.127 C 
HETATM   15  C   UNL     1       6.000  -2.917   8.189  1.00  0.00     0.033 A 
HETATM   16  C   UNL     1       5.067  -3.818   7.669  1.00  0.00     0.032 A 
HETATM   17  H   UNL     1       7.682  -1.221   9.004  1.00  0.00     0.169 HD
ENDROOT
BRANCH   1  18
HETATM   18  N   UNL     1       3.866  -4.798   5.846  1.00  0.00    -0.323 N 
HETATM   19  C   UNL     1       3.449  -5.006   4.543  1.00  0.00     0.256 C 
HETATM   20  O   UNL     1       3.591  -4.241   3.598  1.00  0.00    -0.267 OA
HETATM   21  H   UNL     1       3.538  -5.458   6.539  1.00  0.00     0.169 HD
BRANCH  19  22
HETATM   22  C   UNL     1       2.762  -6.308   4.302  1.00  0.00     0.033 A 
HETATM   23  C   UNL     1       3.149  -7.468   4.991  1.00  0.00     0.030 A 
HETATM   24  C   UNL     1       2.514  -8.692   4.699  1.00  0.00    -0.007 A 
HETATM   25  C   UNL     1       1.520  -8.732   3.715  1.00  0.00     0.044 A 
HETATM   26  C   UNL     1       2.670 -10.010   5.202  1.00  0.00     0.031 A 
HETATM   27  N   UNL     1       1.103 -10.049   3.619  1.00  0.00    -0.352 N 
HETATM   28  C   UNL     1       1.131  -7.577   3.016  1.00  0.00     0.031 A 
HETATM   29  C   UNL     1       1.788 -10.820   4.530  1.00  0.00     0.092 A 
HETATM   30  C   UNL     1       1.771  -6.370   3.321  1.00  0.00     0.019 A 
BRANCH  27  31
HETATM   31  C   UNL     1       0.106 -10.569   2.682  1.00  0.00     0.081 C 
HETATM   32  C   UNL     1      -1.115 -11.128   3.414  1.00  0.00     0.032 C 
HETATM   33  C   UNL     1       0.711 -11.603   1.731  1.00  0.00     0.032 C 
ENDBRANCH  27  31
ENDBRANCH  19  22
ENDBRANCH   1  18
TORSDOF 3
