REMARK  5 active torsions:
REMARK  status: ('A' for Active; 'I' for Inactive)
REMARK    1  A    between atoms: C_9  and  C_10 
REMARK       I    between atoms: C_10  and  N_11 
REMARK    2  A    between atoms: N_11  and  C_12 
REMARK    3  A    between atoms: C_12  and  C_13 
REMARK    4  A    between atoms: C_15  and  O_16 
REMARK    5  A    between atoms: O_16  and  C_17 
ROOT
HETATM    1  C   UNL     1       5.697   4.100   1.079  1.00  0.00     0.273 C 
HETATM    2  N   UNL     1       6.568   4.477   0.083  1.00  0.00    -0.351 N 
HETATM    3  O   UNL     1       6.036   3.457   2.067  1.00  0.00    -0.266 OA
HETATM    4  H   UNL     1       6.158   4.991  -0.693  1.00  0.00     0.163 HD
ENDROOT
BRANCH   2   5
HETATM    5  C   UNL     1       7.980   4.203   0.121  1.00  0.00     0.161 C 
BRANCH   5   6
HETATM    6  C   UNL     1       8.802   5.440  -0.127  1.00  0.00    -0.035 A 
HETATM    7  C   UNL     1       8.450   6.676   0.426  1.00  0.00     0.066 A 
HETATM    8  C   UNL     1       9.255   7.774   0.175  1.00  0.00     0.164 A 
HETATM    9  N   UNL     1      10.389   7.730  -0.554  1.00  0.00    -0.237 NA
HETATM   10  C   UNL     1      10.730   6.524  -1.053  1.00  0.00     0.120 A 
HETATM   11  C   UNL     1       9.984   5.369  -0.871  1.00  0.00     0.028 A 
BRANCH   8  12
HETATM   12  O   UNL     1       8.841   8.979   0.713  1.00  0.00    -0.329 OA
BRANCH  12  13
HETATM   13  C   UNL     1       9.579  10.147   0.296  1.00  0.00     0.130 C 
HETATM   14  C   UNL     1       9.339  10.650  -1.153  1.00  0.00     0.032 C 
HETATM   15  C   UNL     1       9.378  12.084  -0.597  1.00  0.00     0.005 C 
HETATM   16  C   UNL     1       8.971  11.495   0.765  1.00  0.00     0.032 C 
ENDBRANCH  12  13
ENDBRANCH   8  12
ENDBRANCH   5   6
ENDBRANCH   2   5
BRANCH   1  17
HETATM   17  C   UNL     1       4.319   4.563   0.845  1.00  0.00     0.157 A 
HETATM   18  C   UNL     1       3.193   4.393   1.704  1.00  0.00     0.029 A 
HETATM   19  C   UNL     1       2.953   3.790   2.955  1.00  0.00     0.023 A 
HETATM   20  C   UNL     1       2.141   5.021   1.050  1.00  0.00     0.063 A 
HETATM   21  C   UNL     1       1.663   3.837   3.509  1.00  0.00    -0.061 A 
HETATM   22  C   UNL     1       1.387   3.205   4.843  1.00  0.00     0.048 C 
HETATM   23  C   UNL     1       0.630   4.481   2.816  1.00  0.00     0.009 A 
HETATM   24  C   UNL     1       0.847   5.086   1.573  1.00  0.00     0.032 A 
HETATM   25  N   UNL     1       2.676   5.504  -0.112  1.00  0.00    -0.277 N 
HETATM   26  H   UNL     1       2.195   6.023  -0.838  1.00  0.00     0.189 HD
HETATM   27  N   UNL     1       3.987   5.248  -0.273  1.00  0.00    -0.168 NA
ENDBRANCH   1  17
TORSDOF 5
