REMARK  3 active torsions:
REMARK  status: ('A' for Active; 'I' for Inactive)
REMARK    1  A    between atoms: C_9  and  C_10 
REMARK    2  A    between atoms: C_16  and  C_17 
REMARK       I    between atoms: C_17  and  N_18 
REMARK    3  A    between atoms: N_18  and  C_19 
ROOT
HETATM    1  C   UNL     1       1.113   0.117   0.912  1.00  0.00     0.070 C 
HETATM    2  C   UNL     1       2.443  -0.059   0.222  1.00  0.00     0.037 C 
HETATM    3  N   UNL     1       3.082   1.118  -0.157  1.00  0.00    -0.192 N 
HETATM    4  C   UNL     1       4.373   1.160  -0.541  1.00  0.00     0.725 A 
HETATM    5  N   UNL     1       5.057  -0.011  -0.728  1.00  0.00    -0.084 N 
HETATM    6  N   UNL     1       6.351   0.220  -1.031  1.00  0.00    -0.149 NA
HETATM    7  C   UNL     1       6.364   1.558  -1.051  1.00  0.00     0.275 A 
HETATM    8  N   UNL     1       5.172   2.172  -0.761  1.00  0.00    -0.054 NA
HETATM    9  C   UNL     1       4.462  -1.343  -0.574  1.00  0.00     0.202 C 
HETATM   10  C   UNL     1       3.061  -1.250   0.023  1.00  0.00     0.062 C 
HETATM   11  H   UNL     1       2.634   1.997   0.091  1.00  0.00     0.184 HD
ENDROOT
BRANCH  10  12
HETATM   12  C   UNL     1       2.508  -2.557   0.463  1.00  0.00     0.256 C 
HETATM   13  N   UNL     1       1.257  -2.828  -0.044  1.00  0.00    -0.322 N 
HETATM   14  H   UNL     1       0.860  -2.159  -0.691  1.00  0.00     0.169 HD
HETATM   15  O   UNL     1       3.195  -3.286   1.164  1.00  0.00    -0.267 OA
BRANCH  13  16
HETATM   16  C   UNL     1       0.455  -3.950   0.259  1.00  0.00     0.052 A 
HETATM   17  C   UNL     1       0.817  -4.988   1.113  1.00  0.00     0.145 A 
HETATM   18  N   UNL     1       0.016  -6.045   1.409  1.00  0.00    -0.271 NA
HETATM   19  C   UNL     1      -1.200  -6.071   0.830  1.00  0.00     0.116 A 
HETATM   20  C   UNL     1      -1.656  -5.091  -0.035  1.00  0.00     0.021 A 
HETATM   21  C   UNL     1      -0.813  -4.019  -0.323  1.00  0.00     0.032 A 
ENDBRANCH  13  16
ENDBRANCH  10  12
BRANCH   9  22
HETATM   22  C   UNL     1       4.459  -2.086  -1.906  1.00  0.00    -0.025 A 
HETATM   23  C   UNL     1       4.948  -3.397  -1.974  1.00  0.00     0.029 A 
HETATM   24  C   UNL     1       4.912  -4.063  -3.189  1.00  0.00     0.117 A 
HETATM   25  N   UNL     1       4.424  -3.523  -4.326  1.00  0.00    -0.273 NA
HETATM   26  C   UNL     1       3.959  -2.260  -4.248  1.00  0.00     0.117 A 
HETATM   27  C   UNL     1       3.945  -1.514  -3.079  1.00  0.00     0.029 A 
ENDBRANCH   9  22
TORSDOF 3
