REMARK  6 active torsions:
REMARK  status: ('A' for Active; 'I' for Inactive)
REMARK    1  A    between atoms: C_9  and  C_10 
REMARK    2  A    between atoms: C_12  and  O_13 
REMARK    3  A    between atoms: C_15  and  O_16 
REMARK    4  A    between atoms: O_16  and  C_17 
REMARK    5  A    between atoms: C_17  and  C_18 
REMARK    6  A    between atoms: C_18  and  N_19 
ROOT
HETATM    1  H   UNL     1       7.526  -5.623  -1.816  1.00  0.00     0.186 HD
HETATM    2  N   UNL     1       6.543  -5.315  -1.777  1.00  0.00    -0.304 NA
HETATM    3  C   UNL     1       6.371  -4.034  -1.890  1.00  0.00     0.062 C 
HETATM    4  C   UNL     1       4.950  -3.436  -1.899  1.00  0.00     0.173 C 
HETATM    5  C   UNL     1       4.655  -2.939  -3.305  1.00  0.00     0.012 C 
HETATM    6  N   UNL     1       4.410  -2.527  -4.471  1.00  0.00    -0.099 N 
HETATM    7  C   UNL     1       3.925  -4.454  -1.564  1.00  0.00     0.090 C 
HETATM    8  N   UNL     1       3.087  -5.187  -1.235  1.00  0.00    -0.195 NA
HETATM    9  C   UNL     1       4.856  -2.238  -0.882  1.00  0.00     0.070 C 
HETATM   10  C   UNL     1       6.021  -1.215  -1.077  1.00  0.00     0.053 C 
HETATM   11  C   UNL     1       7.386  -1.889  -1.075  1.00  0.00    -0.052 C 
HETATM   12  C   UNL     1       8.414  -1.358  -0.379  1.00  0.00     0.005 C 
HETATM   13  C   UNL     1       7.574  -3.096  -1.984  1.00  0.00     0.171 C 
HETATM   14  C   UNL     1       7.815  -2.643  -3.361  1.00  0.00     0.074 C 
HETATM   15  N   UNL     1       8.009  -2.190  -4.409  1.00  0.00    -0.196 NA
HETATM   16  C   UNL     1       5.920  -0.011  -0.101  1.00  0.00     0.244 C 
HETATM   17  N   UNL     1       7.193   0.800  -0.090  1.00  0.00    -0.071 N 
HETATM   18  H   UNL     1       7.083   1.522   0.635  1.00  0.00     0.279 HD
HETATM   19  C   UNL     1       7.451   1.570  -1.362  1.00  0.00     0.270 C 
HETATM   20  C   UNL     1       8.361  -0.047   0.346  1.00  0.00     0.262 C 
ENDROOT
BRANCH   9  21
HETATM   21  C   UNL     1       4.645  -2.679   0.579  1.00  0.00    -0.047 A 
HETATM   22  C   UNL     1       5.429  -3.659   1.207  1.00  0.00     0.047 A 
HETATM   23  C   UNL     1       5.049  -4.193   2.449  1.00  0.00     0.102 A 
HETATM   24  C   UNL     1       3.935  -3.698   3.137  1.00  0.00     0.102 A 
HETATM   25  C   UNL     1       3.212  -2.651   2.567  1.00  0.00     0.040 A 
HETATM   26  C   UNL     1       3.547  -2.166   1.294  1.00  0.00     0.010 A 
BRANCH  23  27
HETATM   27  O   UNL     1       5.768  -5.213   3.027  1.00  0.00    -0.353 OA
HETATM   28  C   UNL     1       5.827  -6.370   2.185  1.00  0.00     0.210 C 
ENDBRANCH  23  27
BRANCH  24  29
HETATM   29  O   UNL     1       3.630  -4.303   4.331  1.00  0.00    -0.347 OA
BRANCH  29  30
HETATM   30  C   UNL     1       2.271  -4.204   4.769  1.00  0.00     0.203 C 
BRANCH  30  31
HETATM   31  C   UNL     1       1.946  -5.427   5.639  1.00  0.00     0.261 C 
BRANCH  31  32
HETATM   32  N   UNL     1       3.021  -5.698   6.676  1.00  0.00    -0.065 N 
HETATM   33  H   UNL     1       3.915  -5.712   6.160  1.00  0.00     0.280 HD
HETATM   34  C   UNL     1       3.127  -4.627   7.754  1.00  0.00     0.261 C 
HETATM   35  C   UNL     1       4.209  -5.014   8.768  1.00  0.00     0.195 C 
HETATM   36  O   UNL     1       3.931  -6.290   9.351  1.00  0.00    -0.388 OA
HETATM   37  C   UNL     1       3.914  -7.327   8.366  1.00  0.00     0.195 C 
HETATM   38  C   UNL     1       2.823  -7.071   7.322  1.00  0.00     0.261 C 
ENDBRANCH  31  32
ENDBRANCH  30  31
ENDBRANCH  29  30
ENDBRANCH  24  29
ENDBRANCH   9  21
TORSDOF 6
