REMARK  9 active torsions:
REMARK  status: ('A' for Active; 'I' for Inactive)
REMARK    1  A    between atoms: C_2  and  C_3 
REMARK    2  A    between atoms: C_7  and  C_8 
REMARK    3  A    between atoms: C_8  and  C_9 
REMARK       I    between atoms: C_9  and  N_10 
REMARK    4  A    between atoms: N_10  and  C_11 
REMARK    5  A    between atoms: C_11  and  C_12 
REMARK    6  A    between atoms: C_12  and  C_13 
REMARK    7  A    between atoms: C_21  and  C_22 
REMARK    8  A    between atoms: C_32  and  C_33 
REMARK    9  A    between atoms: C_33  and  O_34 
ROOT
HETATM    1  C   UNL     1      11.668  -9.991  -2.889  1.00  0.00     0.051 C 
HETATM    2  N   UNL     1      10.611  -9.983  -3.777  1.00  0.00    -0.228 NA
HETATM    3  C   UNL     1      10.633  -9.155  -4.758  1.00  0.00     0.170 C 
HETATM    4  N   UNL     1      11.827  -8.248  -5.138  1.00  0.00    -0.318 N 
HETATM    5  C   UNL     1      11.552  -7.511  -6.165  1.00  0.00     0.011 C 
HETATM    6  C   UNL     1      13.075  -8.545  -4.390  1.00  0.00     0.166 C 
HETATM    7  S   UNL     1       9.302  -8.976  -5.852  1.00  0.00    -0.086 SA
HETATM    8  C   UNL     1      10.132  -7.597  -6.682  1.00  0.00     0.135 C 
HETATM    9  C   UNL     1      12.789  -9.265  -3.094  1.00  0.00     0.069 C 
ENDROOT
BRANCH   5  10
HETATM   10  C   UNL     1      12.606  -6.709  -6.873  1.00  0.00     0.156 C 
BRANCH  10  11
HETATM   11  C   UNL     1      12.120  -5.342  -7.294  1.00  0.00     0.222 C 
HETATM   12  N   UNL     1      12.520  -4.934  -8.542  1.00  0.00    -0.361 N 
HETATM   13  H   UNL     1      13.113  -5.534  -9.110  1.00  0.00     0.162 HD
HETATM   14  O   UNL     1      11.417  -4.673  -6.545  1.00  0.00    -0.273 OA
BRANCH  12  15
HETATM   15  C   UNL     1      12.115  -3.656  -9.110  1.00  0.00     0.124 C 
BRANCH  15  16
HETATM   16  C   UNL     1      13.198  -2.591  -8.917  1.00  0.00     0.053 C 
BRANCH  16  17
HETATM   17  C   UNL     1      12.796  -1.227  -9.503  1.00  0.00     0.189 C 
HETATM   18  N   UNL     1      14.008  -0.286  -9.430  1.00  0.00    -0.071 N 
HETATM   19  H   UNL     1      14.817  -0.802  -9.059  1.00  0.00     0.279 HD
HETATM   20  C   UNL     1      14.428   0.265 -10.764  1.00  0.00     0.270 C 
HETATM   21  C   UNL     1      13.691   0.811  -8.424  1.00  0.00     0.235 C 
HETATM   22  C   UNL     1      12.505   0.275  -7.652  1.00  0.00     0.030 C 
HETATM   23  C   UNL     1      11.725  -0.485  -8.707  1.00  0.00     0.035 C 
ENDBRANCH  16  17
ENDBRANCH  15  16
ENDBRANCH  12  15
ENDBRANCH  10  11
ENDBRANCH   5  10
BRANCH   6  24
HETATM   24  C   UNL     1      14.030  -9.316  -5.315  1.00  0.00    -0.024 A 
HETATM   25  C   UNL     1      15.314  -8.839  -5.674  1.00  0.00    -0.053 A 
HETATM   26  C   UNL     1      15.973  -7.618  -5.081  1.00  0.00     0.049 C 
HETATM   27  C   UNL     1      16.106  -9.595  -6.565  1.00  0.00     0.014 A 
HETATM   28  C   UNL     1      15.653 -10.792  -7.124  1.00  0.00    -0.061 A 
HETATM   29  C   UNL     1      16.533 -11.596  -8.038  1.00  0.00     0.048 C 
HETATM   30  C   UNL     1      14.405 -11.278  -6.747  1.00  0.00     0.007 A 
HETATM   31  C   UNL     1      13.611 -10.558  -5.854  1.00  0.00     0.011 A 
ENDBRANCH   6  24
BRANCH   9  32
HETATM   32  C   UNL     1      13.831  -9.023  -2.062  1.00  0.00     0.293 C 
HETATM   33  O   UNL     1      14.989  -8.773  -2.346  1.00  0.00    -0.259 OA
BRANCH  32  34
HETATM   34  O   UNL     1      13.269  -8.904  -0.839  1.00  0.00    -0.323 OA
HETATM   35  C   UNL     1      14.174  -8.550   0.212  1.00  0.00     0.213 C 
ENDBRANCH  32  34
ENDBRANCH   9  32
BRANCH   1  36
HETATM   36  C   UNL     1      11.422 -10.911  -1.696  1.00  0.00     0.056 C 
HETATM   37  C   UNL     1      12.469 -12.012  -1.552  1.00  0.00     0.011 C 
ENDBRANCH   1  36
TORSDOF 9
