REMARK  7 active torsions:
REMARK  status: ('A' for Active; 'I' for Inactive)
REMARK    1  A    between atoms: C_4  and  C_5 
REMARK    2  A    between atoms: C_12  and  C_13 
REMARK       I    between atoms: C_13  and  N_14 
REMARK    3  A    between atoms: N_14  and  N_15 
REMARK       I    between atoms: N_15  and  C_16 
REMARK    4  A    between atoms: C_16  and  C_17 
REMARK    5  A    between atoms: C_17  and  C_18 
REMARK    6  A    between atoms: C_18  and  C_19 
REMARK    7  A    between atoms: C_22  and  O_23 
ROOT
HETATM    1  C   UNL     1       2.322  -2.805  -0.686  1.00  0.00     0.272 C 
HETATM    2  N   UNL     1       3.181  -3.731  -0.134  1.00  0.00    -0.263 N 
HETATM    3  O   UNL     1       2.520  -2.274  -1.774  1.00  0.00    -0.266 OA
HETATM    4  H   UNL     1       3.018  -4.231   0.739  1.00  0.00     0.190 HD
ENDROOT
BRANCH   2   5
HETATM    5  N   UNL     1       4.341  -4.063  -0.833  1.00  0.00    -0.267 N 
HETATM    6  C   UNL     1       5.269  -4.854  -0.193  1.00  0.00     0.236 C 
HETATM    7  O   UNL     1       5.042  -5.394   0.890  1.00  0.00    -0.272 OA
HETATM    8  H   UNL     1       4.533  -3.519  -1.672  1.00  0.00     0.190 HD
BRANCH   6   9
HETATM    9  C   UNL     1       6.565  -5.064  -0.945  1.00  0.00     0.109 C 
BRANCH   9  10
HETATM   10  C   UNL     1       7.315  -3.770  -1.263  1.00  0.00     0.048 C 
BRANCH  10  11
HETATM   11  C   UNL     1       7.652  -2.866  -0.098  1.00  0.00    -0.058 A 
HETATM   12  C   UNL     1       7.911  -3.351   1.188  1.00  0.00     0.010 A 
HETATM   13  C   UNL     1       8.242  -2.473   2.225  1.00  0.00     0.037 A 
HETATM   14  C   UNL     1       8.342  -1.100   1.998  1.00  0.00     0.068 A 
HETATM   15  C   UNL     1       8.104  -0.609   0.717  1.00  0.00     0.037 A 
HETATM   16  C   UNL     1       7.767  -1.486  -0.322  1.00  0.00     0.010 A 
BRANCH  14  17
HETATM   17  O   UNL     1       8.676  -0.360   3.097  1.00  0.00    -0.356 OA
HETATM   18  C   UNL     1       8.857   1.037   2.899  1.00  0.00     0.210 C 
ENDBRANCH  14  17
ENDBRANCH  10  11
ENDBRANCH   9  10
ENDBRANCH   6   9
ENDBRANCH   2   5
BRANCH   1  19
HETATM   19  C   UNL     1       1.121  -2.494   0.124  1.00  0.00     0.058 A 
HETATM   20  C   UNL     1      -0.143  -2.384  -0.455  1.00  0.00     0.047 A 
HETATM   21  C   UNL     1      -0.377  -2.567  -1.926  1.00  0.00     0.071 C 
HETATM   22  N   UNL     1      -1.254  -2.112   0.285  1.00  0.00    -0.252 NA
HETATM   23  C   UNL     1      -1.125  -1.922   1.624  1.00  0.00     0.074 A 
HETATM   24  C   UNL     1       0.108  -2.008   2.261  1.00  0.00     0.034 A 
HETATM   25  C   UNL     1       1.242  -2.297   1.503  1.00  0.00     0.021 A 
BRANCH  23  26
HETATM   26  C   UNL     1      -2.396  -1.642   2.312  1.00  0.00     0.033 A 
HETATM   27  S   UNL     1      -2.446  -0.970   3.896  1.00  0.00    -0.100 SA
HETATM   28  C   UNL     1      -4.153  -0.960   3.928  1.00  0.00     0.050 A 
HETATM   29  C   UNL     1      -4.693  -1.451   2.763  1.00  0.00     0.008 A 
HETATM   30  C   UNL     1      -3.683  -1.835   1.834  1.00  0.00     0.021 A 
ENDBRANCH  23  26
ENDBRANCH   1  19
TORSDOF 7
