REMARK  5 active torsions:
REMARK  status: ('A' for Active; 'I' for Inactive)
REMARK    1  A    between atoms: C_11  and  C_12 
REMARK    2  A    between atoms: C_12  and  S_13 
REMARK    3  A    between atoms: S_13  and  C_14 
REMARK    4  A    between atoms: C_16  and  N_17 
REMARK    5  A    between atoms: N_17  and  C_18 
ROOT
HETATM    1  C   UNL     1      -0.977  -3.091   0.056  1.00  0.00     0.121 C 
ENDROOT
BRANCH   1   2
HETATM    2  C   UNL     1      -1.601  -1.716   0.054  1.00  0.00    -0.029 A 
HETATM    3  C   UNL     1      -0.720  -0.491   0.027  1.00  0.00     0.016 A 
HETATM    4  C   UNL     1       0.737  -0.432   0.046  1.00  0.00    -0.012 A 
HETATM    5  C   UNL     1      -1.405   0.741  -0.028  1.00  0.00     0.091 A 
HETATM    6  C   UNL     1       1.366   0.854  -0.015  1.00  0.00    -0.025 A 
HETATM    7  C   UNL     1       1.662  -1.518   0.123  1.00  0.00     0.013 A 
HETATM    8  C   UNL     1       2.765   0.999  -0.011  1.00  0.00     0.012 A 
HETATM    9  C   UNL     1       0.613   2.026  -0.078  1.00  0.00     0.015 A 
HETATM   10  C   UNL     1       3.609  -0.099   0.056  1.00  0.00     0.001 A 
HETATM   11  C   UNL     1       3.056  -1.361   0.126  1.00  0.00     0.001 A 
HETATM   12  C   UNL     1      -0.767   1.976  -0.080  1.00  0.00     0.039 A 
HETATM   13  O   UNL     1      -2.810   0.854  -0.029  1.00  0.00    -0.275 OA
HETATM   14  C   UNL     1      -3.619  -0.250   0.035  1.00  0.00     0.288 A 
HETATM   15  O   UNL     1      -4.841  -0.178   0.055  1.00  0.00    -0.260 OA
HETATM   16  C   UNL     1      -2.936  -1.543   0.064  1.00  0.00     0.091 A 
ENDBRANCH   1   2
BRANCH   1  17
HETATM   17  S   UNL     1      -2.074  -4.539  -0.024  1.00  0.00    -0.096 SA
BRANCH  17  18
HETATM   18  C   UNL     1      -0.867  -5.808  -0.060  1.00  0.00     0.160 A 
HETATM   19  S   UNL     1      -1.246  -7.465  -0.230  1.00  0.00    -0.022 SA
HETATM   20  C   UNL     1       0.455  -7.792  -0.196  1.00  0.00     0.195 A 
HETATM   21  N   UNL     1       1.176  -6.699  -0.046  1.00  0.00    -0.123 NA
HETATM   22  N   UNL     1       0.418  -5.553   0.034  1.00  0.00    -0.133 NA
BRANCH  20  23
HETATM   23  N   UNL     1       0.888  -9.067  -0.321  1.00  0.00    -0.331 N 
HETATM   24  H   UNL     1       0.190  -9.798  -0.422  1.00  0.00     0.168 HD
BRANCH  23  25
HETATM   25  C   UNL     1       2.208  -9.560  -0.393  1.00  0.00     0.073 A 
HETATM   26  C   UNL     1       2.392 -10.947  -0.539  1.00  0.00     0.143 A 
HETATM   27  F   UNL     1       1.312 -11.743  -0.607  1.00  0.00    -0.204 F 
HETATM   28  C   UNL     1       3.656 -11.528  -0.619  1.00  0.00     0.044 A 
HETATM   29  C   UNL     1       4.785 -10.718  -0.553  1.00  0.00     0.003 A 
HETATM   30  C   UNL     1       4.635  -9.340  -0.406  1.00  0.00     0.002 A 
HETATM   31  C   UNL     1       3.358  -8.767  -0.325  1.00  0.00     0.033 A 
ENDBRANCH  23  25
ENDBRANCH  20  23
ENDBRANCH  17  18
ENDBRANCH   1  17
TORSDOF 5
