REMARK  10 active torsions:
REMARK  status: ('A' for Active; 'I' for Inactive)
REMARK       I    between atoms: N_2  and  C_3 
REMARK    1  A    between atoms: N_2  and  C_22 
REMARK    2  A    between atoms: C_3  and  C_4 
REMARK    3  A    between atoms: C_4  and  O_5 
REMARK    4  A    between atoms: O_5  and  C_6 
REMARK    5  A    between atoms: C_6  and  C_7 
REMARK    6  A    between atoms: C_8  and  N_9 
REMARK    7  A    between atoms: N_9  and  C_10 
REMARK    8  A    between atoms: C_10  and  C_11 
REMARK    9  A    between atoms: C_22  and  C_23 
REMARK       I    between atoms: C_23  and  N_24 
REMARK   10  A    between atoms: N_24  and  C_25 
ROOT
HETATM    1  C   UNL     1       4.956   0.952  -1.030  1.00  0.00     0.281 C 
ENDROOT
BRANCH   1   2
HETATM    2  C   UNL     1       3.436   1.113  -1.132  1.00  0.00     0.244 C 
HETATM    3  N   UNL     1       2.821   2.080  -0.344  1.00  0.00    -0.346 N 
HETATM    4  C   UNL     1       3.537   3.143   0.347  1.00  0.00     0.153 C 
HETATM    5  O   UNL     1       2.768   0.438  -1.925  1.00  0.00    -0.271 OA
BRANCH   3   6
HETATM    6  C   UNL     1       1.370   2.256  -0.483  1.00  0.00     0.228 C 
BRANCH   6   7
HETATM    7  C   UNL     1       1.011   3.185  -1.651  1.00  0.00     0.240 C 
HETATM    8  N   UNL     1       1.274   2.612  -2.884  1.00  0.00    -0.326 N 
HETATM    9  H   UNL     1       1.705   1.686  -2.854  1.00  0.00     0.169 HD
HETATM   10  O   UNL     1       0.564   4.310  -1.444  1.00  0.00    -0.271 OA
BRANCH   8  11
HETATM   11  C   UNL     1       1.084   3.174  -4.160  1.00  0.00     0.035 A 
HETATM   12  C   UNL     1       0.462   4.405  -4.386  1.00  0.00     0.032 A 
HETATM   13  C   UNL     1       0.312   4.892  -5.688  1.00  0.00     0.044 A 
HETATM   14  C   UNL     1       0.786   4.148  -6.761  1.00  0.00     0.116 A 
HETATM   15  F   UNL     1       0.643   4.617  -8.007  1.00  0.00    -0.206 F 
HETATM   16  C   UNL     1       1.405   2.922  -6.557  1.00  0.00     0.044 A 
HETATM   17  C   UNL     1       1.550   2.433  -5.257  1.00  0.00     0.032 A 
ENDBRANCH   8  11
ENDBRANCH   6   7
ENDBRANCH   3   6
ENDBRANCH   1   2
BRANCH   1  18
HETATM   18  O   UNL     1       5.378  -0.093  -1.912  1.00  0.00    -0.308 OA
BRANCH  18  19
HETATM   19  C   UNL     1       5.492  -1.321  -1.351  1.00  0.00     0.295 C 
HETATM   20  O   UNL     1       5.499  -1.577  -0.157  1.00  0.00    -0.259 OA
BRANCH  19  21
HETATM   21  C   UNL     1       5.611  -2.342  -2.422  1.00  0.00     0.060 A 
HETATM   22  C   UNL     1       6.468  -3.455  -2.263  1.00  0.00     0.025 A 
HETATM   23  C   UNL     1       6.531  -4.363  -3.335  1.00  0.00     0.024 A 
HETATM   24  C   UNL     1       5.725  -4.220  -4.472  1.00  0.00     0.002 A 
HETATM   25  C   UNL     1       4.851  -3.146  -4.583  1.00  0.00     0.001 A 
HETATM   26  C   UNL     1       4.796  -2.204  -3.562  1.00  0.00     0.019 A 
BRANCH  22  27
HETATM   27  N   UNL     1       7.325  -3.551  -1.152  1.00  0.00    -0.286 NA
HETATM   28  H   UNL     1       6.900  -3.104  -0.334  1.00  0.00     0.128 HD
BRANCH  27  29
HETATM   29  C   UNL     1       7.939  -4.835  -0.810  1.00  0.00     0.157 C 
BRANCH  29  30
HETATM   30  C   UNL     1       8.773  -4.829   0.428  1.00  0.00     0.065 A 
HETATM   31  O   UNL     1       9.573  -5.922   0.613  1.00  0.00    -0.326 OA
HETATM   32  C   UNL     1      10.250  -5.731   1.773  1.00  0.00     0.142 A 
HETATM   33  C   UNL     1       9.894  -4.533   2.346  1.00  0.00     0.027 A 
HETATM   34  C   UNL     1       8.939  -3.949   1.479  1.00  0.00     0.036 A 
ENDBRANCH  29  30
ENDBRANCH  27  29
ENDBRANCH  22  27
ENDBRANCH  19  21
ENDBRANCH  18  19
ENDBRANCH   1  18
TORSDOF 10
