REMARK  6 active torsions:
REMARK  status: ('A' for Active; 'I' for Inactive)
REMARK    1  A    between atoms: N_6  and  C_7 
REMARK    2  A    between atoms: C_10  and  N_11 
REMARK    3  A    between atoms: N_11  and  C_12 
REMARK    4  A    between atoms: C_12  and  N_13 
REMARK       I    between atoms: N_13  and  C_14 
REMARK    5  A    between atoms: C_14  and  C_15 
REMARK    6  A    between atoms: C_16  and  O_17 
ROOT
HETATM    1  C   UNL     1       9.452  -1.301   6.363  1.00  0.00     0.179 C 
HETATM    2  S   UNL     1      10.095  -1.677   7.860  1.00  0.00    -0.040 SA
ENDROOT
BRANCH   1   3
HETATM    3  N   UNL     1       8.307  -0.579   6.300  1.00  0.00    -0.333 N 
HETATM    4  H   UNL     1       8.099  -0.049   7.140  1.00  0.00     0.168 HD
BRANCH   3   5
HETATM    5  C   UNL     1       7.298  -0.596   5.320  1.00  0.00     0.034 C 
HETATM    6  C   UNL     1       6.395   0.463   5.274  1.00  0.00     0.032 C 
HETATM    7  C   UNL     1       5.449   0.545   4.239  1.00  0.00     0.031 C 
HETATM    8  C   UNL     1       5.391  -0.424   3.229  1.00  0.00     0.030 C 
HETATM    9  C   UNL     1       6.207  -1.553   3.391  1.00  0.00     0.031 C 
HETATM   10  C   UNL     1       7.144  -1.642   4.421  1.00  0.00     0.032 C 
BRANCH   8  11
HETATM   11  N   UNL     1       4.594  -0.321   2.081  1.00  0.00    -0.378 N 
HETATM   12  C   UNL     1       5.366  -0.416   0.815  1.00  0.00     0.150 C 
HETATM   13  C   UNL     1       5.893   0.972   0.395  1.00  0.00     0.254 C 
HETATM   14  N   UNL     1       4.718   1.943   0.242  1.00  0.00    -0.072 N 
HETATM   15  C   UNL     1       5.162   3.288  -0.244  1.00  0.00     0.269 C 
HETATM   16  H   UNL     1       4.093   1.542  -0.469  1.00  0.00     0.279 HD
HETATM   17  C   UNL     1       3.920   2.038   1.542  1.00  0.00     0.254 C 
HETATM   18  C   UNL     1       3.478   0.640   2.032  1.00  0.00     0.150 C 
ENDBRANCH   8  11
ENDBRANCH   3   5
ENDBRANCH   1   3
BRANCH   1  19
HETATM   19  N   UNL     1      10.143  -1.691   5.250  1.00  0.00    -0.299 N 
HETATM   20  C   UNL     1      10.221  -1.084   3.998  1.00  0.00     0.260 C 
HETATM   21  O   UNL     1       9.641  -0.080   3.604  1.00  0.00    -0.267 OA
HETATM   22  H   UNL     1      10.908  -2.316   5.475  1.00  0.00     0.171 HD
BRANCH  20  23
HETATM   23  C   UNL     1      11.218  -1.697   3.102  1.00  0.00     0.068 A 
HETATM   24  C   UNL     1      10.865  -2.683   2.181  1.00  0.00     0.102 A 
HETATM   25  C   UNL     1      11.827  -3.132   1.257  1.00  0.00     0.056 A 
HETATM   26 BR   UNL     1      11.283  -4.347  -0.124  1.00  0.00    -0.047 Br
HETATM   27  C   UNL     1      13.172  -2.660   1.310  1.00  0.00    -0.006 A 
HETATM   28  C   UNL     1      13.505  -1.688   2.291  1.00  0.00    -0.024 A 
HETATM   29  C   UNL     1      14.214  -3.085   0.447  1.00  0.00     0.014 A 
HETATM   30  C   UNL     1      12.523  -1.206   3.163  1.00  0.00     0.032 A 
HETATM   31  C   UNL     1      14.814  -1.190   2.383  1.00  0.00     0.012 A 
HETATM   32  C   UNL     1      15.813  -1.636   1.522  1.00  0.00     0.001 A 
HETATM   33  C   UNL     1      15.513  -2.583   0.553  1.00  0.00     0.001 A 
BRANCH  24  34
HETATM   34  O   UNL     1       9.568  -3.131   2.156  1.00  0.00    -0.353 OA
HETATM   35  C   UNL     1       9.448  -4.439   2.727  1.00  0.00     0.210 C 
ENDBRANCH  24  34
ENDBRANCH  20  23
ENDBRANCH   1  19
TORSDOF 6
