REMARK  6 active torsions:
REMARK  status: ('A' for Active; 'I' for Inactive)
REMARK    1  A    between atoms: O_2  and  C_3 
REMARK    2  A    between atoms: C_6  and  C_7 
REMARK    3  A    between atoms: C_13  and  C_14 
REMARK       I    between atoms: C_14  and  N_15 
REMARK    4  A    between atoms: N_15  and  C_16 
REMARK    5  A    between atoms: C_18  and  O_19 
REMARK    6  A    between atoms: C_24  and  C_25 
ROOT
HETATM    1  C   UNL     1       4.756  -0.458  -5.601  1.00  0.00     0.118 C 
HETATM    2  N   UNL     1       4.326  -1.746  -6.167  1.00  0.00    -0.365 N 
HETATM    3  C   UNL     1       4.134  -1.892  -7.510  1.00  0.00     0.138 A 
HETATM    4  N   UNL     1       4.241  -0.821  -8.367  1.00  0.00    -0.240 N 
HETATM    5  N   UNL     1       3.908  -1.103  -9.635  1.00  0.00    -0.181 NA
HETATM    6  C   UNL     1       3.648  -2.412  -9.599  1.00  0.00     0.160 A 
HETATM    7  C   UNL     1       3.767  -2.968  -8.301  1.00  0.00     0.096 A 
HETATM    8  C   UNL     1       4.459   0.552  -7.952  1.00  0.00     0.221 C 
HETATM    9  C   UNL     1       4.188   0.697  -6.445  1.00  0.00     0.066 C 
HETATM   10  H   UNL     1       3.720  -2.265  -5.530  1.00  0.00     0.161 HD
ENDROOT
BRANCH   7  11
HETATM   11  C   UNL     1       3.509  -4.357  -7.948  1.00  0.00     0.261 C 
HETATM   12  N   UNL     1       3.928  -4.700  -6.677  1.00  0.00    -0.323 N 
HETATM   13  H   UNL     1       4.476  -3.995  -6.197  1.00  0.00     0.169 HD
HETATM   14  O   UNL     1       2.962  -5.106  -8.749  1.00  0.00    -0.267 OA
BRANCH  12  15
HETATM   15  C   UNL     1       3.684  -5.902  -5.982  1.00  0.00     0.037 A 
HETATM   16  C   UNL     1       2.989  -6.988  -6.522  1.00  0.00     0.066 A 
HETATM   17  C   UNL     1       2.763  -8.125  -5.747  1.00  0.00     0.067 A 
HETATM   18  C   UNL     1       3.210  -8.198  -4.434  1.00  0.00     0.036 A 
HETATM   19  C   UNL     1       3.905  -7.123  -3.888  1.00  0.00     0.005 A 
HETATM   20  C   UNL     1       4.146  -5.983  -4.660  1.00  0.00     0.029 A 
BRANCH  17  21
HETATM   21  O   UNL     1       2.094  -9.203  -6.250  1.00  0.00    -0.361 OA
HETATM   22  H   UNL     1       1.876  -9.022  -7.181  1.00  0.00     0.217 HD
ENDBRANCH  17  21
ENDBRANCH  12  15
ENDBRANCH   7  11
BRANCH   1  23
HETATM   23  C   UNL     1       6.256  -0.383  -5.360  1.00  0.00    -0.035 A 
HETATM   24  C   UNL     1       7.140  -1.411  -5.721  1.00  0.00     0.012 A 
HETATM   25  C   UNL     1       8.520  -1.272  -5.532  1.00  0.00     0.037 A 
HETATM   26  C   UNL     1       9.048  -0.107  -4.980  1.00  0.00     0.068 A 
HETATM   27  C   UNL     1       8.182   0.898  -4.560  1.00  0.00     0.037 A 
HETATM   28  C   UNL     1       6.801   0.758  -4.743  1.00  0.00     0.012 A 
BRANCH  26  29
HETATM   29  O   UNL     1      10.412  -0.073  -4.880  1.00  0.00    -0.356 OA
HETATM   30  C   UNL     1      10.995   1.223  -4.798  1.00  0.00     0.210 C 
ENDBRANCH  26  29
ENDBRANCH   1  23
BRANCH   8  31
HETATM   31  C   UNL     1       5.820   1.030  -8.405  1.00  0.00     0.409 C 
HETATM   32  F   UNL     1       6.826   0.186  -8.112  1.00  0.00    -0.169 F 
HETATM   33  F   UNL     1       5.857   1.253  -9.739  1.00  0.00    -0.169 F 
HETATM   34  F   UNL     1       6.112   2.221  -7.818  1.00  0.00    -0.169 F 
ENDBRANCH   8  31
TORSDOF 6
