REMARK  7 active torsions:
REMARK  status: ('A' for Active; 'I' for Inactive)
REMARK    1  A    between atoms: C_3  and  C_4 
REMARK    2  A    between atoms: N_5  and  C_7 
REMARK    3  A    between atoms: N_10  and  C_11 
REMARK    4  A    between atoms: C_14  and  C_15 
REMARK       I    between atoms: C_15  and  N_16 
REMARK    5  A    between atoms: N_16  and  C_17 
REMARK    6  A    between atoms: C_17  and  C_18 
REMARK    7  A    between atoms: C_18  and  N_19 
ROOT
HETATM    1  C   UNL     1       3.242   4.646   0.544  1.00  0.00     0.191 C 
HETATM    2  C   UNL     1       4.646   4.073   0.744  1.00  0.00     0.048 C 
HETATM    3  C   UNL     1       5.687   4.632  -0.198  1.00  0.00     0.098 C 
HETATM    4  N   UNL     1       5.647   6.099  -0.143  1.00  0.00    -0.283 NA
HETATM    5  C   UNL     1       4.388   6.685  -0.594  1.00  0.00     0.098 C 
HETATM    6  C   UNL     1       3.236   6.166   0.278  1.00  0.00     0.048 C 
ENDROOT
BRANCH   4   7
HETATM    7  C   UNL     1       6.854   6.629  -0.641  1.00  0.00     0.010 A 
HETATM    8  C   UNL     1       6.985   7.241  -1.896  1.00  0.00     0.024 A 
HETATM    9  C   UNL     1       8.252   7.543  -2.422  1.00  0.00     0.019 A 
HETATM   10  C   UNL     1       9.400   7.244  -1.681  1.00  0.00     0.032 A 
HETATM   11  C   UNL     1       9.284   6.718  -0.397  1.00  0.00     0.019 A 
HETATM   12  C   UNL     1       8.021   6.434   0.119  1.00  0.00     0.024 A 
BRANCH  10  13
HETATM   13  C   UNL     1      10.747   7.297  -2.287  1.00  0.00     0.251 C 
HETATM   14  N   UNL     1      11.077   8.407  -3.023  1.00  0.00    -0.355 N 
HETATM   15  H   UNL     1      10.377   9.141  -3.099  1.00  0.00     0.162 HD
HETATM   16  O   UNL     1      11.512   6.350  -2.127  1.00  0.00    -0.268 OA
BRANCH  14  17
HETATM   17  C   UNL     1      12.227   8.502  -3.924  1.00  0.00     0.150 C 
BRANCH  17  18
HETATM   18  C   UNL     1      13.613   8.072  -3.380  1.00  0.00     0.254 C 
BRANCH  18  19
HETATM   19  N   UNL     1      13.752   6.582  -3.186  1.00  0.00    -0.066 N 
HETATM   20  H   UNL     1      12.905   6.299  -2.648  1.00  0.00     0.280 HD
HETATM   21  C   UNL     1      13.741   5.747  -4.452  1.00  0.00     0.261 C 
HETATM   22  C   UNL     1      13.772   4.258  -4.082  1.00  0.00     0.195 C 
HETATM   23  O   UNL     1      14.918   3.952  -3.281  1.00  0.00    -0.388 OA
HETATM   24  C   UNL     1      14.910   4.687  -2.051  1.00  0.00     0.195 C 
HETATM   25  C   UNL     1      14.934   6.198  -2.312  1.00  0.00     0.261 C 
ENDBRANCH  18  19
ENDBRANCH  17  18
ENDBRANCH  14  17
ENDBRANCH  10  13
ENDBRANCH   4   7
BRANCH   1  26
HETATM   26  N   UNL     1       2.348   3.860  -0.463  1.00  0.00    -0.056 N 
HETATM   27  C   UNL     1       2.263   2.339  -0.168  1.00  0.00     0.257 C 
HETATM   28  C   UNL     1       1.225   1.680  -1.085  1.00  0.00     0.041 C 
HETATM   29  C   UNL     1       1.525   1.947  -2.553  1.00  0.00     0.004 C 
HETATM   30  C   UNL     1       1.590   3.443  -2.807  1.00  0.00     0.028 C 
HETATM   31  C   UNL     1       2.629   4.118  -1.924  1.00  0.00     0.236 C 
HETATM   32  H   UNL     1       1.402   4.214  -0.284  1.00  0.00     0.281 HD
BRANCH  27  33
HETATM   33  C   UNL     1       2.095   1.975   1.287  1.00  0.00     0.136 A 
HETATM   34  N   UNL     1       0.942   1.976   2.044  1.00  0.00    -0.346 N 
HETATM   35  C   UNL     1      -0.399   2.346   1.661  1.00  0.00     0.157 C 
HETATM   36  C   UNL     1       1.273   1.558   3.305  1.00  0.00     0.111 A 
HETATM   37  C   UNL     1       2.625   1.337   3.281  1.00  0.00     0.136 A 
HETATM   38  N   UNL     1       3.123   1.623   2.042  1.00  0.00    -0.244 NA
ENDBRANCH  27  33
ENDBRANCH   1  26
TORSDOF 7
