REMARK  3 active torsions:
REMARK  status: ('A' for Active; 'I' for Inactive)
REMARK    1  A    between atoms: C_4  and  N_5 
REMARK       I    between atoms: N_5  and  C_6 
REMARK    2  A    between atoms: C_6  and  C_7 
REMARK    3  A    between atoms: C_7  and  C_8 
ROOT
HETATM    1  C   UNL     1       2.284   2.813   0.060  1.00  0.00     0.286 C 
HETATM    2  N   UNL     1       1.755   2.718  -1.367  1.00  0.00    -0.056 N 
HETATM    3  H   UNL     1       0.873   2.192  -1.352  1.00  0.00     0.278 HD
HETATM    4  H   UNL     1       1.491   3.682  -1.668  1.00  0.00     0.278 HD
HETATM    5  C   UNL     1       2.721   2.131  -2.359  1.00  0.00     0.209 C 
HETATM    6  C   UNL     1       3.131   0.722  -1.867  1.00  0.00     0.115 C 
HETATM    7  N   UNL     1       3.574   0.743  -0.473  1.00  0.00    -0.353 N 
HETATM    8  C   UNL     1       3.047   1.551   0.503  1.00  0.00     0.249 C 
HETATM    9  O   UNL     1       3.276   1.319   1.685  1.00  0.00    -0.271 OA
HETATM   10  C   UNL     1       2.070   2.113  -3.742  1.00  0.00     0.035 C 
HETATM   11  C   UNL     1       0.958   1.075  -3.874  1.00  0.00     0.002 C 
HETATM   12  C   UNL     1       1.434  -0.310  -3.450  1.00  0.00     0.002 C 
HETATM   13  C   UNL     1       1.999  -0.303  -2.033  1.00  0.00     0.027 C 
HETATM   14  H   UNL     1       4.075  -0.067  -0.112  1.00  0.00     0.163 HD
ENDROOT
BRANCH   1  15
HETATM   15  C   UNL     1       3.199   4.027   0.278  1.00  0.00     0.146 C 
BRANCH  15  16
HETATM   16  C   UNL     1       2.596   5.302  -0.259  1.00  0.00     0.224 C 
HETATM   17  N   UNL     1       3.000   6.437   0.401  1.00  0.00    -0.327 N 
HETATM   18  H   UNL     1       3.451   6.337   1.304  1.00  0.00     0.169 HD
HETATM   19  O   UNL     1       1.849   5.240  -1.236  1.00  0.00    -0.273 OA
BRANCH  17  20
HETATM   20  C   UNL     1       2.764   7.772   0.001  1.00  0.00     0.035 A 
HETATM   21  C   UNL     1       2.341   8.131  -1.283  1.00  0.00     0.036 A 
HETATM   22  C   UNL     1       2.180   9.480  -1.635  1.00  0.00    -0.060 A 
HETATM   23  C   UNL     1       1.735   9.857  -3.019  1.00  0.00     0.048 C 
HETATM   24  C   UNL     1       2.399  10.470  -0.673  1.00  0.00     0.007 A 
HETATM   25  C   UNL     1       2.818  10.121   0.609  1.00  0.00     0.003 A 
HETATM   26  C   UNL     1       3.013   8.779   0.940  1.00  0.00     0.029 A 
ENDBRANCH  17  20
ENDBRANCH  15  16
ENDBRANCH   1  15
TORSDOF 3
