REMARK  3 active torsions:
REMARK  status: ('A' for Active; 'I' for Inactive)
REMARK    1  A    between atoms: C_3  and  C_4 
REMARK       I    between atoms: C_4  and  N_5 
REMARK    2  A    between atoms: N_5  and  C_6 
REMARK    3  A    between atoms: C_13  and  C_14 
REMARK       I    between atoms: C_14  and  N_15 
ROOT
HETATM    1  C   UNL     1       3.649   4.844  -0.135  1.00  0.00     0.036 A 
HETATM    2  C   UNL     1       2.454   5.560   0.020  1.00  0.00     0.046 A 
HETATM    3  C   UNL     1       2.480   6.973   0.004  1.00  0.00     0.030 A 
HETATM    4  C   UNL     1       3.698   7.620  -0.160  1.00  0.00     0.063 A 
HETATM    5  N   UNL     1       3.407   8.955  -0.131  1.00  0.00    -0.277 N 
HETATM    6  H   UNL     1       4.058   9.727  -0.221  1.00  0.00     0.189 HD
HETATM    7  N   UNL     1       2.106   9.238   0.035  1.00  0.00    -0.168 NA
HETATM    8  C   UNL     1       1.518   8.022   0.121  1.00  0.00     0.156 A 
HETATM    9  C   UNL     1       4.907   6.941  -0.313  1.00  0.00     0.034 A 
HETATM   10  C   UNL     1       4.855   5.541  -0.297  1.00  0.00     0.032 A 
ENDROOT
BRANCH   1  11
HETATM   11  N   UNL     1       3.733   3.434  -0.133  1.00  0.00    -0.322 N 
HETATM   12  C   UNL     1       2.703   2.515  -0.031  1.00  0.00     0.273 C 
HETATM   13  O   UNL     1       1.515   2.807   0.039  1.00  0.00    -0.266 OA
HETATM   14  H   UNL     1       4.656   3.051  -0.267  1.00  0.00     0.169 HD
BRANCH  12  15
HETATM   15  C   UNL     1       3.153   1.123  -0.035  1.00  0.00     0.104 A 
HETATM   16  N   UNL     1       2.333   0.034  -0.301  1.00  0.00    -0.346 N 
HETATM   17  C   UNL     1       0.929   0.130  -0.657  1.00  0.00     0.156 C 
HETATM   18  C   UNL     1       3.037  -1.153  -0.196  1.00  0.00     0.045 A 
HETATM   19  C   UNL     1       4.350  -0.818   0.133  1.00  0.00    -0.007 A 
HETATM   20  C   UNL     1       2.639  -2.491  -0.356  1.00  0.00     0.030 A 
HETATM   21  C   UNL     1       4.409   0.595   0.236  1.00  0.00     0.049 A 
HETATM   22  C   UNL     1       5.301  -1.844   0.305  1.00  0.00     0.014 A 
HETATM   23  C   UNL     1       4.913  -3.177   0.143  1.00  0.00     0.001 A 
HETATM   24  C   UNL     1       3.599  -3.494  -0.182  1.00  0.00     0.002 A 
ENDBRANCH  12  15
ENDBRANCH   1  11
BRANCH   8  25
HETATM   25  C   UNL     1       0.066   7.893   0.308  1.00  0.00     0.270 C 
HETATM   26  N   UNL     1      -0.596   9.089   0.381  1.00  0.00    -0.365 N 
HETATM   27  H   UNL     1      -0.060   9.945   0.304  1.00  0.00     0.159 HD
HETATM   28  H   UNL     1      -1.595   9.099   0.507  1.00  0.00     0.159 HD
HETATM   29  O   UNL     1      -0.537   6.829   0.393  1.00  0.00    -0.266 OA
ENDBRANCH   8  25
TORSDOF 3
