REMARK  3 active torsions:
REMARK  status: ('A' for Active; 'I' for Inactive)
REMARK    1  A    between atoms: C_5  and  N_6 
REMARK       I    between atoms: N_6  and  C_7 
REMARK    2  A    between atoms: C_7  and  C_8 
REMARK    3  A    between atoms: C_8  and  C_9 
ROOT
HETATM    1  C   UNL     1       4.643  -2.120   0.083  1.00  0.00     0.286 C 
HETATM    2  N   UNL     1       4.356  -0.637  -0.192  1.00  0.00    -0.056 N 
HETATM    3  H   UNL     1       4.867  -0.062   0.497  1.00  0.00     0.278 HD
HETATM    4  H   UNL     1       4.734  -0.394  -1.117  1.00  0.00     0.278 HD
HETATM    5  C   UNL     1       2.903  -0.238  -0.120  1.00  0.00     0.209 C 
HETATM    6  C   UNL     1       2.050  -1.206  -0.960  1.00  0.00     0.115 C 
HETATM    7  N   UNL     1       2.276  -2.589  -0.581  1.00  0.00    -0.353 N 
HETATM    8  C   UNL     1       3.494  -3.099  -0.229  1.00  0.00     0.249 C 
HETATM    9  O   UNL     1       3.635  -4.312  -0.092  1.00  0.00    -0.271 OA
HETATM   10  C   UNL     1       2.737   1.197  -0.612  1.00  0.00     0.035 C 
HETATM   11  C   UNL     1       1.268   1.613  -0.526  1.00  0.00     0.002 C 
HETATM   12  C   UNL     1       0.339   0.629  -1.241  1.00  0.00     0.002 C 
HETATM   13  C   UNL     1       0.574  -0.822  -0.818  1.00  0.00     0.027 C 
HETATM   14  H   UNL     1       1.580  -3.293  -0.822  1.00  0.00     0.163 HD
ENDROOT
BRANCH   1  15
HETATM   15  C   UNL     1       5.161  -2.354   1.507  1.00  0.00     0.146 C 
BRANCH  15  16
HETATM   16  C   UNL     1       4.118  -1.889   2.489  1.00  0.00     0.224 C 
HETATM   17  N   UNL     1       3.184  -2.852   2.798  1.00  0.00    -0.327 N 
HETATM   18  H   UNL     1       3.408  -3.822   2.587  1.00  0.00     0.169 HD
HETATM   19  O   UNL     1       4.087  -0.693   2.769  1.00  0.00    -0.273 OA
BRANCH  17  20
HETATM   20  C   UNL     1       1.882  -2.645   3.304  1.00  0.00     0.034 A 
HETATM   21  C   UNL     1       1.356  -1.391   3.619  1.00  0.00     0.030 A 
HETATM   22  C   UNL     1       0.021  -1.263   4.020  1.00  0.00     0.009 A 
HETATM   23  C   UNL     1      -0.803  -2.387   4.131  1.00  0.00    -0.062 A 
HETATM   24  C   UNL     1      -2.247  -2.241   4.514  1.00  0.00     0.048 C 
HETATM   25  C   UNL     1      -0.273  -3.644   3.827  1.00  0.00     0.009 A 
HETATM   26  C   UNL     1       1.060  -3.771   3.423  1.00  0.00     0.030 A 
ENDBRANCH  17  20
ENDBRANCH  15  16
ENDBRANCH   1  15
TORSDOF 3
