REMARK  7 active torsions:
REMARK  status: ('A' for Active; 'I' for Inactive)
REMARK    1  A    between atoms: C_2  and  C_3 
REMARK    2  A    between atoms: C_3  and  N_4 
REMARK    3  A    between atoms: N_4  and  C_5 
REMARK    4  A    between atoms: C_7  and  N_8 
REMARK    5  A    between atoms: N_8  and  C_9 
REMARK    6  A    between atoms: C_9  and  C_10 
REMARK    7  A    between atoms: C_13  and  O_14 
ROOT
HETATM    1  C   UNL     1       5.107  -2.560   1.449  1.00  0.00     0.119 A 
HETATM    2  N   UNL     1       4.468  -3.705   1.142  1.00  0.00    -0.207 NA
HETATM    3  C   UNL     1       5.202  -4.818   1.012  1.00  0.00     0.181 A 
HETATM    4  N   UNL     1       6.524  -4.835   1.151  1.00  0.00    -0.330 N 
HETATM    5  H   UNL     1       7.012  -5.698   0.945  1.00  0.00     0.168 HD
HETATM    6  C   UNL     1       7.200  -3.738   1.506  1.00  0.00     0.048 A 
HETATM    7  C   UNL     1       6.498  -2.529   1.685  1.00  0.00     0.031 A 
HETATM    8  C   UNL     1       8.588  -3.799   1.697  1.00  0.00     0.030 A 
HETATM    9  C   UNL     1       9.292  -2.659   2.083  1.00  0.00     0.002 A 
HETATM   10  C   UNL     1       8.617  -1.458   2.278  1.00  0.00     0.001 A 
HETATM   11  C   UNL     1       7.235  -1.389   2.082  1.00  0.00     0.017 A 
ENDROOT
BRANCH   3  12
HETATM   12  N   UNL     1       4.524  -5.964   0.629  1.00  0.00    -0.258 NA
HETATM   13  H   UNL     1       3.538  -5.693   0.605  1.00  0.00     0.130 HD
BRANCH  12  14
HETATM   14  C   UNL     1       4.711  -7.171   1.432  1.00  0.00     0.134 C 
BRANCH  14  15
HETATM   15  C   UNL     1       6.004  -7.855   1.054  1.00  0.00    -0.045 A 
HETATM   16  C   UNL     1       6.959  -8.177   2.025  1.00  0.00     0.011 A 
HETATM   17  C   UNL     1       8.173  -8.756   1.647  1.00  0.00     0.037 A 
HETATM   18  C   UNL     1       8.447  -9.040   0.307  1.00  0.00     0.068 A 
HETATM   19  C   UNL     1       7.491  -8.741  -0.662  1.00  0.00     0.037 A 
HETATM   20  C   UNL     1       6.277  -8.159  -0.290  1.00  0.00     0.011 A 
BRANCH  18  21
HETATM   21  O   UNL     1       9.674  -9.593   0.077  1.00  0.00    -0.356 OA
HETATM   22  C   UNL     1       9.920 -10.096  -1.233  1.00  0.00     0.210 C 
ENDBRANCH  18  21
ENDBRANCH  14  15
ENDBRANCH  12  14
ENDBRANCH   3  12
BRANCH   1  23
HETATM   23  N   UNL     1       4.356  -1.381   1.581  1.00  0.00    -0.277 NA
HETATM   24  H   UNL     1       4.786  -0.624   1.052  1.00  0.00     0.129 HD
BRANCH  23  25
HETATM   25  C   UNL     1       2.927  -1.487   1.279  1.00  0.00     0.093 C 
BRANCH  25  26
HETATM   26  C   UNL     1       2.276  -0.111   1.427  1.00  0.00     0.010 C 
HETATM   27  C   UNL     1       0.784  -0.167   1.146  1.00  0.00     0.006 C 
ENDBRANCH  25  26
ENDBRANCH  23  25
ENDBRANCH   1  23
TORSDOF 7
