REMARK  5 active torsions:
REMARK  status: ('A' for Active; 'I' for Inactive)
REMARK    1  A    between atoms: C_7  and  O_8 
REMARK    2  A    between atoms: O_8  and  C_9 
REMARK    3  A    between atoms: C_12  and  N_13 
REMARK    4  A    between atoms: N_13  and  C_16 
REMARK    5  A    between atoms: C_16  and  C_17 
ROOT
HETATM    1  C   UNL     1       4.409   3.282   0.759  1.00  0.00     0.028 A 
HETATM    2  C   UNL     1       5.717   2.807   0.783  1.00  0.00     0.062 A 
HETATM    3  C   UNL     1       6.827   3.680   0.993  1.00  0.00     0.101 C 
HETATM    4  N   UNL     1       7.743   4.370   1.162  1.00  0.00    -0.191 NA
HETATM    5  C   UNL     1       5.920   1.444   0.595  1.00  0.00     0.142 A 
HETATM    6  N   UNL     1       4.927   0.538   0.389  1.00  0.00    -0.236 NA
HETATM    7  C   UNL     1       3.670   1.038   0.367  1.00  0.00     0.164 A 
HETATM    8  C   UNL     1       3.368   2.382   0.548  1.00  0.00     0.059 A 
ENDROOT
BRANCH   7   9
HETATM    9  O   UNL     1       2.588   0.217   0.160  1.00  0.00    -0.329 OA
BRANCH   9  10
HETATM   10  C   UNL     1       2.782  -1.174  -0.087  1.00  0.00     0.130 C 
HETATM   11  C   UNL     1       3.321  -1.946   1.125  1.00  0.00     0.034 C 
HETATM   12  C   UNL     1       3.416  -3.443   0.835  1.00  0.00     0.035 C 
HETATM   13  C   UNL     1       4.183  -3.760  -0.452  1.00  0.00     0.186 C 
HETATM   14  C   UNL     1       3.621  -2.982  -1.648  1.00  0.00     0.035 C 
HETATM   15  C   UNL     1       3.525  -1.478  -1.396  1.00  0.00     0.034 C 
BRANCH  13  16
HETATM   16  N   UNL     1       5.628  -3.428  -0.293  1.00  0.00    -0.066 N 
HETATM   17  H   UNL     1       6.120  -3.499  -1.203  1.00  0.00     0.278 HD
HETATM   18  H   UNL     1       5.790  -2.448  -0.022  1.00  0.00     0.278 HD
BRANCH  16  19
HETATM   19  C   UNL     1       6.428  -4.319   0.613  1.00  0.00     0.292 C 
BRANCH  19  20
HETATM   20  C   UNL     1       7.847  -4.356   0.146  1.00  0.00     0.067 A 
HETATM   21  N   UNL     1       8.133  -3.741  -1.074  1.00  0.00    -0.256 NA
HETATM   22  C   UNL     1       9.417  -3.884  -1.342  1.00  0.00     0.166 A 
HETATM   23  S   UNL     1      10.337  -4.750  -0.183  1.00  0.00    -0.092 SA
HETATM   24  C   UNL     1       8.923  -4.960   0.766  1.00  0.00     0.080 A 
ENDBRANCH  19  20
ENDBRANCH  16  19
ENDBRANCH  13  16
ENDBRANCH   9  10
ENDBRANCH   7   9
TORSDOF 5
