REMARK  6 active torsions:
REMARK  status: ('A' for Active; 'I' for Inactive)
REMARK    1  A    between atoms: O_2  and  C_3 
REMARK    2  A    between atoms: C_4  and  N_5 
REMARK       I    between atoms: N_5  and  C_6 
REMARK       I    between atoms: C_6  and  N_7 
REMARK    3  A    between atoms: N_7  and  C_8 
REMARK    4  A    between atoms: C_8  and  C_9 
REMARK    5  A    between atoms: C_9  and  C_10 
REMARK    6  A    between atoms: C_10  and  N_11 
ROOT
HETATM    1  N   UNL     1      -0.280   4.974  -2.022  1.00  0.00    -0.306 N 
HETATM    2  C   UNL     1       0.793   5.714  -1.582  1.00  0.00     0.320 C 
HETATM    3  N   UNL     1       1.234   5.273  -0.350  1.00  0.00    -0.343 N 
HETATM    4  O   UNL     1       1.321   6.641  -2.179  1.00  0.00    -0.247 OA
HETATM    5  H   UNL     1      -0.450   4.083  -1.579  1.00  0.00     0.171 HD
HETATM    6  H   UNL     1       0.831   4.415  -0.008  1.00  0.00     0.164 HD
ENDROOT
BRANCH   3   7
HETATM    7  C   UNL     1       2.533   5.640   0.182  1.00  0.00     0.126 C 
BRANCH   7   8
HETATM    8  C   UNL     1       2.762   7.127   0.434  1.00  0.00     0.040 C 
BRANCH   8   9
HETATM    9  C   UNL     1       1.725   7.740   1.367  1.00  0.00     0.130 C 
BRANCH   9  10
HETATM   10  N   UNL     1       2.077   9.106   1.730  1.00  0.00    -0.356 N 
HETATM   11  C   UNL     1       1.818  10.231   0.972  1.00  0.00     0.044 A 
HETATM   12  C   UNL     1       2.345  11.320   1.672  1.00  0.00    -0.008 A 
HETATM   13  C   UNL     1       1.181  10.384  -0.270  1.00  0.00     0.030 A 
HETATM   14  C   UNL     1       2.227  12.610   1.117  1.00  0.00     0.014 A 
HETATM   15  C   UNL     1       2.922  10.815   2.869  1.00  0.00     0.031 A 
HETATM   16  C   UNL     1       1.589  12.773  -0.117  1.00  0.00     0.001 A 
HETATM   17  C   UNL     1       1.075  11.674  -0.799  1.00  0.00     0.002 A 
HETATM   18  C   UNL     1       2.741   9.452   2.879  1.00  0.00     0.092 A 
ENDBRANCH   9  10
ENDBRANCH   8   9
ENDBRANCH   7   8
ENDBRANCH   3   7
BRANCH   1  19
HETATM   19  C   UNL     1      -1.037   5.191  -3.192  1.00  0.00     0.069 A 
HETATM   20  C   UNL     1      -1.818   4.128  -3.672  1.00  0.00     0.095 A 
HETATM   21  C   UNL     1      -2.655   4.285  -4.779  1.00  0.00     0.039 A 
HETATM   22  C   UNL     1      -2.688   5.508  -5.444  1.00  0.00     0.003 A 
HETATM   23  C   UNL     1      -1.896   6.565  -4.995  1.00  0.00     0.002 A 
HETATM   24  C   UNL     1      -1.075   6.409  -3.872  1.00  0.00     0.032 A 
BRANCH  20  25
HETATM   25  O   UNL     1      -1.782   2.904  -3.047  1.00  0.00    -0.354 OA
HETATM   26  C   UNL     1      -0.779   2.080  -3.650  1.00  0.00     0.210 C 
ENDBRANCH  20  25
ENDBRANCH   1  19
TORSDOF 6
