REMARK  2 active torsions:
REMARK  status: ('A' for Active; 'I' for Inactive)
REMARK    1  A    between atoms: C_4  and  C_5 
REMARK       I    between atoms: N_12  and  C_13 
REMARK    2  A    between atoms: C_13  and  C_14 
ROOT
HETATM    1  C   UNL     1       2.773   0.176  -0.333  1.00  0.00     0.070 A 
HETATM    2  N   UNL     1       3.701  -0.795  -0.626  1.00  0.00    -0.277 N 
HETATM    3  H   UNL     1       3.534  -1.785  -0.765  1.00  0.00     0.189 HD
HETATM    4  N   UNL     1       4.961  -0.337  -0.756  1.00  0.00    -0.178 NA
HETATM    5  C   UNL     1       4.832   0.971  -0.534  1.00  0.00     0.066 A 
HETATM    6  C   UNL     1       3.498   1.352  -0.269  1.00  0.00     0.015 A 
HETATM    7  C   UNL     1       3.076   2.749   0.019  1.00  0.00     0.169 C 
HETATM    8  N   UNL     1       4.253   3.634   0.125  1.00  0.00    -0.343 N 
HETATM    9  C   UNL     1       4.324   4.743   0.963  1.00  0.00     0.254 C 
HETATM   10  O   UNL     1       5.338   5.418   1.118  1.00  0.00    -0.267 OA
HETATM   11  C   UNL     1       5.396   3.349  -0.764  1.00  0.00     0.132 C 
HETATM   12  C   UNL     1       5.960   1.935  -0.548  1.00  0.00     0.081 C 
ENDROOT
BRANCH   9  13
HETATM   13  C   UNL     1       3.124   5.142   1.731  1.00  0.00     0.035 A 
HETATM   14  C   UNL     1       1.939   5.491   1.071  1.00  0.00     0.056 A 
HETATM   15  C   UNL     1       0.861   5.837   1.857  1.00  0.00     0.106 A 
HETATM   16  C   UNL     1       0.941   5.870   3.231  1.00  0.00     0.105 A 
HETATM   17  O   UNL     1      -0.375   6.177   1.401  1.00  0.00    -0.323 OA
HETATM   18  O   UNL     1      -0.235   6.234   3.809  1.00  0.00    -0.323 OA
HETATM   19  C   UNL     1       2.107   5.565   3.902  1.00  0.00     0.041 A 
HETATM   20  C   UNL     1      -1.066   6.420   2.645  1.00  0.00     0.352 A 
HETATM   21  C   UNL     1       3.217   5.199   3.137  1.00  0.00     0.020 A 
ENDBRANCH   9  13
BRANCH   1  22
HETATM   22  C   UNL     1       1.352  -0.103  -0.163  1.00  0.00    -0.007 A 
HETATM   23  C   UNL     1       0.924  -1.141   0.675  1.00  0.00     0.014 A 
HETATM   24  C   UNL     1      -0.439  -1.401   0.841  1.00  0.00     0.001 A 
HETATM   25  C   UNL     1      -1.384  -0.627   0.171  1.00  0.00     0.000 A 
HETATM   26  C   UNL     1      -0.969   0.406  -0.666  1.00  0.00     0.001 A 
HETATM   27  C   UNL     1       0.393   0.667  -0.832  1.00  0.00     0.014 A 
ENDBRANCH   1  22
TORSDOF 2
