REMARK  3 active torsions:
REMARK  status: ('A' for Active; 'I' for Inactive)
REMARK    1  A    between atoms: N_6  and  C_7 
REMARK    2  A    between atoms: C_10  and  S_11 
REMARK    3  A    between atoms: S_11  and  N_12 
ROOT
HETATM    1  C   UNL     1       5.473  -0.123   3.270  1.00  0.00     0.030 A 
HETATM    2  C   UNL     1       5.684   1.082   3.962  1.00  0.00     0.031 A 
HETATM    3  C   UNL     1       6.362   1.126   5.190  1.00  0.00     0.027 A 
HETATM    4  C   UNL     1       6.818  -0.053   5.771  1.00  0.00     0.079 A 
HETATM    5  C   UNL     1       6.609  -1.269   5.128  1.00  0.00     0.027 A 
HETATM    6  C   UNL     1       5.926  -1.296   3.906  1.00  0.00     0.031 A 
ENDROOT
BRANCH   4   7
HETATM    7  S   UNL     1       7.774   0.004   7.272  1.00  0.00     0.260 S 
HETATM    8  O   UNL     1       8.655  -1.144   7.245  1.00  0.00    -0.200 OA
HETATM    9  O   UNL     1       8.305   1.347   7.374  1.00  0.00    -0.200 OA
BRANCH   7  10
HETATM   10  N   UNL     1       6.623  -0.218   8.476  1.00  0.00    -0.307 N 
HETATM   11  C   UNL     1       5.783   0.903   8.932  1.00  0.00     0.135 C 
HETATM   12  C   UNL     1       4.341   0.735   8.468  1.00  0.00     0.021 C 
HETATM   13  C   UNL     1       3.784  -0.627   8.866  1.00  0.00     0.003 C 
HETATM   14  C   UNL     1       4.679  -1.744   8.342  1.00  0.00     0.021 C 
HETATM   15  C   UNL     1       6.122  -1.566   8.800  1.00  0.00     0.135 C 
ENDBRANCH   7  10
ENDBRANCH   4   7
BRANCH   1  16
HETATM   16  N   UNL     1       4.820  -0.195   2.034  1.00  0.00    -0.378 N 
HETATM   17  C   UNL     1       5.414  -1.079   1.003  1.00  0.00     0.150 C 
HETATM   18  C   UNL     1       6.432  -0.299   0.143  1.00  0.00     0.254 C 
HETATM   19  N   UNL     1       5.767   0.932  -0.482  1.00  0.00    -0.072 N 
HETATM   20  C   UNL     1       6.716   1.698  -1.353  1.00  0.00     0.269 C 
HETATM   21  H   UNL     1       5.005   0.588  -1.080  1.00  0.00     0.279 HD
HETATM   22  C   UNL     1       5.129   1.818   0.592  1.00  0.00     0.254 C 
HETATM   23  C   UNL     1       4.155   0.995   1.465  1.00  0.00     0.150 C 
ENDBRANCH   1  16
TORSDOF 3
