REMARK  8 active torsions:
REMARK  status: ('A' for Active; 'I' for Inactive)
REMARK    1  A    between atoms: C_3  and  N_4 
REMARK       I    between atoms: N_4  and  C_5 
REMARK       I    between atoms: C_5  and  N_6 
REMARK       I    between atoms: N_6  and  C_7 
REMARK    2  A    between atoms: C_7  and  C_8 
REMARK    3  A    between atoms: C_8  and  N_9 
REMARK    4  A    between atoms: N_9  and  C_11 
REMARK    5  A    between atoms: N_9  and  C_17 
REMARK    6  A    between atoms: C_11  and  C_12 
REMARK    7  A    between atoms: C_17  and  C_18 
REMARK    8  A    between atoms: C_19  and  O_20 
ROOT
HETATM    1  N   UNL     1       3.047  -1.269   1.211  1.00  0.00    -0.053 N 
HETATM    2  H   UNL     1       3.666  -0.444   1.251  1.00  0.00     0.281 HD
ENDROOT
BRANCH   1   3
HETATM    3  C   UNL     1       2.208  -1.207   2.477  1.00  0.00     0.338 C 
BRANCH   3   4
HETATM    4  C   UNL     1       3.066  -1.120   3.737  1.00  0.00     0.251 C 
HETATM    5  N   UNL     1       2.752  -2.040   4.713  1.00  0.00    -0.278 N 
HETATM    6  C   UNL     1       3.538  -2.370   5.783  1.00  0.00     0.323 C 
HETATM    7  H   UNL     1       2.221  -2.859   4.437  1.00  0.00     0.173 HD
HETATM    8  N   UNL     1       4.298  -1.370   6.304  1.00  0.00    -0.338 N 
HETATM    9  O   UNL     1       3.522  -3.527   6.190  1.00  0.00    -0.247 OA
HETATM   10  H   UNL     1       4.347  -0.501   5.782  1.00  0.00     0.164 HD
HETATM   11  O   UNL     1       3.958  -0.275   3.809  1.00  0.00    -0.271 OA
BRANCH   8  12
HETATM   12  C   UNL     1       5.222  -1.574   7.417  1.00  0.00     0.089 C 
HETATM   13  C   UNL     1       6.223  -0.404   7.568  1.00  0.00     0.004 C 
HETATM   14  C   UNL     1       7.019  -0.136   6.288  1.00  0.00     0.012 C 
HETATM   15  C   UNL     1       5.532   0.878   8.059  1.00  0.00     0.006 C 
HETATM   16  C   UNL     1       4.764   0.640   9.357  1.00  0.00     0.001 C 
HETATM   17  C   UNL     1       3.778  -0.516   9.232  1.00  0.00     0.002 C 
HETATM   18  C   UNL     1       4.463  -1.790   8.739  1.00  0.00     0.026 C 
ENDBRANCH   8  12
ENDBRANCH   3   4
ENDBRANCH   1   3
BRANCH   1  19
HETATM   19  C   UNL     1       4.014  -2.426   1.142  1.00  0.00     0.300 C 
BRANCH  19  20
HETATM   20  C   UNL     1       3.390  -3.765   1.283  1.00  0.00     0.078 A 
HETATM   21  O   UNL     1       2.991  -4.112   2.543  1.00  0.00    -0.325 OA
HETATM   22  C   UNL     1       2.511  -5.380   2.475  1.00  0.00     0.142 A 
HETATM   23  C   UNL     1       2.563  -5.841   1.181  1.00  0.00     0.027 A 
HETATM   24  C   UNL     1       3.130  -4.797   0.407  1.00  0.00     0.036 A 
ENDBRANCH  19  20
ENDBRANCH   1  19
BRANCH   1  25
HETATM   25  C   UNL     1       2.228  -1.093  -0.040  1.00  0.00     0.277 C 
BRANCH  25  26
HETATM   26  C   UNL     1       2.122   0.356  -0.429  1.00  0.00     0.001 A 
HETATM   27  C   UNL     1       3.221   1.012  -0.999  1.00  0.00     0.073 A 
HETATM   28  C   UNL     1       3.164   2.359  -1.343  1.00  0.00     0.037 A 
HETATM   29  C   UNL     1       1.993   3.076  -1.102  1.00  0.00     0.003 A 
HETATM   30  C   UNL     1       0.891   2.444  -0.526  1.00  0.00     0.001 A 
HETATM   31  C   UNL     1       0.951   1.089  -0.193  1.00  0.00     0.011 A 
BRANCH  27  32
HETATM   32  O   UNL     1       4.373   0.298  -1.184  1.00  0.00    -0.360 OA
HETATM   33  H   UNL     1       4.980   0.840  -1.727  1.00  0.00     0.217 HD
ENDBRANCH  27  32
ENDBRANCH  25  26
ENDBRANCH   1  25
TORSDOF 8
