REMARK  4 active torsions:
REMARK  status: ('A' for Active; 'I' for Inactive)
REMARK    1  A    between atoms: C_3  and  C_4 
REMARK    2  A    between atoms: C_4  and  N_5 
REMARK       I    between atoms: N_5  and  C_6 
REMARK       I    between atoms: C_6  and  N_7 
REMARK    3  A    between atoms: N_7  and  C_8 
REMARK    4  A    between atoms: C_17  and  C_18 
ROOT
HETATM    1  C   UNL     1       1.196   0.028  -0.838  1.00  0.00     0.049 C 
HETATM    2  C   UNL     1       2.670   0.005  -0.539  1.00  0.00    -0.053 A 
HETATM    3  C   UNL     1       3.388   1.177  -0.221  1.00  0.00    -0.035 A 
HETATM    4  C   UNL     1       4.751   1.076   0.116  1.00  0.00     0.010 A 
HETATM    5  C   UNL     1       5.415  -0.151   0.067  1.00  0.00     0.014 A 
HETATM    6  C   UNL     1       4.729  -1.291  -0.355  1.00  0.00    -0.004 A 
HETATM    7  C   UNL     1       3.357  -1.218  -0.621  1.00  0.00     0.021 A 
ENDROOT
BRANCH   3   8
HETATM    8  C   UNL     1       2.745   2.544  -0.219  1.00  0.00     0.163 C 
BRANCH   8   9
HETATM    9  N   UNL     1       2.377   2.964   1.111  1.00  0.00    -0.339 N 
HETATM   10  C   UNL     1       1.763   4.179   1.266  1.00  0.00     0.316 C 
HETATM   11  N   UNL     1       1.423   4.424   2.569  1.00  0.00    -0.339 N 
HETATM   12  O   UNL     1       1.569   4.962   0.346  1.00  0.00    -0.247 OA
HETATM   13  H   UNL     1       1.545   3.680   3.238  1.00  0.00     0.164 HD
HETATM   14  H   UNL     1       2.136   2.241   1.770  1.00  0.00     0.164 HD
BRANCH  11  15
HETATM   15  C   UNL     1       0.640   5.594   2.949  1.00  0.00     0.086 C 
HETATM   16  C   UNL     1      -0.863   5.311   2.815  1.00  0.00     0.025 C 
HETATM   17  C   UNL     1      -1.377   4.366   3.900  1.00  0.00     0.002 C 
HETATM   18  C   UNL     1      -1.033   4.875   5.296  1.00  0.00     0.000 C 
HETATM   19  C   UNL     1       0.463   5.129   5.453  1.00  0.00     0.002 C 
HETATM   20  C   UNL     1       0.997   6.060   4.365  1.00  0.00     0.025 C 
ENDBRANCH  11  15
ENDBRANCH   8   9
ENDBRANCH   3   8
BRANCH   6  21
HETATM   21  C   UNL     1       5.410  -2.610  -0.486  1.00  0.00     0.098 A 
HETATM   22  N   UNL     1       4.834  -3.619   0.097  1.00  0.00    -0.169 NA
HETATM   23  N   UNL     1       5.422  -4.854   0.047  1.00  0.00    -0.238 N 
HETATM   24  C   UNL     1       4.717  -5.934   0.706  1.00  0.00     0.183 C 
HETATM   25  C   UNL     1       6.661  -5.112  -0.526  1.00  0.00     0.274 A 
HETATM   26  O   UNL     1       7.216  -6.209  -0.498  1.00  0.00    -0.266 OA
HETATM   27  C   UNL     1       7.301  -3.987  -1.229  1.00  0.00     0.046 A 
HETATM   28  C   UNL     1       6.671  -2.747  -1.259  1.00  0.00     0.011 A 
HETATM   29  C   UNL     1       8.512  -4.190  -1.909  1.00  0.00     0.018 A 
HETATM   30  C   UNL     1       7.227  -1.721  -2.037  1.00  0.00     0.015 A 
HETATM   31  C   UNL     1       8.433  -1.921  -2.716  1.00  0.00     0.001 A 
HETATM   32  C   UNL     1       9.082  -3.151  -2.643  1.00  0.00     0.001 A 
ENDBRANCH   6  21
TORSDOF 4
