REMARK  3 active torsions:
REMARK  status: ('A' for Active; 'I' for Inactive)
REMARK    1  A    between atoms: C_6  and  N_7 
REMARK    2  A    between atoms: N_7  and  N_8 
REMARK    3  A    between atoms: C_9  and  C_10 
ROOT
HETATM    1  C   UNL     1      -6.464  -2.611  -0.008  1.00  0.00     0.024 A 
HETATM    2  C   UNL     1      -7.848  -2.606  -0.050  1.00  0.00     0.138 A 
HETATM    3 CL   UNL     1      -8.796  -1.171  -0.089  1.00  0.00    -0.061 Cl
HETATM    4  N   UNL     1      -8.610  -3.727  -0.065  1.00  0.00    -0.235 NA
HETATM    5  C   UNL     1      -7.989  -4.919  -0.039  1.00  0.00     0.071 A 
HETATM    6  C   UNL     1      -6.581  -5.029   0.005  1.00  0.00    -0.004 A 
HETATM    7  C   UNL     1      -5.826  -3.852   0.020  1.00  0.00     0.030 A 
HETATM    8  C   UNL     1      -8.738  -6.088  -0.060  1.00  0.00     0.072 A 
HETATM    9  C   UNL     1      -8.126  -7.342  -0.042  1.00  0.00     0.104 A 
HETATM   10  C   UNL     1      -6.738  -7.443   0.029  1.00  0.00     0.103 A 
HETATM   11  O   UNL     1      -6.067  -8.636   0.083  1.00  0.00    -0.346 OA
HETATM   12  C   UNL     1      -6.950  -9.717   0.408  1.00  0.00     0.202 C 
HETATM   13  C   UNL     1      -8.228  -9.629  -0.410  1.00  0.00     0.202 C 
HETATM   14  O   UNL     1      -8.954  -8.435  -0.088  1.00  0.00    -0.346 OA
HETATM   15  C   UNL     1      -5.963  -6.289   0.037  1.00  0.00     0.053 A 
ENDROOT
BRANCH   1  16
HETATM   16  C   UNL     1      -5.659  -1.375   0.005  1.00  0.00     0.154 C 
HETATM   17  N   UNL     1      -4.365  -1.439   0.042  1.00  0.00    -0.172 NA
BRANCH  17  18
HETATM   18  N   UNL     1      -3.715  -0.244   0.050  1.00  0.00    -0.108 N 
HETATM   19  H   UNL     1      -4.223   0.639   0.025  1.00  0.00     0.208 HD
BRANCH  18  20
HETATM   20  C   UNL     1      -2.370  -0.148   0.080  1.00  0.00     0.721 A 
HETATM   21  N   UNL     1      -1.617   0.926   0.084  1.00  0.00    -0.061 NA
HETATM   22  C   UNL     1      -0.322   0.456   0.118  1.00  0.00     0.103 A 
HETATM   23  C   UNL     1      -0.293  -0.935   0.136  1.00  0.00     0.078 A 
HETATM   24  C   UNL     1       0.890   1.161   0.135  1.00  0.00     0.034 A 
HETATM   25  C   UNL     1       0.884  -1.684   0.171  1.00  0.00     0.032 A 
HETATM   26  N   UNL     1      -1.613  -1.288   0.111  1.00  0.00    -0.186 N 
HETATM   27  C   UNL     1       2.083  -0.962   0.187  1.00  0.00     0.002 A 
HETATM   28  C   UNL     1       2.089   0.436   0.170  1.00  0.00     0.002 A 
HETATM   29  H   UNL     1      -2.012  -2.213   0.114  1.00  0.00     0.184 HD
ENDBRANCH  18  20
ENDBRANCH  17  18
ENDBRANCH   1  16
TORSDOF 3
