REMARK  5 active torsions:
REMARK  status: ('A' for Active; 'I' for Inactive)
REMARK    1  A    between atoms: C_2  and  C_3 
REMARK    2  A    between atoms: C_6  and  N_7 
REMARK       I    between atoms: N_7  and  C_8 
REMARK    3  A    between atoms: C_8  and  C_9 
REMARK    4  A    between atoms: C_17  and  C_18 
REMARK    5  A    between atoms: C_21  and  O_22 
ROOT
HETATM    1  C   UNL     1       3.288  -6.062  -0.240  1.00  0.00     0.047 A 
HETATM    2  C   UNL     1       2.362  -4.998  -0.369  1.00  0.00     0.008 A 
HETATM    3  C   UNL     1       1.015  -5.332  -0.150  1.00  0.00     0.068 A 
HETATM    4  C   UNL     1       0.052  -4.334  -0.220  1.00  0.00     0.032 A 
HETATM    5  C   UNL     1       0.374  -3.013  -0.533  1.00  0.00     0.002 A 
HETATM    6  C   UNL     1       1.691  -2.675  -0.801  1.00  0.00     0.001 A 
HETATM    7  C   UNL     1       2.676  -3.658  -0.729  1.00  0.00     0.015 A 
HETATM    8  N   UNL     1       0.602  -6.583   0.103  1.00  0.00    -0.248 NA
HETATM    9  C   UNL     1       1.493  -7.606   0.124  1.00  0.00     0.068 A 
HETATM   10  C   UNL     1       2.850  -7.370  -0.014  1.00  0.00     0.050 A 
ENDROOT
BRANCH   1  11
HETATM   11  C   UNL     1       4.756  -5.883  -0.393  1.00  0.00     0.257 C 
HETATM   12  N   UNL     1       5.296  -4.835   0.330  1.00  0.00    -0.323 N 
HETATM   13  H   UNL     1       4.670  -4.340   0.955  1.00  0.00     0.169 HD
HETATM   14  O   UNL     1       5.355  -6.671  -1.114  1.00  0.00    -0.267 OA
BRANCH  12  15
HETATM   15  C   UNL     1       6.594  -4.296   0.199  1.00  0.00     0.035 A 
HETATM   16  C   UNL     1       7.594  -4.858  -0.595  1.00  0.00     0.030 A 
HETATM   17  C   UNL     1       8.827  -4.213  -0.747  1.00  0.00     0.017 A 
HETATM   18  C   UNL     1       9.066  -2.987  -0.120  1.00  0.00     0.009 A 
HETATM   19  C   UNL     1       8.084  -2.437   0.708  1.00  0.00     0.017 A 
HETATM   20  C   UNL     1       6.858  -3.095   0.871  1.00  0.00     0.030 A 
BRANCH  18  21
HETATM   21  C   UNL     1      10.363  -2.300  -0.369  1.00  0.00     0.155 C 
HETATM   22  C   UNL     1      10.429  -0.804  -0.208  1.00  0.00     0.096 C 
HETATM   23  O   UNL     1      11.346  -2.955  -0.709  1.00  0.00    -0.293 OA
ENDBRANCH  18  21
ENDBRANCH  12  15
ENDBRANCH   1  11
BRANCH   9  24
HETATM   24  C   UNL     1       0.906  -8.957   0.259  1.00  0.00    -0.007 A 
HETATM   25  C   UNL     1       1.526 -10.102  -0.271  1.00  0.00     0.016 A 
HETATM   26  C   UNL     1       0.923 -11.363  -0.183  1.00  0.00     0.037 A 
HETATM   27  C   UNL     1      -0.321 -11.519   0.427  1.00  0.00     0.068 A 
HETATM   28  C   UNL     1      -0.947 -10.404   0.975  1.00  0.00     0.037 A 
HETATM   29  C   UNL     1      -0.340  -9.143   0.888  1.00  0.00     0.016 A 
BRANCH  27  30
HETATM   30  O   UNL     1      -0.808 -12.796   0.423  1.00  0.00    -0.356 OA
HETATM   31  C   UNL     1      -2.160 -12.964   0.831  1.00  0.00     0.210 C 
ENDBRANCH  27  30
ENDBRANCH   9  24
TORSDOF 5
