REMARK  3 active torsions:
REMARK  status: ('A' for Active; 'I' for Inactive)
REMARK    1  A    between atoms: C_7  and  C_8 
REMARK    2  A    between atoms: C_12  and  C_13 
REMARK    3  A    between atoms: C_16  and  C_17 
ROOT
HETATM    1  C   UNL     1      -4.144  -7.832   2.273  1.00  0.00     0.048 C 
HETATM    2  C   UNL     1      -4.294  -6.347   2.415  1.00  0.00    -0.061 A 
HETATM    3  C   UNL     1      -3.264  -5.473   2.048  1.00  0.00     0.021 A 
HETATM    4  C   UNL     1      -3.395  -4.059   2.154  1.00  0.00     0.008 A 
HETATM    5  C   UNL     1      -4.606  -3.547   2.660  1.00  0.00     0.068 A 
HETATM    6  N   UNL     1      -4.835  -2.239   2.831  1.00  0.00    -0.252 NA
HETATM    7  C   UNL     1      -3.886  -1.331   2.521  1.00  0.00     0.040 A 
HETATM    8  C   UNL     1      -2.663  -1.741   2.011  1.00  0.00     0.044 A 
HETATM    9  C   UNL     1      -2.398  -3.105   1.808  1.00  0.00     0.034 A 
HETATM   10  C   UNL     1      -5.624  -4.424   3.007  1.00  0.00     0.033 A 
HETATM   11  C   UNL     1      -5.486  -5.807   2.884  1.00  0.00     0.009 A 
ENDROOT
BRANCH   9  12
HETATM   12  C   UNL     1      -1.111  -3.491   1.230  1.00  0.00     0.207 A 
HETATM   13  O   UNL     1      -0.063  -2.626   1.422  1.00  0.00    -0.191 OA
HETATM   14  N   UNL     1       1.054  -3.191   0.797  1.00  0.00    -0.108 NA
HETATM   15  C   UNL     1       0.577  -4.336   0.310  1.00  0.00     0.189 A 
HETATM   16  N   UNL     1      -0.762  -4.553   0.525  1.00  0.00    -0.202 NA
BRANCH  15  17
HETATM   17  C   UNL     1       1.396  -5.322  -0.456  1.00  0.00     0.282 C 
HETATM   18  N   UNL     1       0.510  -6.069  -1.460  1.00  0.00    -0.060 N 
HETATM   19  H   UNL     1      -0.331  -6.377  -0.949  1.00  0.00     0.278 HD
HETATM   20  H   UNL     1       0.169  -5.393  -2.156  1.00  0.00     0.278 HD
HETATM   21  C   UNL     1       1.204  -7.214  -2.128  1.00  0.00     0.259 C 
HETATM   22  C   UNL     1       1.815  -8.133  -1.069  1.00  0.00     0.195 C 
HETATM   23  O   UNL     1       2.715  -7.395  -0.234  1.00  0.00    -0.387 OA
HETATM   24  C   UNL     1       2.041  -6.355   0.491  1.00  0.00     0.208 C 
ENDBRANCH  15  17
ENDBRANCH   9  12
BRANCH   7  25
HETATM   25  C   UNL     1      -4.180   0.130   2.761  1.00  0.00     0.038 A 
HETATM   26  C   UNL     1      -4.245   1.098   1.601  1.00  0.00     0.011 A 
HETATM   27  C   UNL     1      -5.504   0.711   2.318  1.00  0.00     0.011 A 
ENDBRANCH   7  25
TORSDOF 3
