REMARK  6 active torsions:
REMARK  status: ('A' for Active; 'I' for Inactive)
REMARK    1  A    between atoms: C_4  and  C_5 
REMARK    2  A    between atoms: C_5  and  N_6 
REMARK    3  A    between atoms: N_6  and  N_7 
REMARK    4  A    between atoms: N_6  and  C_21 
REMARK       I    between atoms: N_7  and  C_8 
REMARK    5  A    between atoms: C_8  and  C_9 
REMARK    6  A    between atoms: C_9  and  C_10 
ROOT
HETATM    1  N   UNL     1       2.756  -2.647   0.220  1.00  0.00    -0.267 N 
HETATM    2  C   UNL     1       2.549  -2.266  -1.103  1.00  0.00     0.240 C 
HETATM    3  O   UNL     1       2.785  -1.140  -1.537  1.00  0.00    -0.272 OA
HETATM    4  H   UNL     1       2.542  -3.569   0.581  1.00  0.00     0.190 HD
ENDROOT
BRANCH   1   5
HETATM    5  N   UNL     1       3.333  -1.746   1.144  1.00  0.00    -0.286 N 
BRANCH   5   6
HETATM    6  C   UNL     1       2.570  -0.499   1.356  1.00  0.00     0.187 C 
BRANCH   6   7
HETATM    7  C   UNL     1       2.458  -0.137   2.825  1.00  0.00    -0.038 A 
HETATM    8  C   UNL     1       2.581   1.200   3.232  1.00  0.00     0.009 A 
HETATM    9  C   UNL     1       2.430   1.551   4.576  1.00  0.00     0.001 A 
HETATM   10  C   UNL     1       2.144   0.572   5.525  1.00  0.00     0.000 A 
HETATM   11  C   UNL     1       2.005  -0.757   5.134  1.00  0.00     0.001 A 
HETATM   12  C   UNL     1       2.156  -1.109   3.792  1.00  0.00     0.009 A 
ENDBRANCH   6   7
ENDBRANCH   5   6
BRANCH   5  13
HETATM   13  C   UNL     1       4.744  -1.771   1.171  1.00  0.00     0.051 A 
HETATM   14  C   UNL     1       5.446  -2.975   0.962  1.00  0.00     0.031 A 
HETATM   15  C   UNL     1       6.845  -3.035   0.987  1.00  0.00     0.002 A 
HETATM   16  C   UNL     1       7.585  -1.885   1.229  1.00  0.00     0.000 A 
HETATM   17  C   UNL     1       6.924  -0.684   1.456  1.00  0.00     0.002 A 
HETATM   18  C   UNL     1       5.523  -0.633   1.435  1.00  0.00     0.031 A 
ENDBRANCH   5  13
ENDBRANCH   1   5
BRANCH   2  19
HETATM   19  C   UNL     1       2.027  -3.417  -1.951  1.00  0.00     0.145 C 
BRANCH  19  20
HETATM   20  C   UNL     1       1.193  -2.973  -3.110  1.00  0.00    -0.021 A 
HETATM   21  C   UNL     1       1.673  -2.511  -4.379  1.00  0.00    -0.001 A 
HETATM   22  C   UNL     1       0.561  -2.226  -5.170  1.00  0.00     0.042 A 
HETATM   23  C   UNL     1       2.957  -2.304  -4.925  1.00  0.00     0.014 A 
HETATM   24  C   UNL     1       0.666  -1.753  -6.484  1.00  0.00     0.030 A 
HETATM   25  N   UNL     1      -0.554  -2.491  -4.410  1.00  0.00    -0.365 N 
HETATM   26  C   UNL     1       1.950  -1.563  -7.003  1.00  0.00     0.002 A 
HETATM   27  C   UNL     1       3.081  -1.832  -6.236  1.00  0.00     0.001 A 
HETATM   28  H   UNL     1      -1.504  -2.362  -4.727  1.00  0.00     0.165 HD
HETATM   29  C   UNL     1      -0.187  -2.949  -3.173  1.00  0.00     0.097 A 
ENDBRANCH  19  20
ENDBRANCH   2  19
TORSDOF 6
