REMARK  9 active torsions:
REMARK  status: ('A' for Active; 'I' for Inactive)
REMARK    1  A    between atoms: C_4  and  C_5 
REMARK    2  A    between atoms: C_8  and  C_9 
REMARK       I    between atoms: C_9  and  N_10 
REMARK    3  A    between atoms: N_10  and  C_26 
REMARK    4  A    between atoms: N_10  and  C_11 
REMARK    5  A    between atoms: C_11  and  C_12 
REMARK    6  A    between atoms: C_11  and  C_21 
REMARK       I    between atoms: C_12  and  N_13 
REMARK    7  A    between atoms: N_13  and  C_14 
REMARK    8  A    between atoms: C_14  and  C_15 
REMARK    9  A    between atoms: C_26  and  C_27 
ROOT
HETATM    1  C   UNL     1       6.427   0.909  -8.451  1.00  0.00     0.271 C 
HETATM    2  N   UNL     1       6.659   2.066  -7.699  1.00  0.00    -0.324 N 
HETATM    3  O   UNL     1       5.276   0.534  -8.676  1.00  0.00    -0.266 OA
ENDROOT
BRANCH   2   4
HETATM    4  C   UNL     1       5.535   2.540  -6.877  1.00  0.00     0.173 C 
BRANCH   4   5
HETATM    5  C   UNL     1       4.949   3.818  -7.389  1.00  0.00     0.000 A 
HETATM    6  S   UNL     1       5.084   5.266  -6.478  1.00  0.00    -0.105 SA
HETATM    7  C   UNL     1       4.237   6.165  -7.659  1.00  0.00     0.050 A 
HETATM    8  C   UNL     1       3.822   5.377  -8.708  1.00  0.00     0.008 A 
HETATM    9  C   UNL     1       4.219   4.019  -8.545  1.00  0.00     0.017 A 
ENDBRANCH   4   5
ENDBRANCH   2   4
BRANCH   2  10
HETATM   10  C   UNL     1       7.976   2.746  -7.594  1.00  0.00     0.220 C 
BRANCH  10  11
HETATM   11  C   UNL     1       8.466   2.670  -6.133  1.00  0.00     0.245 C 
HETATM   12  N   UNL     1       8.086   3.699  -5.294  1.00  0.00    -0.357 N 
HETATM   13  H   UNL     1       7.748   4.557  -5.719  1.00  0.00     0.162 HD
HETATM   14  O   UNL     1       8.990   1.631  -5.719  1.00  0.00    -0.271 OA
BRANCH  12  15
HETATM   15  C   UNL     1       8.435   3.730  -3.884  1.00  0.00     0.154 C 
BRANCH  15  16
HETATM   16  C   UNL     1       9.722   4.531  -3.617  1.00  0.00     0.139 C 
HETATM   17  O   UNL     1      10.847   3.885  -4.238  1.00  0.00    -0.384 OA
HETATM   18  C   UNL     1      11.559   3.135  -3.243  1.00  0.00     0.168 C 
HETATM   19  C   UNL     1      10.831   3.310  -1.926  1.00  0.00     0.029 C 
HETATM   20  C   UNL     1      10.065   4.593  -2.137  1.00  0.00     0.035 C 
ENDBRANCH  15  16
ENDBRANCH  12  15
ENDBRANCH  10  11
BRANCH  10  21
HETATM   21  C   UNL     1       8.029   4.077  -8.318  1.00  0.00     0.014 A 
HETATM   22  S   UNL     1       8.992   5.395  -7.776  1.00  0.00    -0.104 SA
HETATM   23  C   UNL     1       8.603   6.348  -9.136  1.00  0.00     0.050 A 
HETATM   24  C   UNL     1       7.798   5.673 -10.023  1.00  0.00     0.008 A 
HETATM   25  C   UNL     1       7.490   4.362  -9.565  1.00  0.00     0.017 A 
ENDBRANCH  10  21
ENDBRANCH   2  10
BRANCH   1  26
HETATM   26  C   UNL     1       7.549   0.165  -8.989  1.00  0.00     0.101 C 
HETATM   27  N   UNL     1       8.724  -0.154  -8.335  1.00  0.00    -0.351 N 
HETATM   28  C   UNL     1       9.618  -0.738  -9.208  1.00  0.00     0.043 C 
HETATM   29  H   UNL     1       8.938   0.087  -7.372  1.00  0.00     0.166 HD
HETATM   30  C   UNL     1       8.905  -1.026 -10.358  1.00  0.00     0.033 C 
HETATM   31  C   UNL     1       7.610  -0.478 -10.214  1.00  0.00     0.037 C 
BRANCH  28  32
HETATM   32  C   UNL     1      11.026  -0.968  -8.884  1.00  0.00    -0.009 A 
HETATM   33  C   UNL     1      11.692  -2.101  -9.368  1.00  0.00     0.013 A 
HETATM   34  C   UNL     1      13.053  -2.291  -9.116  1.00  0.00     0.001 A 
HETATM   35  C   UNL     1      13.766  -1.344  -8.383  1.00  0.00     0.000 A 
HETATM   36  C   UNL     1      13.116  -0.213  -7.894  1.00  0.00     0.001 A 
HETATM   37  C   UNL     1      11.753  -0.028  -8.139  1.00  0.00     0.013 A 
ENDBRANCH  28  32
ENDBRANCH   1  26
TORSDOF 9
