REMARK  5 active torsions:
REMARK  status: ('A' for Active; 'I' for Inactive)
REMARK    1  A    between atoms: C_8  and  N_9 
REMARK       I    between atoms: N_9  and  C_10 
REMARK    2  A    between atoms: C_10  and  C_11 
REMARK    3  A    between atoms: C_11  and  C_12 
REMARK    4  A    between atoms: C_14  and  N_15 
REMARK       I    between atoms: N_15  and  C_16 
REMARK       I    between atoms: C_16  and  N_17 
REMARK    5  A    between atoms: N_17  and  C_18 
ROOT
HETATM    1  C   UNL     1       1.160   0.586  -0.845  1.00  0.00     0.052 A 
HETATM    2  N   UNL     1       1.711   1.746  -1.370  1.00  0.00    -0.228 NA
HETATM    3  C   UNL     1       2.373   2.384  -0.439  1.00  0.00     0.174 A 
HETATM    4  S   UNL     1       2.391   1.662   1.107  1.00  0.00    -0.062 SA
HETATM    5  C   UNL     1       1.430   0.378   0.496  1.00  0.00     0.081 A 
ENDROOT
BRANCH   1   6
HETATM    6  C   UNL     1       0.333  -0.272  -1.740  1.00  0.00     0.163 C 
BRANCH   6   7
HETATM    7  C   UNL     1       1.143  -0.936  -2.843  1.00  0.00     0.227 C 
HETATM    8  N   UNL     1       1.809  -0.039  -3.664  1.00  0.00    -0.326 N 
HETATM    9  H   UNL     1       1.879   0.910  -3.294  1.00  0.00     0.169 HD
HETATM   10  O   UNL     1       1.119  -2.159  -2.972  1.00  0.00    -0.273 OA
BRANCH   8  11
HETATM   11  C   UNL     1       2.451  -0.305  -4.901  1.00  0.00     0.042 A 
HETATM   12  C   UNL     1       3.257   0.695  -5.499  1.00  0.00    -0.014 A 
HETATM   13  C   UNL     1       3.514   2.002  -4.794  1.00  0.00     0.052 C 
HETATM   14  C   UNL     1       3.785   0.460  -6.787  1.00  0.00     0.042 A 
HETATM   15 CL   UNL     1       4.712   1.647  -7.642  1.00  0.00    -0.084 Cl
HETATM   16  C   UNL     1       3.565  -0.752  -7.445  1.00  0.00     0.024 A 
HETATM   17  C   UNL     1       2.809  -1.743  -6.836  1.00  0.00     0.004 A 
HETATM   18  C   UNL     1       2.253  -1.518  -5.577  1.00  0.00     0.030 A 
ENDBRANCH   8  11
ENDBRANCH   6   7
ENDBRANCH   1   6
BRANCH   3  19
HETATM   19  N   UNL     1       3.103   3.536  -0.527  1.00  0.00    -0.287 N 
HETATM   20  C   UNL     1       3.202   4.249  -1.704  1.00  0.00     0.326 C 
HETATM   21  N   UNL     1       4.204   5.206  -1.616  1.00  0.00    -0.309 N 
HETATM   22  O   UNL     1       2.523   4.042  -2.701  1.00  0.00    -0.247 OA
HETATM   23  H   UNL     1       4.601   5.364  -0.703  1.00  0.00     0.170 HD
HETATM   24  H   UNL     1       3.582   3.829   0.305  1.00  0.00     0.172 HD
BRANCH  21  25
HETATM   25  C   UNL     1       4.754   5.971  -2.667  1.00  0.00     0.036 A 
HETATM   26  C   UNL     1       4.377   5.847  -4.008  1.00  0.00     0.032 A 
HETATM   27  C   UNL     1       5.011   6.607  -4.997  1.00  0.00     0.044 A 
HETATM   28  C   UNL     1       6.019   7.492  -4.644  1.00  0.00     0.116 A 
HETATM   29  F   UNL     1       6.631   8.213  -5.592  1.00  0.00    -0.206 F 
HETATM   30  C   UNL     1       6.404   7.638  -3.318  1.00  0.00     0.044 A 
HETATM   31  C   UNL     1       5.772   6.877  -2.330  1.00  0.00     0.032 A 
ENDBRANCH  21  25
ENDBRANCH   3  19
TORSDOF 5
