REMARK  7 active torsions:
REMARK  status: ('A' for Active; 'I' for Inactive)
REMARK    1  A    between atoms: C_3  and  N_4 
REMARK       I    between atoms: N_4  and  C_5 
REMARK    2  A    between atoms: C_5  and  C_6 
REMARK    3  A    between atoms: C_6  and  N_7 
REMARK    4  A    between atoms: N_10  and  C_11 
REMARK    5  A    between atoms: C_11  and  C_12 
REMARK    6  A    between atoms: C_27  and  C_28 
REMARK       I    between atoms: C_28  and  N_29 
REMARK    7  A    between atoms: N_29  and  C_30 
ROOT
HETATM    1  N   UNL     1       5.212   2.698  -0.717  1.00  0.00    -0.290 N 
HETATM    2  C   UNL     1       4.437   1.816  -1.454  1.00  0.00     0.332 C 
HETATM    3  O   UNL     1       3.577   2.263  -2.217  1.00  0.00    -0.246 OA
HETATM    4  N   UNL     1       4.714   0.467  -1.311  1.00  0.00    -0.261 N 
HETATM    5  C   UNL     1       5.915  -0.010  -0.802  1.00  0.00     0.264 C 
HETATM    6  O   UNL     1       6.249  -1.193  -0.814  1.00  0.00    -0.267 OA
HETATM    7  C   UNL     1       6.861   0.989  -0.268  1.00  0.00     0.059 A 
HETATM    8  C   UNL     1       6.489   2.330  -0.231  1.00  0.00     0.056 A 
HETATM    9  C   UNL     1       8.119   0.579   0.195  1.00  0.00     0.020 A 
HETATM   10  C   UNL     1       9.039   1.521   0.660  1.00  0.00     0.018 A 
HETATM   11  C   UNL     1       8.709   2.880   0.651  1.00  0.00     0.034 A 
HETATM   12  C   UNL     1       7.421   3.271   0.230  1.00  0.00     0.048 A 
ENDROOT
BRANCH   1  13
HETATM   13  C   UNL     1       4.616   3.996  -0.382  1.00  0.00     0.237 C 
BRANCH  13  14
HETATM   14  C   UNL     1       4.776   5.159  -1.367  1.00  0.00     0.240 C 
HETATM   15  N   UNL     1       4.885   4.777  -2.687  1.00  0.00    -0.325 N 
HETATM   16  H   UNL     1       4.536   3.837  -2.864  1.00  0.00     0.169 HD
HETATM   17  O   UNL     1       4.633   6.307  -0.954  1.00  0.00    -0.271 OA
BRANCH  15  18
HETATM   18  C   UNL     1       5.021   5.592  -3.835  1.00  0.00     0.040 A 
HETATM   19  C   UNL     1       5.578   6.883  -3.895  1.00  0.00    -0.035 A 
HETATM   20  C   UNL     1       6.223   7.606  -2.746  1.00  0.00     0.050 C 
HETATM   21  C   UNL     1       5.560   7.573  -5.128  1.00  0.00     0.009 A 
HETATM   22  C   UNL     1       5.069   6.981  -6.289  1.00  0.00     0.001 A 
HETATM   23  C   UNL     1       4.586   5.682  -6.243  1.00  0.00     0.002 A 
HETATM   24  C   UNL     1       4.565   4.997  -5.028  1.00  0.00     0.030 A 
ENDBRANCH  15  18
ENDBRANCH  13  14
ENDBRANCH   1  13
BRANCH   4  25
HETATM   25  C   UNL     1       3.858  -0.499  -2.000  1.00  0.00     0.175 C 
BRANCH  25  26
HETATM   26  C   UNL     1       2.370  -0.325  -1.766  1.00  0.00    -0.037 A 
HETATM   27  C   UNL     1       1.833  -0.320  -0.467  1.00  0.00     0.048 A 
HETATM   28  C   UNL     1       0.476  -0.109  -0.330  1.00  0.00     0.105 A 
HETATM   29  C   UNL     1      -0.348   0.071  -1.417  1.00  0.00     0.105 A 
HETATM   30  O   UNL     1      -0.204  -0.042   0.848  1.00  0.00    -0.323 OA
HETATM   31  O   UNL     1      -1.645   0.274  -1.062  1.00  0.00    -0.323 OA
HETATM   32  C   UNL     1       0.135   0.046  -2.705  1.00  0.00     0.040 A 
HETATM   33  C   UNL     1      -1.541   0.232   0.375  1.00  0.00     0.352 A 
HETATM   34  C   UNL     1       1.507  -0.155  -2.877  1.00  0.00     0.012 A 
ENDBRANCH  25  26
ENDBRANCH   4  25
BRANCH  11  35
HETATM   35  C   UNL     1       9.667   3.959   1.049  1.00  0.00     0.252 C 
HETATM   36  N   UNL     1      10.996   3.613   1.206  1.00  0.00    -0.352 N 
HETATM   37  H   UNL     1      11.312   2.695   0.936  1.00  0.00     0.163 HD
HETATM   38  O   UNL     1       9.254   5.105   1.189  1.00  0.00    -0.268 OA
BRANCH  36  39
HETATM   39  C   UNL     1      12.032   4.621   1.432  1.00  0.00     0.084 C 
HETATM   40  C   UNL     1      12.995   4.175   2.539  1.00  0.00     0.025 C 
HETATM   41  C   UNL     1      13.931   3.050   2.102  1.00  0.00     0.002 C 
HETATM   42  C   UNL     1      14.674   3.402   0.818  1.00  0.00     0.000 C 
HETATM   43  C   UNL     1      13.712   3.791  -0.301  1.00  0.00     0.002 C 
HETATM   44  C   UNL     1      12.779   4.925   0.125  1.00  0.00     0.025 C 
ENDBRANCH  36  39
ENDBRANCH  11  35
TORSDOF 7
