REMARK  6 active torsions:
REMARK  status: ('A' for Active; 'I' for Inactive)
REMARK    1  A    between atoms: C_2  and  C_3 
REMARK       I    between atoms: C_3  and  N_4 
REMARK    2  A    between atoms: N_4  and  C_5 
REMARK    3  A    between atoms: C_8  and  N_9 
REMARK       I    between atoms: N_9  and  C_10 
REMARK    4  A    between atoms: C_10  and  C_11 
REMARK    5  A    between atoms: C_16  and  C_17 
REMARK    6  A    between atoms: C_23  and  C_24 
ROOT
HETATM    1  C   UNL     1      -4.072   3.852  -1.164  1.00  0.00     0.148 C 
HETATM    2  N   UNL     1      -2.904   4.157  -0.548  1.00  0.00    -0.165 NA
HETATM    3  N   UNL     1      -2.827   5.490  -0.690  1.00  0.00    -0.240 N 
HETATM    4  C   UNL     1      -3.961   6.065  -1.184  1.00  0.00     0.123 C 
HETATM    5  N   UNL     1      -4.105   7.404  -1.199  1.00  0.00    -0.364 N 
HETATM    6  C   UNL     1      -3.241   8.307  -0.424  1.00  0.00     0.143 C 
HETATM    7  C   UNL     1      -2.237   7.529   0.462  1.00  0.00     0.068 C 
HETATM    8  C   UNL     1      -1.700   6.264  -0.214  1.00  0.00     0.221 C 
HETATM    9  C   UNL     1      -4.752   5.026  -1.596  1.00  0.00     0.089 C 
HETATM   10  H   UNL     1      -4.939   7.841  -1.589  1.00  0.00     0.162 HD
ENDROOT
BRANCH   1  11
HETATM   11  C   UNL     1      -4.542   2.460  -1.286  1.00  0.00     0.276 C 
HETATM   12  N   UNL     1      -3.801   1.609  -0.490  1.00  0.00    -0.322 N 
HETATM   13  H   UNL     1      -3.103   2.091   0.070  1.00  0.00     0.169 HD
HETATM   14  O   UNL     1      -5.505   2.163  -1.984  1.00  0.00    -0.266 OA
BRANCH  12  15
HETATM   15  C   UNL     1      -3.918   0.219  -0.351  1.00  0.00     0.035 A 
HETATM   16  C   UNL     1      -4.694  -0.582  -1.184  1.00  0.00     0.032 A 
HETATM   17  C   UNL     1      -4.718  -1.974  -1.013  1.00  0.00     0.032 A 
HETATM   18  C   UNL     1      -3.985  -2.578   0.007  1.00  0.00     0.034 A 
HETATM   19  C   UNL     1      -3.232  -1.768   0.863  1.00  0.00     0.032 A 
HETATM   20  C   UNL     1      -3.184  -0.383   0.675  1.00  0.00     0.032 A 
BRANCH  18  21
HETATM   21  N   UNL     1      -3.944  -3.968   0.240  1.00  0.00    -0.327 N 
HETATM   22  C   UNL     1      -4.460  -4.969  -0.562  1.00  0.00     0.221 C 
HETATM   23  O   UNL     1      -5.071  -4.819  -1.615  1.00  0.00    -0.273 OA
HETATM   24  H   UNL     1      -3.431  -4.258   1.061  1.00  0.00     0.169 HD
BRANCH  22  25
HETATM   25  C   UNL     1      -4.237  -6.365   0.001  1.00  0.00     0.098 C 
HETATM   26  C   UNL     1      -2.779  -6.682   0.284  1.00  0.00     0.014 C 
ENDBRANCH  22  25
ENDBRANCH  18  21
ENDBRANCH  12  15
ENDBRANCH   1  11
BRANCH   8  27
HETATM   27  C   UNL     1      -0.751   6.561  -1.353  1.00  0.00     0.409 C 
HETATM   28  F   UNL     1      -0.256   5.435  -1.912  1.00  0.00    -0.169 F 
HETATM   29  F   UNL     1      -1.297   7.305  -2.336  1.00  0.00    -0.169 F 
HETATM   30  F   UNL     1       0.316   7.261  -0.885  1.00  0.00    -0.169 F 
ENDBRANCH   8  27
BRANCH   6  31
HETATM   31  C   UNL     1      -4.025   9.237   0.453  1.00  0.00     0.075 A 
HETATM   32  O   UNL     1      -3.492  10.473   0.675  1.00  0.00    -0.325 OA
HETATM   33  C   UNL     1      -4.341  11.124   1.513  1.00  0.00     0.142 A 
HETATM   34  C   UNL     1      -5.410  10.322   1.838  1.00  0.00     0.027 A 
HETATM   35  C   UNL     1      -5.208   9.101   1.153  1.00  0.00     0.037 A 
ENDBRANCH   6  31
TORSDOF 6
