REMARK  6 active torsions:
REMARK  status: ('A' for Active; 'I' for Inactive)
REMARK    1  A    between atoms: C_2  and  N_3 
REMARK    2  A    between atoms: C_2  and  C_21 
REMARK       I    between atoms: N_3  and  C_4 
REMARK       I    between atoms: C_4  and  N_5 
REMARK    3  A    between atoms: N_5  and  C_6 
REMARK    4  A    between atoms: C_9  and  O_10 
REMARK    5  A    between atoms: O_10  and  C_11 
REMARK    6  A    between atoms: C_11  and  C_12 
ROOT
HETATM    1  C   UNL     1       1.419   1.476  -1.197  1.00  0.00     0.036 A 
HETATM    2  C   UNL     1       0.930   0.280  -0.670  1.00  0.00     0.032 A 
HETATM    3  C   UNL     1       0.568  -0.779  -1.515  1.00  0.00     0.039 A 
HETATM    4  C   UNL     1       0.705  -0.656  -2.895  1.00  0.00     0.068 A 
HETATM    5  C   UNL     1       1.155   0.551  -3.429  1.00  0.00     0.039 A 
HETATM    6  C   UNL     1       1.512   1.609  -2.587  1.00  0.00     0.032 A 
ENDROOT
BRANCH   1   7
HETATM    7  N   UNL     1       1.859   2.564  -0.414  1.00  0.00    -0.309 N 
HETATM    8  C   UNL     1       1.891   2.655   0.950  1.00  0.00     0.321 C 
HETATM    9  N   UNL     1       2.511   3.752   1.458  1.00  0.00    -0.332 N 
HETATM   10  O   UNL     1       1.434   1.840   1.745  1.00  0.00    -0.247 OA
HETATM   11  H   UNL     1       2.529   3.769   2.473  1.00  0.00     0.165 HD
HETATM   12  H   UNL     1       2.181   3.364  -0.930  1.00  0.00     0.170 HD
BRANCH   9  13
HETATM   13  C   UNL     1       3.184   4.869   0.801  1.00  0.00     0.155 C 
HETATM   14  C   UNL     1       2.177   5.950   0.421  1.00  0.00     0.041 C 
BRANCH  13  15
HETATM   15  C   UNL     1       4.240   5.403   1.728  1.00  0.00     0.169 A 
HETATM   16  N   UNL     1       5.391   5.939   1.295  1.00  0.00    -0.156 NA
HETATM   17  N   UNL     1       6.008   6.223   2.455  1.00  0.00    -0.270 N 
HETATM   18  H   UNL     1       6.931   6.643   2.439  1.00  0.00     0.190 HD
HETATM   19  C   UNL     1       5.241   5.874   3.520  1.00  0.00     0.227 A 
HETATM   20  N   UNL     1       4.113   5.355   3.099  1.00  0.00    -0.223 NA
ENDBRANCH  13  15
ENDBRANCH   9  13
ENDBRANCH   1   7
BRANCH   4  21
HETATM   21  O   UNL     1       0.427  -1.630  -3.813  1.00  0.00    -0.351 OA
BRANCH  21  22
HETATM   22  C   UNL     1       0.381  -2.971  -3.317  1.00  0.00     0.180 C 
BRANCH  22  23
HETATM   23  C   UNL     1       0.522  -3.945  -4.501  1.00  0.00     0.010 C 
HETATM   24  C   UNL     1       1.861  -3.775  -5.243  1.00  0.00     0.007 C 
HETATM   25  C   UNL     1       3.055  -4.289  -4.439  1.00  0.00     0.000 C 
HETATM   26  C   UNL     1       2.853  -5.734  -3.992  1.00  0.00     0.000 C 
HETATM   27  C   UNL     1       1.536  -5.926  -3.246  1.00  0.00     0.000 C 
HETATM   28  C   UNL     1       0.346  -5.403  -4.051  1.00  0.00     0.007 C 
ENDBRANCH  22  23
ENDBRANCH  21  22
ENDBRANCH   4  21
TORSDOF 6
