REMARK  6 active torsions:
REMARK  status: ('A' for Active; 'I' for Inactive)
REMARK    1  A    between atoms: C_3  and  C_4 
REMARK    2  A    between atoms: C_4  and  C_5 
REMARK    3  A    between atoms: C_5  and  C_6 
REMARK    4  A    between atoms: C_6  and  C_7 
REMARK       I    between atoms: C_7  and  N_8 
REMARK    5  A    between atoms: N_8  and  C_9 
REMARK    6  A    between atoms: C_11  and  C_12 
ROOT
HETATM    1  C   UNL     1       4.648   5.779  -0.346  1.00  0.00     0.222 C 
HETATM    2  N   UNL     1       5.904   5.393   0.088  1.00  0.00    -0.327 N 
HETATM    3  O   UNL     1       4.371   6.802  -0.963  1.00  0.00    -0.273 OA
HETATM    4  H   UNL     1       5.968   4.515   0.588  1.00  0.00     0.169 HD
ENDROOT
BRANCH   2   5
HETATM    5  C   UNL     1       7.126   6.077  -0.097  1.00  0.00     0.035 A 
HETATM    6  C   UNL     1       7.243   7.312  -0.743  1.00  0.00     0.042 A 
HETATM    7  C   UNL     1       8.491   7.945  -0.888  1.00  0.00    -0.021 A 
HETATM    8  C   UNL     1       9.630   7.307  -0.381  1.00  0.00     0.012 A 
HETATM    9  C   UNL     1       9.525   6.072   0.260  1.00  0.00     0.003 A 
HETATM   10  C   UNL     1       8.279   5.463   0.404  1.00  0.00     0.029 A 
BRANCH   7  11
HETATM   11  C   UNL     1       8.611   9.237  -1.551  1.00  0.00     0.010 A 
HETATM   12  C   UNL     1       9.738   9.897  -2.102  1.00  0.00     0.152 A 
HETATM   13  N   UNL     1       9.442  11.094  -2.618  1.00  0.00    -0.187 NA
HETATM   14  N   UNL     1       8.123  11.208  -2.403  1.00  0.00    -0.289 N 
HETATM   15  H   UNL     1       7.654  12.052  -2.714  1.00  0.00     0.188 HD
HETATM   16  C   UNL     1       7.581  10.130  -1.766  1.00  0.00     0.123 A 
ENDBRANCH   7  11
ENDBRANCH   2   5
BRANCH   1  17
HETATM   17  C   UNL     1       3.566   4.774   0.017  1.00  0.00     0.103 C 
BRANCH  17  18
HETATM   18  C   UNL     1       2.726   4.397  -1.202  1.00  0.00     0.014 C 
BRANCH  18  19
HETATM   19  C   UNL     1       3.521   3.544  -2.197  1.00  0.00     0.047 C 
BRANCH  19  20
HETATM   20  C   UNL     1       2.731   3.270  -3.446  1.00  0.00    -0.012 A 
HETATM   21  C   UNL     1       2.704   4.002  -4.624  1.00  0.00    -0.049 A 
HETATM   22  C   UNL     1       3.487   5.248  -4.887  1.00  0.00     0.049 C 
HETATM   23  C   UNL     1       1.825   3.398  -5.582  1.00  0.00     0.015 A 
HETATM   24  C   UNL     1       1.223   2.256  -5.107  1.00  0.00     0.051 A 
HETATM   25  S   UNL     1       1.711   1.894  -3.514  1.00  0.00    -0.106 SA
ENDBRANCH  19  20
ENDBRANCH  18  19
ENDBRANCH  17  18
ENDBRANCH   1  17
TORSDOF 6
