REMARK  6 active torsions:
REMARK  status: ('A' for Active; 'I' for Inactive)
REMARK    1  A    between atoms: C_2  and  N_3 
REMARK    2  A    between atoms: C_2  and  C_32 
REMARK       I    between atoms: N_3  and  C_4 
REMARK    3  A    between atoms: C_4  and  C_5 
REMARK    4  A    between atoms: C_6  and  N_7 
REMARK       I    between atoms: N_7  and  C_8 
REMARK    5  A    between atoms: C_8  and  C_9 
REMARK    6  A    between atoms: C_9  and  N_10 
ROOT
HETATM    1  N   UNL     1       3.779  -4.386  -3.173  1.00  0.00    -0.325 N 
HETATM    2  C   UNL     1       5.066  -4.901  -3.124  1.00  0.00     0.240 C 
HETATM    3  O   UNL     1       5.909  -4.673  -2.262  1.00  0.00    -0.271 OA
HETATM    4  H   UNL     1       3.274  -4.514  -4.046  1.00  0.00     0.169 HD
ENDROOT
BRANCH   1   5
HETATM    5  C   UNL     1       3.124  -3.563  -2.227  1.00  0.00     0.050 A 
HETATM    6  C   UNL     1       1.890  -2.964  -2.568  1.00  0.00     0.058 A 
HETATM    7  C   UNL     1       1.169  -2.231  -1.613  1.00  0.00     0.019 A 
HETATM    8  C   UNL     1       1.679  -2.059  -0.328  1.00  0.00     0.001 A 
HETATM    9  C   UNL     1       2.907  -2.622   0.006  1.00  0.00     0.002 A 
HETATM   10  C   UNL     1       3.624  -3.370  -0.935  1.00  0.00     0.030 A 
BRANCH   6  11
HETATM   11  C   UNL     1       1.264  -3.092  -3.914  1.00  0.00     0.254 C 
HETATM   12  N   UNL     1       2.117  -3.016  -4.999  1.00  0.00    -0.349 N 
HETATM   13  H   UNL     1       3.051  -2.634  -4.859  1.00  0.00     0.163 HD
HETATM   14  O   UNL     1       0.053  -3.258  -4.007  1.00  0.00    -0.268 OA
BRANCH  12  15
HETATM   15  C   UNL     1       1.607  -3.014  -6.364  1.00  0.00     0.114 C 
HETATM   16  C   UNL     1       2.365  -4.030  -7.219  1.00  0.00     0.037 C 
BRANCH  15  17
HETATM   17  C   UNL     1       1.662  -1.622  -6.969  1.00  0.00    -0.036 A 
HETATM   18  C   UNL     1       0.481  -1.008  -7.414  1.00  0.00     0.009 A 
HETATM   19  C   UNL     1       0.511   0.260  -8.000  1.00  0.00     0.001 A 
HETATM   20  C   UNL     1       1.720   0.934  -8.144  1.00  0.00     0.000 A 
HETATM   21  C   UNL     1       2.901   0.345  -7.699  1.00  0.00     0.001 A 
HETATM   22  C   UNL     1       2.872  -0.924  -7.116  1.00  0.00     0.009 A 
ENDBRANCH  15  17
ENDBRANCH  12  15
ENDBRANCH   6  11
ENDBRANCH   1   5
BRANCH   2  23
HETATM   23  C   UNL     1       5.397  -5.733  -4.364  1.00  0.00     0.240 C 
BRANCH  23  24
HETATM   24  N   UNL     1       6.337  -5.037  -5.214  1.00  0.00    -0.259 N 
HETATM   25  C   UNL     1       7.349  -5.663  -5.873  1.00  0.00     0.326 C 
HETATM   26  O   UNL     1       7.714  -6.819  -5.746  1.00  0.00    -0.247 OA
HETATM   27  N   UNL     1       7.870  -4.793  -6.799  1.00  0.00    -0.324 N 
HETATM   28  C   UNL     1       7.200  -3.509  -6.804  1.00  0.00     0.120 C 
HETATM   29  H   UNL     1       8.667  -5.049  -7.369  1.00  0.00     0.165 HD
HETATM   30  C   UNL     1       8.115  -2.381  -6.325  1.00  0.00     0.080 C 
HETATM   31  C   UNL     1       6.567  -3.172  -8.152  1.00  0.00     0.046 C 
HETATM   32  C   UNL     1       6.102  -3.811  -5.773  1.00  0.00     0.257 C 
HETATM   33  C   UNL     1       9.076  -1.928  -7.405  1.00  0.00    -0.049 A 
HETATM   34  C   UNL     1       8.818  -2.168  -8.768  1.00  0.00    -0.052 A 
HETATM   35  C   UNL     1      10.226  -1.212  -7.038  1.00  0.00     0.007 A 
HETATM   36  C   UNL     1       7.625  -2.966  -9.231  1.00  0.00     0.042 C 
HETATM   37  C   UNL     1       9.731  -1.712  -9.732  1.00  0.00     0.007 A 
HETATM   38  C   UNL     1      10.876  -1.013  -9.354  1.00  0.00     0.001 A 
HETATM   39  C   UNL     1      11.123  -0.763  -8.007  1.00  0.00     0.001 A 
HETATM   40  O   UNL     1       5.153  -3.080  -5.512  1.00  0.00    -0.270 OA
ENDBRANCH  23  24
ENDBRANCH   2  23
TORSDOF 6
