REMARK  6 active torsions:
REMARK  status: ('A' for Active; 'I' for Inactive)
REMARK    1  A    between atoms: N_2  and  C_3 
REMARK    2  A    between atoms: C_6  and  C_7 
REMARK       I    between atoms: C_7  and  N_8 
REMARK    3  A    between atoms: N_8  and  C_9 
REMARK    4  A    between atoms: C_9  and  C_10 
REMARK    5  A    between atoms: C_10  and  C_11 
REMARK    6  A    between atoms: C_22  and  O_23 
ROOT
HETATM    1  C   UNL     1       7.647   8.154   2.934  1.00  0.00     0.158 A 
HETATM    2  N   UNL     1       8.982   8.235   2.891  1.00  0.00    -0.111 NA
HETATM    3  O   UNL     1       9.245   9.477   3.469  1.00  0.00    -0.189 OA
HETATM    4  C   UNL     1       8.036  10.019   3.817  1.00  0.00     0.223 A 
HETATM    5  C   UNL     1       7.887  11.285   4.452  1.00  0.00     0.089 A 
HETATM    6  N   UNL     1       6.654  11.815   4.737  1.00  0.00    -0.352 N 
HETATM    7  H   UNL     1       5.776  11.364   4.520  1.00  0.00     0.166 HD
HETATM    8  C   UNL     1       6.789  13.034   5.361  1.00  0.00     0.045 A 
HETATM    9  C   UNL     1       8.154  13.290   5.471  1.00  0.00    -0.007 A 
HETATM   10  C   UNL     1       8.837  12.185   4.890  1.00  0.00     0.048 A 
HETATM   11  C   UNL     1       5.817  13.924   5.835  1.00  0.00     0.067 A 
HETATM   12  C   UNL     1       6.244  15.109   6.448  1.00  0.00     0.070 A 
HETATM   13  C   UNL     1       7.606  15.386   6.567  1.00  0.00     0.038 A 
HETATM   14  C   UNL     1       8.569  14.487   6.083  1.00  0.00     0.016 A 
HETATM   15  N   UNL     1       7.023   9.233   3.512  1.00  0.00    -0.203 NA
ENDROOT
BRANCH   1  16
HETATM   16  C   UNL     1       6.921   6.951   2.455  1.00  0.00     0.103 C 
BRANCH  16  17
HETATM   17  C   UNL     1       5.485   7.249   2.020  1.00  0.00     0.133 C 
BRANCH  17  18
HETATM   18  N   UNL     1       4.779   6.050   1.556  1.00  0.00    -0.352 N 
HETATM   19  C   UNL     1       4.969   5.657   0.231  1.00  0.00     0.253 C 
HETATM   20  O   UNL     1       5.780   6.203  -0.515  1.00  0.00    -0.267 OA
HETATM   21  C   UNL     1       4.089   5.259   2.568  1.00  0.00     0.152 C 
BRANCH  19  22
HETATM   22  C   UNL     1       4.169   4.541  -0.322  1.00  0.00     0.032 A 
HETATM   23  C   UNL     1       2.778   4.534  -0.239  1.00  0.00     0.019 A 
HETATM   24  C   UNL     1       2.051   3.471  -0.793  1.00  0.00     0.030 A 
HETATM   25  C   UNL     1       2.678   2.409  -1.471  1.00  0.00     0.029 A 
HETATM   26  C   UNL     1       4.084   2.459  -1.546  1.00  0.00     0.030 A 
HETATM   27  C   UNL     1       4.824   3.511  -0.993  1.00  0.00     0.019 A 
BRANCH  25  28
HETATM   28  N   UNL     1       1.965   1.333  -2.017  1.00  0.00    -0.390 N 
HETATM   29  C   UNL     1       0.516   1.271  -1.836  1.00  0.00     0.149 C 
HETATM   30  C   UNL     1       2.450   0.813  -3.299  1.00  0.00     0.149 C 
ENDBRANCH  25  28
ENDBRANCH  19  22
ENDBRANCH  17  18
ENDBRANCH  16  17
ENDBRANCH   1  16
BRANCH  12  31
HETATM   31  O   UNL     1       5.224  15.912   6.885  1.00  0.00    -0.356 OA
HETATM   32  C   UNL     1       5.590  17.095   7.583  1.00  0.00     0.210 C 
ENDBRANCH  12  31
TORSDOF 6
