REMARK  5 active torsions:
REMARK  status: ('A' for Active; 'I' for Inactive)
REMARK    1  A    between atoms: C_2  and  C_3 
REMARK    2  A    between atoms: C_7  and  C_8 
REMARK       I    between atoms: C_8  and  N_9 
REMARK    3  A    between atoms: N_9  and  C_10 
REMARK    4  A    between atoms: C_15  and  N_16 
REMARK       I    between atoms: N_16  and  C_17 
REMARK    5  A    between atoms: C_17  and  C_18 
ROOT
HETATM    1  C   UNL     1       1.615  -4.834  -1.329  1.00  0.00     0.059 A 
HETATM    2  C   UNL     1       1.222  -5.427  -2.541  1.00  0.00     0.060 A 
HETATM    3 CL   UNL     1       1.437  -7.105  -2.908  1.00  0.00    -0.082 Cl
HETATM    4  C   UNL     1       0.456  -4.696  -3.455  1.00  0.00     0.028 A 
HETATM    5  C   UNL     1       0.037  -3.396  -3.161  1.00  0.00     0.031 A 
HETATM    6  C   UNL     1       0.358  -2.814  -1.938  1.00  0.00     0.036 A 
HETATM    7  C   UNL     1       1.146  -3.540  -1.030  1.00  0.00     0.060 A 
ENDROOT
BRANCH   1   8
HETATM    8  N   UNL     1       2.403  -5.453  -0.327  1.00  0.00    -0.320 N 
HETATM    9  C   UNL     1       3.470  -6.304  -0.546  1.00  0.00     0.274 C 
HETATM   10  O   UNL     1       3.998  -6.499  -1.634  1.00  0.00    -0.266 OA
HETATM   11  H   UNL     1       2.354  -5.056   0.600  1.00  0.00     0.169 HD
BRANCH   9  12
HETATM   12  C   UNL     1       4.004  -6.906   0.652  1.00  0.00     0.120 A 
HETATM   13  N   UNL     1       5.064  -7.772   0.597  1.00  0.00    -0.273 N 
HETATM   14  N   UNL     1       5.449  -8.245   1.792  1.00  0.00    -0.179 NA
HETATM   15  H   UNL     1       5.559  -8.074  -0.238  1.00  0.00     0.189 HD
HETATM   16  C   UNL     1       4.598  -7.683   2.657  1.00  0.00     0.056 A 
HETATM   17  C   UNL     1       3.672  -6.840   1.991  1.00  0.00     0.065 A 
BRANCH  16  18
HETATM   18  C   UNL     1       4.665  -7.951   4.128  1.00  0.00     0.056 C 
HETATM   19  C   UNL     1       5.795  -8.870   4.570  1.00  0.00     0.011 C 
ENDBRANCH  16  18
ENDBRANCH   9  12
ENDBRANCH   1   8
BRANCH   6  20
HETATM   20  N   UNL     1      -0.072  -1.529  -1.540  1.00  0.00    -0.327 N 
HETATM   21  C   UNL     1      -0.898  -0.665  -2.240  1.00  0.00     0.221 C 
HETATM   22  O   UNL     1      -1.384  -0.853  -3.350  1.00  0.00    -0.273 OA
HETATM   23  H   UNL     1       0.233  -1.217  -0.627  1.00  0.00     0.169 HD
BRANCH  21  24
HETATM   24  C   UNL     1      -1.185   0.616  -1.479  1.00  0.00     0.098 C 
HETATM   25  C   UNL     1       0.014   1.545  -1.475  1.00  0.00     0.014 C 
ENDBRANCH  21  24
ENDBRANCH   6  20
TORSDOF 5
