REMARK  11 active torsions:
REMARK  status: ('A' for Active; 'I' for Inactive)
REMARK    1  A    between atoms: C_2  and  O_3 
REMARK    2  A    between atoms: O_3  and  C_4 
REMARK    3  A    between atoms: C_5  and  O_6 
REMARK    4  A    between atoms: C_9  and  C_10 
REMARK    5  A    between atoms: N_11  and  C_12 
REMARK    6  A    between atoms: C_12  and  C_13 
REMARK    7  A    between atoms: C_13  and  C_14 
REMARK    8  A    between atoms: C_14  and  N_15 
REMARK    9  A    between atoms: C_27  and  O_28 
REMARK   10  A    between atoms: C_27  and  C_29 
REMARK   11  A    between atoms: C_30  and  C_31 
ROOT
HETATM    1  C   UNL     1       6.588  -3.869   1.338  1.00  0.00     0.161 C 
HETATM    2  N   UNL     1       5.925  -5.094   0.888  1.00  0.00    -0.332 N 
HETATM    3  C   UNL     1       6.406  -6.200   1.558  1.00  0.00     0.295 C 
HETATM    4  O   UNL     1       6.276  -7.362   1.220  1.00  0.00    -0.264 OA
HETATM    5  C   UNL     1       7.095  -4.201   2.725  1.00  0.00     0.058 C 
HETATM    6  C   UNL     1       7.203  -5.678   2.758  1.00  0.00     0.250 C 
HETATM    7  O   UNL     1       7.804  -6.354   3.564  1.00  0.00    -0.282 OA
HETATM    8  C   UNL     1       7.387  -3.466   3.811  1.00  0.00     0.078 C 
ENDROOT
BRANCH   1   9
HETATM    9  C   UNL     1       5.797  -2.600   1.138  1.00  0.00    -0.028 A 
HETATM   10  C   UNL     1       4.474  -2.463   1.588  1.00  0.00     0.012 A 
HETATM   11  C   UNL     1       3.795  -1.258   1.414  1.00  0.00     0.040 A 
HETATM   12  C   UNL     1       4.436  -0.191   0.796  1.00  0.00     0.099 A 
HETATM   13  C   UNL     1       5.752  -0.292   0.337  1.00  0.00     0.102 A 
HETATM   14  C   UNL     1       6.427  -1.498   0.514  1.00  0.00     0.049 A 
BRANCH  12  15
HETATM   15  O   UNL     1       3.744   0.979   0.651  1.00  0.00    -0.358 OA
HETATM   16  H   UNL     1       4.384   1.616   0.278  1.00  0.00     0.218 HD
ENDBRANCH  12  15
BRANCH  13  17
HETATM   17  O   UNL     1       6.256   0.836  -0.254  1.00  0.00    -0.349 OA
BRANCH  17  18
HETATM   18  C   UNL     1       7.608   0.781  -0.714  1.00  0.00     0.171 C 
HETATM   19  C   UNL     1       7.947   2.111  -1.362  1.00  0.00     0.034 C 
ENDBRANCH  17  18
ENDBRANCH  13  17
ENDBRANCH   1   9
BRANCH   2  20
HETATM   20  C   UNL     1       5.155  -5.207  -0.342  1.00  0.00     0.129 C 
BRANCH  20  21
HETATM   21  C   UNL     1       5.976  -5.327  -1.625  1.00  0.00     0.048 C 
BRANCH  21  22
HETATM   22  C   UNL     1       6.927  -6.518  -1.749  1.00  0.00     0.236 C 
BRANCH  22  23
HETATM   23  N   UNL     1       6.314  -7.851  -1.420  1.00  0.00    -0.067 N 
HETATM   24  H   UNL     1       6.024  -7.827  -0.419  1.00  0.00     0.280 HD
HETATM   25  C   UNL     1       5.114  -8.244  -2.270  1.00  0.00     0.261 C 
HETATM   26  C   UNL     1       4.594  -9.618  -1.832  1.00  0.00     0.195 C 
HETATM   27  O   UNL     1       5.622 -10.608  -1.929  1.00  0.00    -0.388 OA
HETATM   28  C   UNL     1       6.728 -10.300  -1.073  1.00  0.00     0.195 C 
HETATM   29  C   UNL     1       7.365  -8.965  -1.471  1.00  0.00     0.261 C 
ENDBRANCH  22  23
ENDBRANCH  21  22
ENDBRANCH  20  21
ENDBRANCH   2  20
BRANCH   8  30
HETATM   30  O   UNL     1       7.911  -3.991   4.973  1.00  0.00    -0.360 OA
HETATM   31  H   UNL     1       8.093  -4.948   4.867  1.00  0.00     0.217 HD
ENDBRANCH   8  30
BRANCH   8  32
HETATM   32  C   UNL     1       7.099  -2.057   3.920  1.00  0.00     0.038 C 
HETATM   33  C   UNL     1       7.952  -1.095   4.297  1.00  0.00     0.014 C 
BRANCH  33  34
HETATM   34  C   UNL     1       7.512   0.307   4.339  1.00  0.00    -0.036 A 
HETATM   35  C   UNL     1       6.331   0.682   4.996  1.00  0.00     0.011 A 
HETATM   36  C   UNL     1       5.900   2.010   4.982  1.00  0.00     0.001 A 
HETATM   37  C   UNL     1       6.652   2.978   4.321  1.00  0.00     0.000 A 
HETATM   38  C   UNL     1       7.840   2.620   3.685  1.00  0.00     0.001 A 
HETATM   39  C   UNL     1       8.272   1.291   3.698  1.00  0.00     0.011 A 
ENDBRANCH  33  34
ENDBRANCH   8  32
TORSDOF 11
