REMARK  4 active torsions:
REMARK  status: ('A' for Active; 'I' for Inactive)
REMARK    1  A    between atoms: C_4  and  C_5 
REMARK    2  A    between atoms: C_6  and  N_7 
REMARK    3  A    between atoms: C_9  and  C_10 
REMARK       I    between atoms: C_10  and  N_11 
REMARK    4  A    between atoms: N_11  and  C_12 
ROOT
HETATM    1  C   UNL     1       4.806  -0.691   0.459  1.00  0.00     0.019 A 
HETATM    2  C   UNL     1       3.515  -0.899   0.087  1.00  0.00     0.111 A 
HETATM    3  C   UNL     1       2.504   0.230   0.266  1.00  0.00     0.273 A 
HETATM    4  O   UNL     1       1.320   0.116  -0.050  1.00  0.00    -0.266 OA
HETATM    5  N   UNL     1       2.945   1.403   0.804  1.00  0.00    -0.321 N 
HETATM    6  C   UNL     1       4.260   1.633   1.193  1.00  0.00     0.046 A 
HETATM    7  C   UNL     1       5.213   0.623   1.027  1.00  0.00     0.006 A 
HETATM    8  C   UNL     1       4.598   2.873   1.740  1.00  0.00     0.032 A 
HETATM    9  C   UNL     1       5.913   3.120   2.130  1.00  0.00     0.026 A 
HETATM   10  C   UNL     1       6.876   2.128   1.965  1.00  0.00     0.035 A 
HETATM   11 CL   UNL     1       8.501   2.433   2.443  1.00  0.00    -0.084 Cl
HETATM   12  C   UNL     1       6.536   0.890   1.416  1.00  0.00     0.038 A 
HETATM   13  H   UNL     1       2.240   2.119   0.915  1.00  0.00     0.169 HD
ENDROOT
BRANCH   2  14
HETATM   14  N   UNL     1       3.026  -2.133  -0.418  1.00  0.00    -0.375 N 
HETATM   15  C   UNL     1       2.287  -2.137  -1.695  1.00  0.00     0.137 C 
HETATM   16  C   UNL     1       2.251  -3.534  -2.327  1.00  0.00     0.096 C 
HETATM   17  C   UNL     1       1.658  -4.533  -1.317  1.00  0.00     0.017 C 
HETATM   18  C   UNL     1       2.388  -4.474   0.025  1.00  0.00     0.021 C 
HETATM   19  C   UNL     1       2.428  -3.053   0.574  1.00  0.00     0.123 C 
BRANCH  16  20
HETATM   20  C   UNL     1       3.590  -4.036  -2.899  1.00  0.00     0.229 C 
HETATM   21  N   UNL     1       4.196  -3.146  -3.769  1.00  0.00    -0.311 N 
HETATM   22  H   UNL     1       3.803  -2.226  -3.870  1.00  0.00     0.170 HD
HETATM   23  O   UNL     1       3.981  -5.177  -2.663  1.00  0.00    -0.273 OA
BRANCH  21  24
HETATM   24  C   UNL     1       5.365  -3.398  -4.504  1.00  0.00     0.129 A 
HETATM   25  N   UNL     1       5.940  -4.612  -4.501  1.00  0.00    -0.243 NA
HETATM   26  C   UNL     1       7.058  -4.794  -5.234  1.00  0.00     0.119 A 
HETATM   27  C   UNL     1       7.652  -3.798  -5.985  1.00  0.00     0.019 A 
HETATM   28  C   UNL     1       7.056  -2.544  -5.985  1.00  0.00     0.005 A 
HETATM   29  C   UNL     1       5.895  -2.341  -5.240  1.00  0.00     0.050 A 
ENDBRANCH  21  24
ENDBRANCH  16  20
ENDBRANCH   2  14
BRANCH   1  30
HETATM   30  C   UNL     1       5.760  -1.815   0.274  1.00  0.00    -0.023 A 
HETATM   31  C   UNL     1       6.325  -2.064  -0.983  1.00  0.00     0.012 A 
HETATM   32  C   UNL     1       7.218  -3.121  -1.155  1.00  0.00     0.001 A 
HETATM   33  C   UNL     1       7.564  -3.926  -0.071  1.00  0.00     0.000 A 
HETATM   34  C   UNL     1       7.018  -3.677   1.187  1.00  0.00     0.001 A 
HETATM   35  C   UNL     1       6.117  -2.625   1.360  1.00  0.00     0.012 A 
ENDBRANCH   1  30
TORSDOF 4
