REMARK  2 active torsions:
REMARK  status: ('A' for Active; 'I' for Inactive)
REMARK    1  A    between atoms: C_9  and  C_10 
REMARK       I    between atoms: C_10  and  N_11 
REMARK    2  A    between atoms: N_11  and  C_12 
ROOT
HETATM    1  C   UNL     1       5.245   3.801  -0.194  1.00  0.00     0.277 C 
HETATM    2  N   UNL     1       6.441   4.479  -0.032  1.00  0.00    -0.322 N 
HETATM    3  O   UNL     1       4.134   4.309  -0.293  1.00  0.00    -0.266 OA
HETATM    4  H   UNL     1       7.248   3.859  -0.001  1.00  0.00     0.169 HD
ENDROOT
BRANCH   2   5
HETATM    5  C   UNL     1       6.659   5.863   0.054  1.00  0.00     0.037 A 
HETATM    6  C   UNL     1       5.633   6.811   0.083  1.00  0.00     0.062 A 
HETATM    7  C   UNL     1       5.939   8.173   0.159  1.00  0.00     0.070 A 
HETATM    8  C   UNL     1       7.267   8.600   0.206  1.00  0.00     0.096 A 
HETATM    9  N   UNL     1       4.902   9.104   0.217  1.00  0.00    -0.323 N 
HETATM   10  O   UNL     1       7.643   9.909   0.314  1.00  0.00    -0.340 OA
HETATM   11  C   UNL     1       8.292   7.659   0.194  1.00  0.00     0.041 A 
HETATM   12  C   UNL     1       6.609  10.848   0.059  1.00  0.00     0.278 C 
HETATM   13  C   UNL     1       5.144  10.449   0.232  1.00  0.00     0.246 C 
HETATM   14  O   UNL     1       4.231  11.266   0.314  1.00  0.00    -0.271 OA
HETATM   15  C   UNL     1       7.989   6.297   0.118  1.00  0.00     0.032 A 
HETATM   16  H   UNL     1       3.936   8.807   0.263  1.00  0.00     0.169 HD
ENDBRANCH   2   5
BRANCH   1  17
HETATM   17  C   UNL     1       5.453   2.342  -0.257  1.00  0.00     0.157 A 
HETATM   18  C   UNL     1       4.476   1.337  -0.520  1.00  0.00     0.029 A 
HETATM   19  C   UNL     1       3.094   1.311  -0.797  1.00  0.00     0.023 A 
HETATM   20  C   UNL     1       5.171   0.135  -0.474  1.00  0.00     0.063 A 
HETATM   21  C   UNL     1       2.456   0.080  -1.026  1.00  0.00    -0.061 A 
HETATM   22  C   UNL     1       0.987   0.030  -1.333  1.00  0.00     0.048 C 
HETATM   23  C   UNL     1       3.194  -1.109  -0.963  1.00  0.00     0.009 A 
HETATM   24  C   UNL     1       4.566  -1.106  -0.685  1.00  0.00     0.032 A 
HETATM   25  N   UNL     1       6.465   0.478  -0.196  1.00  0.00    -0.277 N 
HETATM   26  H   UNL     1       7.253  -0.150  -0.085  1.00  0.00     0.189 HD
HETATM   27  N   UNL     1       6.679   1.801  -0.074  1.00  0.00    -0.168 NA
ENDBRANCH   1  17
TORSDOF 2
