REMARK  5 active torsions:
REMARK  status: ('A' for Active; 'I' for Inactive)
REMARK    1  A    between atoms: C_2  and  C_3 
REMARK    2  A    between atoms: C_2  and  C_19 
REMARK       I    between atoms: C_3  and  N_4 
REMARK    3  A    between atoms: N_4  and  C_5 
REMARK    4  A    between atoms: C_8  and  O_9 
REMARK    5  A    between atoms: O_9  and  C_10 
ROOT
HETATM    1  C   UNL     1       2.879  -1.018   0.824  1.00  0.00     0.234 C 
HETATM    2  N   UNL     1       4.143  -1.503   0.516  1.00  0.00    -0.325 N 
HETATM    3  O   UNL     1       2.204  -1.387   1.782  1.00  0.00    -0.272 OA
HETATM    4  H   UNL     1       4.636  -1.038  -0.237  1.00  0.00     0.169 HD
ENDROOT
BRANCH   2   5
HETATM    5  C   UNL     1       4.847  -2.522   1.188  1.00  0.00     0.052 A 
HETATM    6  C   UNL     1       4.350  -3.285   2.241  1.00  0.00     0.149 A 
HETATM    7  N   UNL     1       5.045  -4.276   2.858  1.00  0.00    -0.235 NA
HETATM    8  C   UNL     1       6.291  -4.523   2.406  1.00  0.00     0.169 A 
HETATM    9  C   UNL     1       6.883  -3.812   1.375  1.00  0.00     0.060 A 
HETATM   10  C   UNL     1       6.146  -2.803   0.756  1.00  0.00     0.035 A 
BRANCH   8  11
HETATM   11  O   UNL     1       7.075  -5.496   3.013  1.00  0.00    -0.291 OA
BRANCH  11  12
HETATM   12  C   UNL     1       6.435  -6.448   3.763  1.00  0.00     0.095 A 
HETATM   13  C   UNL     1       5.392  -7.232   3.285  1.00  0.00     0.153 A 
HETATM   14  N   UNL     1       4.812  -8.232   3.995  1.00  0.00    -0.270 NA
HETATM   15  C   UNL     1       5.296  -8.446   5.238  1.00  0.00     0.116 A 
HETATM   16  C   UNL     1       6.341  -7.724   5.796  1.00  0.00     0.022 A 
HETATM   17  C   UNL     1       6.927  -6.715   5.036  1.00  0.00     0.040 A 
ENDBRANCH  11  12
ENDBRANCH   8  11
ENDBRANCH   2   5
BRANCH   1  18
HETATM   18  C   UNL     1       2.351   0.035  -0.193  1.00  0.00     0.061 C 
HETATM   19  C   UNL     1       2.104  -0.718  -1.520  1.00  0.00     0.030 C 
HETATM   20  C   UNL     1       0.984   0.576   0.282  1.00  0.00     0.030 C 
BRANCH  18  21
HETATM   21  C   UNL     1       3.332   1.217  -0.310  1.00  0.00    -0.038 A 
HETATM   22  C   UNL     1       3.866   1.644  -1.537  1.00  0.00     0.050 A 
HETATM   23  C   UNL     1       4.757   2.715  -1.586  1.00  0.00     0.117 A 
HETATM   24  F   UNL     1       5.258   3.095  -2.769  1.00  0.00    -0.206 F 
HETATM   25  C   UNL     1       5.137   3.391  -0.435  1.00  0.00     0.042 A 
HETATM   26  C   UNL     1       4.616   2.990   0.790  1.00  0.00     0.004 A 
HETATM   27  C   UNL     1       3.724   1.915   0.852  1.00  0.00     0.008 A 
ENDBRANCH  18  21
ENDBRANCH   1  18
TORSDOF 5
