REMARK  11 active torsions:
REMARK  status: ('A' for Active; 'I' for Inactive)
REMARK    1  A    between atoms: C_4  and  C_5 
REMARK    2  A    between atoms: C_7  and  O_8 
REMARK    3  A    between atoms: C_10  and  O_11 
REMARK    4  A    between atoms: C_16  and  C_17 
REMARK    5  A    between atoms: C_20  and  C_21 
REMARK    6  A    between atoms: C_21  and  N_22 
REMARK    7  A    between atoms: N_22  and  C_23 
REMARK    8  A    between atoms: C_23  and  N_24 
REMARK    9  A    between atoms: N_24  and  C_25 
REMARK   10  A    between atoms: C_27  and  C_28 
REMARK   11  A    between atoms: C_28  and  O_29 
ROOT
HETATM    1  C   UNL     1       2.658  -2.376   0.850  1.00  0.00     0.067 C 
HETATM    2  C   UNL     1       2.535  -3.621  -0.049  1.00  0.00     0.001 C 
HETATM    3  C   UNL     1       1.085  -3.857  -0.519  1.00  0.00     0.040 C 
HETATM    4  C   UNL     1       0.129  -4.112   0.657  1.00  0.00     0.206 C 
HETATM    5  N   UNL     1       0.910  -3.802   1.933  1.00  0.00    -0.065 N 
HETATM    6  H   UNL     1       0.276  -3.860   2.742  1.00  0.00     0.280 HD
HETATM    7  C   UNL     1       1.529  -2.402   1.905  1.00  0.00     0.246 C 
HETATM    8  C   UNL     1       2.885  -4.840   0.846  1.00  0.00     0.033 C 
HETATM    9  C   UNL     1       2.009  -4.846   2.109  1.00  0.00     0.236 C 
ENDROOT
BRANCH   4  10
HETATM   10  C   UNL     1      -1.195  -3.318   0.567  1.00  0.00     0.155 C 
BRANCH  10  11
HETATM   11  N   UNL     1      -1.904  -3.545  -0.692  1.00  0.00    -0.365 N 
HETATM   12  H   UNL     1      -2.153  -4.505  -0.915  1.00  0.00     0.161 HD
BRANCH  11  13
HETATM   13  C   UNL     1      -2.714  -2.644  -1.329  1.00  0.00     0.172 C 
HETATM   14  S   UNL     1      -3.164  -1.157  -0.717  1.00  0.00    -0.041 SA
BRANCH  13  15
HETATM   15  N   UNL     1      -3.213  -3.006  -2.548  1.00  0.00    -0.333 N 
HETATM   16  H   UNL     1      -3.965  -2.392  -2.856  1.00  0.00     0.168 HD
BRANCH  15  17
HETATM   17  C   UNL     1      -2.792  -3.959  -3.500  1.00  0.00     0.035 A 
HETATM   18  C   UNL     1      -1.569  -4.629  -3.449  1.00  0.00     0.047 A 
HETATM   19  C   UNL     1      -1.205  -5.551  -4.445  1.00  0.00     0.041 A 
HETATM   20  C   UNL     1      -2.066  -5.783  -5.520  1.00  0.00     0.018 A 
HETATM   21  C   UNL     1      -3.275  -5.093  -5.597  1.00  0.00     0.003 A 
HETATM   22  C   UNL     1      -3.632  -4.185  -4.595  1.00  0.00     0.029 A 
BRANCH  19  23
HETATM   23  C   UNL     1       0.103  -6.245  -4.293  1.00  0.00     0.293 C 
HETATM   24  O   UNL     1       0.801  -6.132  -3.295  1.00  0.00    -0.259 OA
BRANCH  23  25
HETATM   25  O   UNL     1       0.383  -6.991  -5.386  1.00  0.00    -0.323 OA
HETATM   26  C   UNL     1       1.627  -7.691  -5.320  1.00  0.00     0.213 C 
ENDBRANCH  23  25
ENDBRANCH  19  23
ENDBRANCH  15  17
ENDBRANCH  13  15
ENDBRANCH  11  13
ENDBRANCH  10  11
ENDBRANCH   4  10
BRANCH   1  27
HETATM   27  C   UNL     1       2.852  -1.002   0.267  1.00  0.00     0.038 C 
HETATM   28  N   UNL     1       2.447  -0.448  -0.928  1.00  0.00    -0.277 N 
HETATM   29  C   UNL     1       1.851  -1.035  -2.104  1.00  0.00     0.179 C 
HETATM   30  N   UNL     1       2.647   0.878  -0.986  1.00  0.00    -0.172 NA
HETATM   31  C   UNL     1       3.366   1.187   0.095  1.00  0.00     0.089 C 
HETATM   32  C   UNL     1       3.520   0.039   0.903  1.00  0.00     0.061 C 
BRANCH  31  33
HETATM   33  C   UNL     1       3.841   2.546   0.346  1.00  0.00    -0.003 A 
HETATM   34  C   UNL     1       3.095   3.647  -0.101  1.00  0.00     0.053 A 
HETATM   35  C   UNL     1       3.523   4.956   0.151  1.00  0.00     0.102 A 
HETATM   36  C   UNL     1       4.729   5.171   0.847  1.00  0.00     0.101 A 
HETATM   37  C   UNL     1       5.478   4.075   1.285  1.00  0.00     0.040 A 
HETATM   38  C   UNL     1       5.036   2.771   1.038  1.00  0.00     0.017 A 
BRANCH  35  39
HETATM   39  O   UNL     1       2.841   6.083  -0.236  1.00  0.00    -0.353 OA
HETATM   40  C   UNL     1       1.622   5.907  -0.945  1.00  0.00     0.210 C 
ENDBRANCH  35  39
BRANCH  36  41
HETATM   41  O   UNL     1       5.079   6.481   1.057  1.00  0.00    -0.353 OA
HETATM   42  C   UNL     1       6.360   6.743   1.611  1.00  0.00     0.210 C 
ENDBRANCH  36  41
ENDBRANCH  31  33
ENDBRANCH   1  27
TORSDOF 11
