REMARK  6 active torsions:
REMARK  status: ('A' for Active; 'I' for Inactive)
REMARK    1  A    between atoms: C_5  and  C_6 
REMARK    2  A    between atoms: C_6  and  O_7 
REMARK    3  A    between atoms: C_6  and  C_8 
REMARK    4  A    between atoms: C_8  and  N_9 
REMARK    5  A    between atoms: C_11  and  C_12 
REMARK    6  A    between atoms: C_13  and  O_14 
ROOT
HETATM    1  N   UNL     1       8.525   1.411  -0.864  1.00  0.00    -0.395 N 
HETATM    2  H   UNL     1       8.964   0.496  -1.051  1.00  0.00     0.159 HD
HETATM    3  C   UNL     1       9.270   2.448  -1.021  1.00  0.00     0.098 C 
ENDROOT
BRANCH   1   4
HETATM    4  C   UNL     1       7.097   1.406  -0.462  1.00  0.00     0.155 C 
BRANCH   4   5
HETATM    5  C   UNL     1       6.190   1.422  -1.704  1.00  0.00     0.170 C 
BRANCH   5   6
HETATM    6  C   UNL     1       6.373   0.217  -2.592  1.00  0.00    -0.011 A 
HETATM    7  C   UNL     1       5.909  -1.029  -2.178  1.00  0.00     0.126 A 
HETATM    8  N   UNL     1       6.066  -2.168  -2.881  1.00  0.00    -0.265 NA
HETATM    9  C   UNL     1       6.675  -2.090  -4.086  1.00  0.00     0.030 A 
HETATM   10  C   UNL     1       6.787  -3.353  -4.887  1.00  0.00     0.070 C 
HETATM   11  C   UNL     1       7.158  -0.890  -4.594  1.00  0.00     0.027 A 
HETATM   12  C   UNL     1       7.015   0.270  -3.834  1.00  0.00     0.013 A 
ENDBRANCH   5   6
BRANCH   5  13
HETATM   13  O   UNL     1       6.420   2.640  -2.417  1.00  0.00    -0.389 OA
HETATM   14  H   UNL     1       5.728   2.703  -3.106  1.00  0.00     0.210 HD
ENDBRANCH   5  13
ENDBRANCH   4   5
ENDBRANCH   1   4
BRANCH   3  15
HETATM   15  C   UNL     1      10.700   2.383  -1.416  1.00  0.00     0.023 A 
HETATM   16  C   UNL     1      11.368   1.141  -1.437  1.00  0.00     0.078 A 
HETATM   17  C   UNL     1      12.719   1.062  -1.748  1.00  0.00     0.038 A 
HETATM   18  C   UNL     1      13.419   2.227  -2.046  1.00  0.00     0.015 A 
HETATM   19  C   UNL     1      12.784   3.477  -2.052  1.00  0.00    -0.025 A 
HETATM   20  C   UNL     1      11.402   3.583  -1.741  1.00  0.00    -0.012 A 
HETATM   21  C   UNL     1      13.531   4.622  -2.372  1.00  0.00     0.012 A 
HETATM   22  C   UNL     1      10.832   4.884  -1.793  1.00  0.00     0.013 A 
HETATM   23  C   UNL     1      11.591   6.012  -2.118  1.00  0.00     0.001 A 
HETATM   24  C   UNL     1      12.941   5.881  -2.404  1.00  0.00     0.001 A 
BRANCH  16  25
HETATM   25  O   UNL     1      10.684  -0.016  -1.146  1.00  0.00    -0.360 OA
HETATM   26  H   UNL     1      11.320  -0.762  -1.182  1.00  0.00     0.217 HD
ENDBRANCH  16  25
ENDBRANCH   3  15
TORSDOF 6
