REMARK  3 active torsions:
REMARK  status: ('A' for Active; 'I' for Inactive)
REMARK    1  A    between atoms: C_3  and  N_4 
REMARK       I    between atoms: N_4  and  C_5 
REMARK    2  A    between atoms: C_5  and  C_6 
REMARK    3  A    between atoms: C_6  and  N_7 
ROOT
HETATM    1  N   UNL     1       1.063   4.994  -0.550  1.00  0.00    -0.224 N 
HETATM    2  N   UNL     1       1.055   5.829   0.588  1.00  0.00    -0.180 NA
HETATM    3  C   UNL     1       1.422   7.074   0.480  1.00  0.00     0.153 A 
HETATM    4  C   UNL     1       1.814   7.617  -0.787  1.00  0.00     0.028 A 
HETATM    5  C   UNL     1       1.794   6.803  -1.892  1.00  0.00     0.116 A 
HETATM    6  N   UNL     1       2.188   7.538  -2.973  1.00  0.00    -0.350 N 
HETATM    7  H   UNL     1       2.253   7.185  -3.919  1.00  0.00     0.166 HD
HETATM    8  C   UNL     1       2.456   8.834  -2.578  1.00  0.00     0.044 A 
HETATM    9  C   UNL     1       2.229   8.909  -1.199  1.00  0.00     0.005 A 
HETATM   10  C   UNL     1       2.873   9.937  -3.333  1.00  0.00     0.030 A 
HETATM   11  C   UNL     1       3.059  11.149  -2.661  1.00  0.00     0.002 A 
HETATM   12  C   UNL     1       2.839  11.253  -1.289  1.00  0.00     0.001 A 
HETATM   13  C   UNL     1       2.425  10.141  -0.545  1.00  0.00     0.014 A 
HETATM   14  C   UNL     1       1.391   5.428  -1.850  1.00  0.00     0.291 A 
HETATM   15  O   UNL     1       1.348   4.717  -2.847  1.00  0.00    -0.264 OA
ENDROOT
BRANCH   1  16
HETATM   16  C   UNL     1       0.438   3.692  -0.392  1.00  0.00     0.258 C 
BRANCH  16  17
HETATM   17  C   UNL     1       1.243   2.389  -0.539  1.00  0.00     0.244 C 
HETATM   18  N   UNL     1       2.528   2.284   0.003  1.00  0.00    -0.320 N 
HETATM   19  C   UNL     1       3.382   3.428   0.288  1.00  0.00     0.159 C 
HETATM   20  O   UNL     1       0.639   1.404  -0.991  1.00  0.00    -0.271 OA
BRANCH  18  21
HETATM   21  C   UNL     1       3.133   0.992   0.123  1.00  0.00     0.042 A 
HETATM   22  C   UNL     1       2.545  -0.036   0.890  1.00  0.00    -0.035 A 
HETATM   23  C   UNL     1       1.270   0.141   1.671  1.00  0.00     0.050 C 
HETATM   24  C   UNL     1       3.178  -1.291   0.951  1.00  0.00     0.009 A 
HETATM   25  C   UNL     1       4.391  -1.517   0.301  1.00  0.00     0.001 A 
HETATM   26  C   UNL     1       4.988  -0.491  -0.424  1.00  0.00     0.002 A 
HETATM   27  C   UNL     1       4.365   0.755  -0.509  1.00  0.00     0.030 A 
ENDBRANCH  18  21
ENDBRANCH  16  17
ENDBRANCH   1  16
TORSDOF 3
