REMARK  6 active torsions:
REMARK  status: ('A' for Active; 'I' for Inactive)
REMARK    1  A    between atoms: C_3  and  C_4 
REMARK    2  A    between atoms: C_4  and  N_5 
REMARK    3  A    between atoms: N_5  and  C_8 
REMARK    4  A    between atoms: C_8  and  C_9 
REMARK    5  A    between atoms: N_12  and  C_13 
REMARK    6  A    between atoms: C_28  and  O_29 
ROOT
HETATM    1  N   UNL     1       1.213   2.453  -0.040  1.00  0.00    -0.062 N 
HETATM    2  H   UNL     1       1.009   2.011  -0.942  1.00  0.00     0.278 HD
HETATM    3  H   UNL     1       0.691   1.933   0.672  1.00  0.00     0.278 HD
ENDROOT
BRANCH   1   4
HETATM    4  C   UNL     1       2.651   2.250   0.243  1.00  0.00     0.290 C 
BRANCH   4   5
HETATM    5  C   UNL     1       3.041   0.813   0.268  1.00  0.00     0.042 A 
HETATM    6  C   UNL     1       2.344  -0.397   0.259  1.00  0.00    -0.025 A 
HETATM    7  C   UNL     1       0.872  -0.636   0.199  1.00  0.00     0.051 C 
HETATM    8  C   UNL     1       3.320  -1.449   0.337  1.00  0.00     0.001 A 
HETATM    9  C   UNL     1       4.576  -0.858   0.378  1.00  0.00     0.043 A 
HETATM   10  C   UNL     1       3.248  -2.858   0.381  1.00  0.00     0.051 A 
HETATM   11  N   UNL     1       4.387   0.498   0.325  1.00  0.00    -0.357 N 
HETATM   12  C   UNL     1       5.761  -1.599   0.457  1.00  0.00     0.033 A 
HETATM   13  H   UNL     1       5.153   1.159   0.338  1.00  0.00     0.166 HD
HETATM   14  C   UNL     1       5.658  -2.995   0.503  1.00  0.00     0.039 A 
HETATM   15  C   UNL     1       4.417  -3.626   0.467  1.00  0.00     0.069 A 
BRANCH  15  16
HETATM   16  O   UNL     1       4.199  -4.976   0.509  1.00  0.00    -0.356 OA
HETATM   17  C   UNL     1       5.342  -5.814   0.634  1.00  0.00     0.210 C 
ENDBRANCH  15  16
ENDBRANCH   4   5
ENDBRANCH   1   4
BRANCH   1  18
HETATM   18  C   UNL     1       0.735   3.872  -0.043  1.00  0.00     0.218 C 
HETATM   19  C   UNL     1      -0.790   3.848  -0.145  1.00  0.00     0.045 C 
BRANCH  18  20
HETATM   20  C   UNL     1       1.359   4.686  -1.128  1.00  0.00     0.015 C 
HETATM   21  C   UNL     1       2.144   5.833  -1.021  1.00  0.00     0.042 C 
HETATM   22  C   UNL     1       2.640   6.513   0.208  1.00  0.00     0.071 C 
HETATM   23  N   UNL     1       2.436   6.243  -2.329  1.00  0.00    -0.238 N 
HETATM   24  N   UNL     1       2.041   5.286  -3.210  1.00  0.00    -0.179 NA
HETATM   25  C   UNL     1       1.313   4.431  -2.511  1.00  0.00     0.150 C 
BRANCH  23  26
HETATM   26  C   UNL     1       3.054   7.429  -2.828  1.00  0.00     0.058 A 
HETATM   27  C   UNL     1       3.544   7.432  -4.146  1.00  0.00     0.031 A 
HETATM   28  C   UNL     1       4.152   8.571  -4.679  1.00  0.00     0.002 A 
HETATM   29  C   UNL     1       4.263   9.725  -3.910  1.00  0.00     0.000 A 
HETATM   30  C   UNL     1       3.758   9.743  -2.612  1.00  0.00     0.002 A 
HETATM   31  C   UNL     1       3.151   8.603  -2.072  1.00  0.00     0.031 A 
ENDBRANCH  23  26
ENDBRANCH  18  20
ENDBRANCH   1  18
TORSDOF 6
