REMARK  6 active torsions:
REMARK  status: ('A' for Active; 'I' for Inactive)
REMARK    1  A    between atoms: C_3  and  C_4 
REMARK       I    between atoms: C_4  and  N_5 
REMARK    2  A    between atoms: N_5  and  C_6 
REMARK    3  A    between atoms: C_14  and  N_15 
REMARK       I    between atoms: N_15  and  C_16 
REMARK    4  A    between atoms: C_16  and  C_17 
REMARK    5  A    between atoms: C_17  and  S_18 
REMARK    6  A    between atoms: S_18  and  C_19 
ROOT
HETATM    1  C   UNL     1      -1.626   0.732  -0.133  1.00  0.00     0.001 A 
HETATM    2  C   UNL     1      -0.627   1.691  -0.289  1.00  0.00     0.019 A 
HETATM    3  C   UNL     1       0.725   1.355  -0.082  1.00  0.00     0.059 A 
HETATM    4  C   UNL     1       1.075   0.052   0.340  1.00  0.00     0.050 A 
HETATM    5  C   UNL     1       0.054  -0.898   0.476  1.00  0.00     0.030 A 
HETATM    6  C   UNL     1      -1.282  -0.563   0.236  1.00  0.00     0.002 A 
ENDROOT
BRANCH   4   7
HETATM    7  N   UNL     1       2.425  -0.250   0.649  1.00  0.00    -0.326 N 
HETATM    8  C   UNL     1       2.995  -1.483   0.886  1.00  0.00     0.231 C 
HETATM    9  O   UNL     1       2.413  -2.562   0.752  1.00  0.00    -0.272 OA
HETATM   10  H   UNL     1       3.043   0.562   0.726  1.00  0.00     0.169 HD
BRANCH   8  11
HETATM   11  C   UNL     1       4.433  -1.483   1.391  1.00  0.00     0.185 C 
BRANCH  11  12
HETATM   12  S   UNL     1       5.465  -0.124   0.775  1.00  0.00    -0.083 SA
BRANCH  12  13
HETATM   13  C   UNL     1       5.213   1.054   2.007  1.00  0.00     0.168 A 
HETATM   14  N   UNL     1       4.342   1.000   2.983  1.00  0.00    -0.223 NA
HETATM   15  C   UNL     1       4.486   2.198   3.641  1.00  0.00     0.086 A 
HETATM   16  C   UNL     1       5.485   2.975   3.057  1.00  0.00     0.063 A 
HETATM   17  C   UNL     1       3.796   2.698   4.754  1.00  0.00     0.034 A 
HETATM   18  N   UNL     1       5.925   2.215   2.004  1.00  0.00    -0.333 N 
HETATM   19  C   UNL     1       5.852   4.236   3.530  1.00  0.00     0.032 A 
HETATM   20  H   UNL     1       6.631   2.465   1.329  1.00  0.00     0.168 HD
HETATM   21  C   UNL     1       5.153   4.715   4.645  1.00  0.00     0.002 A 
HETATM   22  C   UNL     1       4.140   3.963   5.247  1.00  0.00     0.002 A 
ENDBRANCH  12  13
ENDBRANCH  11  12
ENDBRANCH   8  11
ENDBRANCH   4   7
BRANCH   3  23
HETATM   23  C   UNL     1       1.776   2.390  -0.339  1.00  0.00     0.258 C 
HETATM   24  N   UNL     1       1.519   3.234  -1.407  1.00  0.00    -0.323 N 
HETATM   25  H   UNL     1       0.729   3.001  -1.996  1.00  0.00     0.169 HD
HETATM   26  O   UNL     1       2.792   2.388   0.345  1.00  0.00    -0.267 OA
BRANCH  24  27
HETATM   27  C   UNL     1       2.298   4.328  -1.838  1.00  0.00     0.035 A 
HETATM   28  C   UNL     1       3.415   4.811  -1.148  1.00  0.00     0.032 A 
HETATM   29  C   UNL     1       4.132   5.905  -1.641  1.00  0.00     0.044 A 
HETATM   30  C   UNL     1       3.729   6.519  -2.819  1.00  0.00     0.116 A 
HETATM   31  F   UNL     1       4.417   7.567  -3.289  1.00  0.00    -0.206 F 
HETATM   32  C   UNL     1       2.618   6.061  -3.514  1.00  0.00     0.044 A 
HETATM   33  C   UNL     1       1.901   4.967  -3.022  1.00  0.00     0.032 A 
ENDBRANCH  24  27
ENDBRANCH   3  23
TORSDOF 6
