REMARK  2 active torsions:
REMARK  status: ('A' for Active; 'I' for Inactive)
REMARK    1  A    between atoms: C_10  and  C_11 
REMARK    2  A    between atoms: C_12  and  O_13 
ROOT
HETATM    1  C   UNL     1       3.582  -2.838  -0.027  1.00  0.00     0.076 C 
HETATM    2  C   UNL     1       3.558  -1.362  -0.057  1.00  0.00     0.050 A 
HETATM    3  O   UNL     1       4.760  -0.729   0.039  1.00  0.00    -0.312 OA
HETATM    4  C   UNL     1       4.523   0.624   0.014  1.00  0.00     0.121 A 
HETATM    5  C   UNL     1       5.566   1.591   0.121  1.00  0.00     0.163 A 
HETATM    6  N   UNL     1       5.417   2.892   0.208  1.00  0.00    -0.221 NA
HETATM    7  C   UNL     1       6.695   3.426   0.343  1.00  0.00     0.149 A 
HETATM    8  C   UNL     1       7.633   2.402   0.302  1.00  0.00     0.046 A 
HETATM    9  C   UNL     1       9.118   2.312   0.366  1.00  0.00     0.070 C 
HETATM   10  C   UNL     1       9.898   3.566   0.784  1.00  0.00     0.045 C 
HETATM   11  C   UNL     1       9.123   4.576   1.646  1.00  0.00     0.132 C 
HETATM   12  N   UNL     1       8.086   5.333   0.984  1.00  0.00    -0.355 N 
HETATM   13  C   UNL     1       6.896   4.870   0.483  1.00  0.00     0.272 C 
HETATM   14  O   UNL     1       6.045   5.700   0.166  1.00  0.00    -0.266 OA
HETATM   15  N   UNL     1       6.886   1.253   0.159  1.00  0.00    -0.340 N 
HETATM   16  H   UNL     1       7.233   0.306   0.098  1.00  0.00     0.167 HD
HETATM   17  C   UNL     1       3.161   0.834  -0.112  1.00  0.00     0.043 A 
HETATM   18  C   UNL     1       2.543  -0.438  -0.160  1.00  0.00     0.035 A 
HETATM   19  H   UNL     1       8.087   6.339   1.087  1.00  0.00     0.162 HD
ENDROOT
BRANCH  10  20
HETATM   20  C   UNL     1      10.701   4.159  -0.379  1.00  0.00    -0.019 A 
HETATM   21  C   UNL     1      12.084   3.891  -0.514  1.00  0.00     0.074 A 
HETATM   22  C   UNL     1      12.808   4.452  -1.573  1.00  0.00     0.037 A 
HETATM   23  C   UNL     1      12.172   5.252  -2.522  1.00  0.00     0.003 A 
HETATM   24  C   UNL     1      10.807   5.486  -2.426  1.00  0.00     0.001 A 
HETATM   25  C   UNL     1      10.077   4.937  -1.370  1.00  0.00     0.010 A 
BRANCH  21  26
HETATM   26  O   UNL     1      12.641   3.073   0.437  1.00  0.00    -0.355 OA
HETATM   27  C   UNL     1      13.944   2.563   0.180  1.00  0.00     0.210 C 
ENDBRANCH  21  26
ENDBRANCH  10  20
TORSDOF 2
