REMARK  3 active torsions:
REMARK  status: ('A' for Active; 'I' for Inactive)
REMARK    1  A    between atoms: C_2  and  C_3 
REMARK    2  A    between atoms: C_9  and  C_10 
REMARK    3  A    between atoms: C_21  and  N_22 
ROOT
HETATM    1  C   UNL     1       2.817   0.532   1.350  1.00  0.00     0.066 A 
HETATM    2  N   UNL     1       3.416  -0.134   2.353  1.00  0.00    -0.177 NA
HETATM    3  N   UNL     1       3.659   0.811   3.285  1.00  0.00    -0.256 N 
HETATM    4  H   UNL     1       4.128   0.543   4.143  1.00  0.00     0.191 HD
HETATM    5  C   UNL     1       3.245   2.044   2.899  1.00  0.00     0.175 A 
HETATM    6  C   UNL     1       2.670   1.904   1.662  1.00  0.00     0.035 A 
HETATM    7  C   UNL     1       2.129   3.096   0.955  1.00  0.00     0.104 A 
HETATM    8  C   UNL     1       2.478   4.365   1.728  1.00  0.00     0.067 A 
HETATM    9  C   UNL     1       2.240   5.679   1.002  1.00  0.00     0.020 C 
HETATM   10  N   UNL     1       2.043   6.769   0.399  1.00  0.00    -0.096 N 
HETATM   11  C   UNL     1       3.071   4.360   2.952  1.00  0.00     0.139 A 
HETATM   12  O   UNL     1       3.413   3.158   3.603  1.00  0.00    -0.279 OA
ENDROOT
BRANCH   7  13
HETATM   13  C   UNL     1       0.626   2.870   0.841  1.00  0.00    -0.043 A 
HETATM   14  C   UNL     1      -0.200   2.734   1.975  1.00  0.00     0.033 A 
HETATM   15  C   UNL     1      -1.578   2.525   1.846  1.00  0.00     0.056 A 
HETATM   16 CL   UNL     1      -2.503   2.357   3.296  1.00  0.00    -0.083 Cl
HETATM   17  C   UNL     1      -2.155   2.460   0.576  1.00  0.00     0.055 A 
HETATM   18 CL   UNL     1      -3.846   2.202   0.336  1.00  0.00    -0.083 Cl
HETATM   19  C   UNL     1      -1.351   2.606  -0.558  1.00  0.00     0.026 A 
HETATM   20  C   UNL     1       0.026   2.813  -0.427  1.00  0.00     0.010 A 
ENDBRANCH   7  13
BRANCH  11  21
HETATM   21  N   UNL     1       3.417   5.477   3.676  1.00  0.00    -0.282 NA
HETATM   22  H   UNL     1       2.883   6.319   3.477  1.00  0.00     0.126 HD
HETATM   23  H   UNL     1       3.497   5.282   4.672  1.00  0.00     0.126 HD
ENDBRANCH  11  21
BRANCH   1  24
HETATM   24  C   UNL     1       2.423  -0.192   0.106  1.00  0.00     0.057 C 
HETATM   25  C   UNL     1       1.135  -0.983   0.271  1.00  0.00     0.011 C 
ENDBRANCH   1  24
TORSDOF 3
