REMARK  7 active torsions:
REMARK  status: ('A' for Active; 'I' for Inactive)
REMARK    1  A    between atoms: O_2  and  C_3 
REMARK    2  A    between atoms: C_6  and  C_7 
REMARK    3  A    between atoms: C_7  and  C_8 
REMARK       I    between atoms: C_8  and  N_9 
REMARK    4  A    between atoms: N_9  and  C_10 
REMARK    5  A    between atoms: C_10  and  C_11 
REMARK    6  A    between atoms: C_14  and  N_15 
REMARK       I    between atoms: N_15  and  C_16 
REMARK    7  A    between atoms: C_16  and  C_17 
ROOT
HETATM    1  C   UNL     1       7.184   0.986   1.992  1.00  0.00    -0.040 A 
HETATM    2  C   UNL     1       8.455   0.938   2.579  1.00  0.00     0.011 A 
HETATM    3  C   UNL     1       9.227  -0.231   2.528  1.00  0.00     0.030 A 
HETATM    4  C   UNL     1       8.735  -1.379   1.908  1.00  0.00     0.035 A 
HETATM    5  C   UNL     1       7.461  -1.340   1.332  1.00  0.00     0.030 A 
HETATM    6  C   UNL     1       6.695  -0.171   1.372  1.00  0.00     0.011 A 
ENDROOT
BRANCH   1   7
HETATM    7  C   UNL     1       6.314   2.216   2.070  1.00  0.00     0.161 C 
BRANCH   7   8
HETATM    8  N   UNL     1       6.989   3.416   1.625  1.00  0.00    -0.357 N 
HETATM    9  C   UNL     1       6.299   4.419   0.979  1.00  0.00     0.222 C 
HETATM   10  O   UNL     1       5.132   4.302   0.614  1.00  0.00    -0.273 OA
HETATM   11  H   UNL     1       7.883   3.637   2.041  1.00  0.00     0.162 HD
BRANCH   9  12
HETATM   12  C   UNL     1       7.087   5.705   0.782  1.00  0.00     0.141 C 
BRANCH  12  13
HETATM   13  C   UNL     1       6.740   6.833   1.732  1.00  0.00    -0.049 A 
HETATM   14  C   UNL     1       5.629   6.806   2.586  1.00  0.00     0.010 A 
HETATM   15  C   UNL     1       5.332   7.891   3.422  1.00  0.00     0.037 A 
HETATM   16  C   UNL     1       6.135   9.029   3.411  1.00  0.00     0.068 A 
HETATM   17  C   UNL     1       7.240   9.068   2.560  1.00  0.00     0.037 A 
HETATM   18  C   UNL     1       7.540   7.985   1.728  1.00  0.00     0.010 A 
BRANCH  16  19
HETATM   19  O   UNL     1       5.949  10.153   4.167  1.00  0.00    -0.356 OA
HETATM   20  C   UNL     1       4.816  10.167   5.025  1.00  0.00     0.210 C 
ENDBRANCH  16  19
ENDBRANCH  12  13
ENDBRANCH   9  12
ENDBRANCH   7   8
ENDBRANCH   1   7
BRANCH   4  21
HETATM   21  N   UNL     1       9.435  -2.597   1.828  1.00  0.00    -0.321 N 
HETATM   22  C   UNL     1      10.706  -2.893   2.287  1.00  0.00     0.279 C 
HETATM   23  O   UNL     1      11.465  -2.107   2.845  1.00  0.00    -0.265 OA
HETATM   24  H   UNL     1       8.962  -3.371   1.375  1.00  0.00     0.169 HD
BRANCH  22  25
HETATM   25  C   UNL     1      11.078  -4.275   2.033  1.00  0.00     0.142 A 
HETATM   26  O   UNL     1      10.177  -5.116   1.427  1.00  0.00    -0.317 OA
HETATM   27  C   UNL     1      10.775  -6.331   1.318  1.00  0.00     0.143 A 
HETATM   28  C   UNL     1      12.047  -6.292   1.837  1.00  0.00     0.027 A 
HETATM   29  C   UNL     1      12.244  -4.968   2.299  1.00  0.00     0.045 A 
ENDBRANCH  22  25
ENDBRANCH   4  21
TORSDOF 7
