REMARK  11 active torsions:
REMARK  status: ('A' for Active; 'I' for Inactive)
REMARK    1  A    between atoms: O_2  and  C_3 
REMARK    2  A    between atoms: C_6  and  C_7 
REMARK    3  A    between atoms: C_7  and  C_8 
REMARK    4  A    between atoms: C_8  and  N_9 
REMARK    5  A    between atoms: C_13  and  C_14 
REMARK    6  A    between atoms: C_14  and  C_15 
REMARK    7  A    between atoms: C_25  and  N_26 
REMARK    8  A    between atoms: N_26  and  C_27 
REMARK    9  A    between atoms: C_27  and  C_28 
REMARK   10  A    between atoms: C_28  and  O_29 
REMARK   11  A    between atoms: C_28  and  C_30 
ROOT
HETATM    1  C   UNL     1       6.694   4.526  -7.797  1.00  0.00     0.074 A 
HETATM    2  C   UNL     1       7.928   5.295  -7.472  1.00  0.00     0.266 A 
HETATM    3  O   UNL     1       7.842   6.374  -6.880  1.00  0.00    -0.267 OA
HETATM    4  N   UNL     1       9.125   4.716  -7.864  1.00  0.00    -0.273 N 
HETATM    5  C   UNL     1       9.114   3.469  -8.463  1.00  0.00     0.138 A 
HETATM    6  N   UNL     1       8.044   2.780  -8.700  1.00  0.00    -0.218 NA
HETATM    7  C   UNL     1      10.320   5.392  -7.641  1.00  0.00     0.102 A 
HETATM    8  C   UNL     1      11.501   4.871  -7.995  1.00  0.00     0.018 A 
HETATM    9  C   UNL     1      11.556   3.577  -8.621  1.00  0.00     0.005 A 
HETATM   10  C   UNL     1      10.431   2.890  -8.851  1.00  0.00     0.051 A 
HETATM   11  C   UNL     1       6.826   3.309  -8.372  1.00  0.00     0.121 A 
ENDROOT
BRANCH   1  12
HETATM   12  C   UNL     1       5.397   5.153  -7.587  1.00  0.00     0.045 C 
BRANCH  12  13
HETATM   13  C   UNL     1       4.808   5.993  -8.446  1.00  0.00     0.077 C 
HETATM   14  S   UNL     1       5.459   6.626  -9.905  1.00  0.00    -0.055 SA
HETATM   15  C   UNL     1       3.949   7.408 -10.346  1.00  0.00     0.148 C 
HETATM   16  N   UNL     1       2.988   7.137  -9.394  1.00  0.00    -0.298 N 
HETATM   17  S   UNL     1       3.792   8.316 -11.737  1.00  0.00    -0.052 SA
HETATM   18  C   UNL     1       3.405   6.446  -8.270  1.00  0.00     0.266 C 
HETATM   19  O   UNL     1       2.733   6.219  -7.272  1.00  0.00    -0.266 OA
BRANCH  16  20
HETATM   20  C   UNL     1       1.573   7.466  -9.530  1.00  0.00     0.138 C 
BRANCH  20  21
HETATM   21  C   UNL     1       1.187   8.813  -8.916  1.00  0.00     0.059 C 
BRANCH  21  22
HETATM   22  C   UNL     1      -0.269   9.101  -9.196  1.00  0.00    -0.057 A 
HETATM   23  C   UNL     1      -1.256   8.800  -8.249  1.00  0.00     0.010 A 
HETATM   24  C   UNL     1      -2.611   8.996  -8.544  1.00  0.00     0.037 A 
HETATM   25  C   UNL     1      -2.994   9.488  -9.792  1.00  0.00     0.068 A 
HETATM   26  C   UNL     1      -2.013   9.782 -10.740  1.00  0.00     0.037 A 
HETATM   27  C   UNL     1      -0.660   9.596 -10.446  1.00  0.00     0.010 A 
BRANCH  25  28
HETATM   28  O   UNL     1      -4.277   9.709 -10.211  1.00  0.00    -0.356 OA
HETATM   29  C   UNL     1      -5.298   9.618  -9.226  1.00  0.00     0.210 C 
ENDBRANCH  25  28
ENDBRANCH  21  22
ENDBRANCH  20  21
ENDBRANCH  16  20
ENDBRANCH  12  13
ENDBRANCH   1  12
BRANCH  11  30
HETATM   30  N   UNL     1       5.716   2.542  -8.715  1.00  0.00    -0.274 NA
HETATM   31  H   UNL     1       6.044   1.842  -9.386  1.00  0.00     0.129 HD
BRANCH  30  32
HETATM   32  C   UNL     1       4.965   1.813  -7.675  1.00  0.00     0.130 C 
BRANCH  32  33
HETATM   33  C   UNL     1       3.721   1.107  -8.254  1.00  0.00     0.164 C 
BRANCH  33  34
HETATM   34  O   UNL     1       4.100   0.237  -9.330  1.00  0.00    -0.390 OA
HETATM   35  H   UNL     1       3.317   0.136  -9.899  1.00  0.00     0.210 HD
ENDBRANCH  33  34
BRANCH  33  36
HETATM   36  C   UNL     1       2.619   2.060  -8.680  1.00  0.00    -0.029 A 
HETATM   37  C   UNL     1       1.526   2.290  -7.831  1.00  0.00     0.010 A 
HETATM   38  C   UNL     1       0.499   3.154  -8.213  1.00  0.00     0.001 A 
HETATM   39  C   UNL     1       0.549   3.796  -9.448  1.00  0.00     0.000 A 
HETATM   40  C   UNL     1       1.638   3.593 -10.294  1.00  0.00     0.001 A 
HETATM   41  C   UNL     1       2.670   2.736  -9.909  1.00  0.00     0.010 A 
ENDBRANCH  33  36
ENDBRANCH  32  33
ENDBRANCH  30  32
ENDBRANCH  11  30
TORSDOF 11
