REMARK  8 active torsions:
REMARK  status: ('A' for Active; 'I' for Inactive)
REMARK    1  A    between atoms: C_4  and  N_5 
REMARK       I    between atoms: N_5  and  C_6 
REMARK    2  A    between atoms: C_6  and  C_7 
REMARK    3  A    between atoms: C_7  and  N_8 
REMARK    4  A    between atoms: C_7  and  C_24 
REMARK    5  A    between atoms: N_8  and  C_11 
REMARK    6  A    between atoms: C_11  and  C_12 
REMARK    7  A    between atoms: C_15  and  N_16 
REMARK    8  A    between atoms: C_31  and  O_32 
ROOT
HETATM    1  C   UNL     1       3.337   3.828  -0.144  1.00  0.00     0.310 C 
ENDROOT
BRANCH   1   2
HETATM    2  C   UNL     1       4.616   3.733  -1.015  1.00  0.00     0.257 C 
HETATM    3  N   UNL     1       5.262   2.527  -1.091  1.00  0.00    -0.323 N 
HETATM    4  H   UNL     1       4.970   1.744  -0.506  1.00  0.00     0.169 HD
HETATM    5  O   UNL     1       4.863   4.732  -1.702  1.00  0.00    -0.270 OA
BRANCH   3   6
HETATM    6  C   UNL     1       6.265   2.146  -2.018  1.00  0.00     0.069 A 
HETATM    7  C   UNL     1       6.891   3.033  -2.899  1.00  0.00     0.039 A 
HETATM    8  C   UNL     1       7.836   2.570  -3.825  1.00  0.00    -0.060 A 
HETATM    9  C   UNL     1       8.529   3.526  -4.753  1.00  0.00     0.048 C 
HETATM   10  C   UNL     1       8.165   1.212  -3.844  1.00  0.00     0.009 A 
HETATM   11  C   UNL     1       7.554   0.318  -2.961  1.00  0.00     0.039 A 
HETATM   12  C   UNL     1       6.606   0.778  -2.044  1.00  0.00     0.095 A 
BRANCH  12  13
HETATM   13  O   UNL     1       5.924  -0.012  -1.146  1.00  0.00    -0.354 OA
HETATM   14  C   UNL     1       6.302  -1.384  -1.086  1.00  0.00     0.210 C 
ENDBRANCH  12  13
ENDBRANCH   3   6
ENDBRANCH   1   2
BRANCH   1  15
HETATM   15  N   UNL     1       2.261   4.337  -1.070  1.00  0.00    -0.054 N 
HETATM   16  H   UNL     1       2.726   5.068  -1.638  1.00  0.00     0.278 HD
HETATM   17  H   UNL     1       2.024   3.618  -1.762  1.00  0.00     0.278 HD
BRANCH  15  18
HETATM   18  C   UNL     1       1.023   4.909  -0.497  1.00  0.00     0.272 C 
BRANCH  18  19
HETATM   19  C   UNL     1       0.208   5.455  -1.637  1.00  0.00    -0.033 A 
HETATM   20  C   UNL     1      -0.648   4.616  -2.356  1.00  0.00     0.011 A 
HETATM   21  C   UNL     1      -1.221   5.049  -3.557  1.00  0.00     0.030 A 
HETATM   22  C   UNL     1      -0.955   6.320  -4.080  1.00  0.00     0.037 A 
HETATM   23  C   UNL     1      -0.152   7.178  -3.315  1.00  0.00     0.030 A 
HETATM   24  C   UNL     1       0.430   6.752  -2.113  1.00  0.00     0.011 A 
BRANCH  22  25
HETATM   25  N   UNL     1      -1.447   6.725  -5.350  1.00  0.00    -0.318 N 
HETATM   26  C   UNL     1      -1.989   5.876  -6.332  1.00  0.00     0.224 C 
HETATM   27  O   UNL     1      -2.192   4.673  -6.278  1.00  0.00    -0.273 OA
HETATM   28  C   UNL     1      -2.210   6.695  -7.583  1.00  0.00     0.105 C 
HETATM   29  C   UNL     1      -2.177   8.123  -7.075  1.00  0.00     0.029 C 
HETATM   30  C   UNL     1      -1.243   8.051  -5.887  1.00  0.00     0.133 C 
ENDBRANCH  22  25
ENDBRANCH  18  19
ENDBRANCH  15  18
ENDBRANCH   1  15
BRANCH   1  31
HETATM   31  C   UNL     1       2.945   2.589   0.628  1.00  0.00    -0.019 A 
HETATM   32  C   UNL     1       3.236   2.518   2.002  1.00  0.00     0.010 A 
HETATM   33  C   UNL     1       2.909   1.381   2.742  1.00  0.00     0.001 A 
HETATM   34  C   UNL     1       2.290   0.301   2.122  1.00  0.00     0.000 A 
HETATM   35  C   UNL     1       2.003   0.350   0.760  1.00  0.00     0.001 A 
HETATM   36  C   UNL     1       2.330   1.484   0.013  1.00  0.00     0.010 A 
ENDBRANCH   1  31
TORSDOF 8
