REMARK  6 active torsions:
REMARK  status: ('A' for Active; 'I' for Inactive)
REMARK    1  A    between atoms: C_2  and  N_3 
REMARK       I    between atoms: N_3  and  C_4 
REMARK    2  A    between atoms: C_4  and  C_6 
REMARK    3  A    between atoms: C_10  and  C_11 
REMARK    4  A    between atoms: C_11  and  N_12 
REMARK       I    between atoms: N_12  and  C_13 
REMARK    5  A    between atoms: C_13  and  C_15 
REMARK    6  A    between atoms: C_18  and  C_22 
ROOT
HETATM    1  N   UNL     1       4.051  -6.343   0.070  1.00  0.00    -0.353 N 
HETATM    2  C   UNL     1       3.774  -7.413   0.891  1.00  0.00     0.251 C 
HETATM    3  O   UNL     1       3.877  -8.582   0.538  1.00  0.00    -0.268 OA
HETATM    4  H   UNL     1       3.872  -5.399   0.377  1.00  0.00     0.163 HD
ENDROOT
BRANCH   1   5
HETATM    5  C   UNL     1       4.494  -6.524  -1.295  1.00  0.00     0.161 C 
BRANCH   5   6
HETATM    6  C   UNL     1       5.917  -6.060  -1.476  1.00  0.00    -0.040 A 
HETATM    7  C   UNL     1       6.962  -6.690  -0.784  1.00  0.00     0.009 A 
HETATM    8  C   UNL     1       8.286  -6.298  -0.984  1.00  0.00     0.002 A 
HETATM    9  C   UNL     1       8.586  -5.271  -1.881  1.00  0.00     0.017 A 
HETATM   10  C   UNL     1       7.556  -4.622  -2.573  1.00  0.00     0.032 A 
HETATM   11  C   UNL     1       6.227  -5.026  -2.371  1.00  0.00     0.026 A 
BRANCH  10  12
HETATM   12  C   UNL     1       7.818  -3.539  -3.565  1.00  0.00     0.251 C 
HETATM   13  N   UNL     1       9.004  -2.845  -3.431  1.00  0.00    -0.357 N 
HETATM   14  H   UNL     1       9.557  -2.959  -2.594  1.00  0.00     0.162 HD
HETATM   15  O   UNL     1       6.988  -3.288  -4.432  1.00  0.00    -0.268 OA
BRANCH  13  16
HETATM   16  C   UNL     1       9.346  -1.754  -4.320  1.00  0.00     0.118 C 
HETATM   17  C   UNL     1       8.726  -0.444  -3.869  1.00  0.00     0.026 C 
ENDBRANCH  13  16
ENDBRANCH  10  12
ENDBRANCH   5   6
ENDBRANCH   1   5
BRANCH   2  18
HETATM   18  C   UNL     1       3.297  -7.097   2.266  1.00  0.00     0.032 A 
HETATM   19  C   UNL     1       2.467  -8.022   2.903  1.00  0.00     0.018 A 
HETATM   20  C   UNL     1       2.002  -7.775   4.196  1.00  0.00     0.014 A 
HETATM   21  C   UNL     1       2.363  -6.601   4.878  1.00  0.00    -0.017 A 
HETATM   22  C   UNL     1       3.201  -5.660   4.243  1.00  0.00    -0.050 A 
HETATM   23  C   UNL     1       3.636  -4.384   4.914  1.00  0.00     0.049 C 
HETATM   24  C   UNL     1       3.674  -5.929   2.942  1.00  0.00     0.024 A 
BRANCH  21  25
HETATM   25  C   UNL     1       1.868  -6.411   6.229  1.00  0.00     0.011 A 
HETATM   26  C   UNL     1       2.545  -6.164   7.444  1.00  0.00     0.152 A 
HETATM   27  N   UNL     1       1.712  -6.056   8.483  1.00  0.00    -0.187 NA
HETATM   28  N   UNL     1       0.500  -6.252   7.937  1.00  0.00    -0.289 N 
HETATM   29  H   UNL     1      -0.312  -6.223   8.546  1.00  0.00     0.188 HD
HETATM   30  C   UNL     1       0.539  -6.472   6.591  1.00  0.00     0.123 A 
ENDBRANCH  21  25
ENDBRANCH   2  18
TORSDOF 6
