REMARK  6 active torsions:
REMARK  status: ('A' for Active; 'I' for Inactive)
REMARK    1  A    between atoms: C_8  and  C_9 
REMARK    2  A    between atoms: C_9  and  C_10 
REMARK    3  A    between atoms: C_10  and  N_11 
REMARK       I    between atoms: N_11  and  C_12 
REMARK    4  A    between atoms: C_12  and  C_13 
REMARK    5  A    between atoms: C_18  and  C_19 
REMARK    6  A    between atoms: C_29  and  C_30 
ROOT
HETATM    1  C   UNL     1       0.871  -5.823  -0.023  1.00  0.00     0.148 C 
HETATM    2  N   UNL     1       1.717  -6.880  -0.082  1.00  0.00    -0.165 NA
HETATM    3  N   UNL     1       2.921  -6.299  -0.213  1.00  0.00    -0.240 N 
HETATM    4  C   UNL     1       2.902  -4.941  -0.091  1.00  0.00     0.123 C 
HETATM    5  N   UNL     1       4.050  -4.238  -0.043  1.00  0.00    -0.366 N 
HETATM    6  C   UNL     1       5.318  -4.858   0.354  1.00  0.00     0.118 C 
HETATM    7  C   UNL     1       5.214  -6.390   0.562  1.00  0.00     0.066 C 
HETATM    8  C   UNL     1       4.151  -7.053  -0.323  1.00  0.00     0.221 C 
HETATM    9  C   UNL     1       1.581  -4.589  -0.051  1.00  0.00     0.088 C 
HETATM   10  H   UNL     1       4.018  -3.227   0.091  1.00  0.00     0.161 HD
ENDROOT
BRANCH   1  11
HETATM   11  C   UNL     1      -0.587  -5.984   0.088  1.00  0.00     0.272 C 
HETATM   12  N   UNL     1      -0.981  -7.287   0.287  1.00  0.00    -0.355 N 
HETATM   13  H   UNL     1      -0.232  -7.953   0.452  1.00  0.00     0.162 HD
HETATM   14  O   UNL     1      -1.368  -5.039   0.029  1.00  0.00    -0.266 OA
BRANCH  12  15
HETATM   15  C   UNL     1      -2.366  -7.641   0.504  1.00  0.00     0.127 C 
BRANCH  15  16
HETATM   16  C   UNL     1      -2.577  -9.136   0.744  1.00  0.00     0.060 C 
BRANCH  16  17
HETATM   17  C   UNL     1      -2.138  -9.577   2.107  1.00  0.00    -0.029 A 
HETATM   18  C   UNL     1      -0.906 -10.216   2.461  1.00  0.00    -0.002 A 
HETATM   19  C   UNL     1       0.235 -10.626   1.738  1.00  0.00     0.014 A 
HETATM   20  C   UNL     1      -0.934 -10.446   3.838  1.00  0.00     0.042 A 
HETATM   21  C   UNL     1       1.295 -11.245   2.413  1.00  0.00     0.001 A 
HETATM   22  C   UNL     1       1.234 -11.459   3.787  1.00  0.00     0.002 A 
HETATM   23  C   UNL     1       0.117 -11.062   4.527  1.00  0.00     0.030 A 
HETATM   24  N   UNL     1      -2.135  -9.966   4.304  1.00  0.00    -0.365 N 
HETATM   25  H   UNL     1      -2.429 -10.000   5.270  1.00  0.00     0.165 HD
HETATM   26  C   UNL     1      -2.869  -9.446   3.273  1.00  0.00     0.096 A 
ENDBRANCH  16  17
ENDBRANCH  15  16
ENDBRANCH  12  15
ENDBRANCH   1  11
BRANCH   8  27
HETATM   27  C   UNL     1       4.577  -7.156  -1.769  1.00  0.00     0.409 C 
HETATM   28  F   UNL     1       3.643  -7.755  -2.540  1.00  0.00    -0.169 F 
HETATM   29  F   UNL     1       4.885  -5.971  -2.333  1.00  0.00    -0.169 F 
HETATM   30  F   UNL     1       5.696  -7.925  -1.857  1.00  0.00    -0.169 F 
ENDBRANCH   8  27
BRANCH   6  31
HETATM   31  C   UNL     1       5.803  -4.169   1.623  1.00  0.00    -0.033 A 
HETATM   32  C   UNL     1       7.025  -3.476   1.638  1.00  0.00     0.049 A 
HETATM   33  C   UNL     1       7.405  -2.854   2.811  1.00  0.00     0.105 A 
HETATM   34  C   UNL     1       6.630  -2.899   3.946  1.00  0.00     0.105 A 
HETATM   35  O   UNL     1       8.548  -2.140   2.995  1.00  0.00    -0.323 OA
HETATM   36  O   UNL     1       7.187  -2.223   4.986  1.00  0.00    -0.323 OA
HETATM   37  C   UNL     1       5.425  -3.561   3.975  1.00  0.00     0.040 A 
HETATM   38  C   UNL     1       8.396  -1.733   4.373  1.00  0.00     0.352 A 
HETATM   39  C   UNL     1       5.009  -4.193   2.801  1.00  0.00     0.012 A 
ENDBRANCH   6  31
TORSDOF 6
