REMARK  5 active torsions:
REMARK  status: ('A' for Active; 'I' for Inactive)
REMARK    1  A    between atoms: O_2  and  C_3 
REMARK    2  A    between atoms: C_5  and  C_23 
REMARK    3  A    between atoms: C_11  and  C_14 
REMARK    4  A    between atoms: C_14  and  N_15 
REMARK    5  A    between atoms: C_14  and  C_16 
ROOT
HETATM    1  C   UNL     1       3.212   5.714  -2.793  1.00  0.00     0.098 A 
HETATM    2  C   UNL     1       2.167   6.480  -3.335  1.00  0.00     0.051 A 
HETATM    3  C   UNL     1       1.641   6.195  -4.605  1.00  0.00    -0.019 A 
HETATM    4  C   UNL     1       2.175   5.128  -5.331  1.00  0.00     0.032 A 
HETATM    5  C   UNL     1       3.208   4.359  -4.785  1.00  0.00     0.064 A 
HETATM    6  C   UNL     1       3.794   3.248  -5.555  1.00  0.00     0.259 A 
HETATM    7  O   UNL     1       3.405   2.961  -6.680  1.00  0.00    -0.267 OA
HETATM    8  N   UNL     1       4.805   2.571  -4.933  1.00  0.00    -0.309 N 
HETATM    9  C   UNL     1       5.262   2.877  -3.678  1.00  0.00     0.145 A 
HETATM   10  N   UNL     1       4.782   3.848  -2.970  1.00  0.00    -0.229 NA
HETATM   11  C   UNL     1       3.736   4.626  -3.517  1.00  0.00     0.108 A 
HETATM   12  H   UNL     1       5.261   1.832  -5.452  1.00  0.00     0.170 HD
ENDROOT
BRANCH   9  13
HETATM   13  C   UNL     1       6.411   2.005  -3.149  1.00  0.00     0.320 C 
BRANCH  13  14
HETATM   14  N   UNL     1       7.512   2.045  -4.134  1.00  0.00     0.094 N 
HETATM   15  H   UNL     1       8.307   1.550  -3.727  1.00  0.00     0.314 HD
HETATM   16  H   UNL     1       7.818   3.016  -4.217  1.00  0.00     0.314 HD
ENDBRANCH  13  14
BRANCH  13  17
HETATM   17  C   UNL     1       5.943   0.590  -2.848  1.00  0.00    -0.018 A 
HETATM   18  C   UNL     1       5.261   0.338  -1.644  1.00  0.00     0.011 A 
HETATM   19  C   UNL     1       4.799  -0.945  -1.338  1.00  0.00     0.024 A 
HETATM   20  C   UNL     1       5.009  -1.989  -2.234  1.00  0.00     0.034 A 
HETATM   21 CL   UNL     1       4.443  -3.570  -1.857  1.00  0.00    -0.084 Cl
HETATM   22  C   UNL     1       5.671  -1.761  -3.437  1.00  0.00     0.024 A 
HETATM   23  C   UNL     1       6.133  -0.478  -3.743  1.00  0.00     0.011 A 
ENDBRANCH  13  17
ENDBRANCH   9  13
BRANCH   1  24
HETATM   24  O   UNL     1       3.765   5.939  -1.555  1.00  0.00    -0.354 OA
HETATM   25  C   UNL     1       3.558   7.222  -0.978  1.00  0.00     0.210 C 
ENDBRANCH   1  24
BRANCH   3  26
HETATM   26  C   UNL     1       0.568   7.010  -5.150  1.00  0.00     0.010 A 
HETATM   27  C   UNL     1       0.222   8.363  -4.921  1.00  0.00     0.152 A 
HETATM   28  N   UNL     1      -0.854   8.749  -5.611  1.00  0.00    -0.187 NA
HETATM   29  N   UNL     1      -1.204   7.644  -6.289  1.00  0.00    -0.289 N 
HETATM   30  H   UNL     1      -2.014   7.689  -6.898  1.00  0.00     0.188 HD
HETATM   31  C   UNL     1      -0.388   6.577  -6.046  1.00  0.00     0.123 A 
ENDBRANCH   3  26
TORSDOF 5
