REMARK  6 active torsions:
REMARK  status: ('A' for Active; 'I' for Inactive)
REMARK    1  A    between atoms: C_6  and  C_7 
REMARK    2  A    between atoms: C_7  and  N_8 
REMARK       I    between atoms: N_8  and  C_9 
REMARK       I    between atoms: C_9  and  N_10 
REMARK    3  A    between atoms: N_10  and  C_11 
REMARK    4  A    between atoms: C_11  and  C_12 
REMARK       I    between atoms: C_12  and  N_13 
REMARK    5  A    between atoms: N_13  and  N_14 
REMARK       I    between atoms: N_14  and  C_15 
REMARK    6  A    between atoms: C_15  and  C_16 
ROOT
HETATM    1  C   UNL     1      -1.703  -5.095  -0.294  1.00  0.00     0.117 C 
HETATM    2  C   UNL     1      -0.739  -4.390   0.675  1.00  0.00     0.041 C 
HETATM    3  C   UNL     1       0.427  -5.358   0.795  1.00  0.00     0.003 C 
HETATM    4  C   UNL     1      -0.218  -6.735   0.809  1.00  0.00     0.003 C 
HETATM    5  C   UNL     1      -1.593  -6.571   0.158  1.00  0.00     0.041 C 
ENDROOT
BRANCH   1   6
HETATM    6  N   UNL     1      -3.103  -4.666  -0.145  1.00  0.00    -0.325 N 
HETATM    7  C   UNL     1      -3.483  -3.355  -0.214  1.00  0.00     0.317 C 
HETATM    8  N   UNL     1      -4.833  -3.218  -0.047  1.00  0.00    -0.339 N 
HETATM    9  O   UNL     1      -2.710  -2.430  -0.422  1.00  0.00    -0.247 OA
HETATM   10  H   UNL     1      -5.227  -3.855   0.630  1.00  0.00     0.164 HD
HETATM   11  H   UNL     1      -3.797  -5.301  -0.516  1.00  0.00     0.165 HD
BRANCH   8  12
HETATM   12  C   UNL     1      -5.409  -1.891  -0.088  1.00  0.00     0.162 C 
BRANCH  12  13
HETATM   13  C   UNL     1      -6.901  -1.889   0.138  1.00  0.00    -0.039 A 
HETATM   14  C   UNL     1      -7.729  -2.910  -0.353  1.00  0.00     0.027 A 
HETATM   15  C   UNL     1      -9.108  -2.862  -0.141  1.00  0.00     0.011 A 
HETATM   16  C   UNL     1      -9.685  -1.791   0.537  1.00  0.00     0.019 A 
HETATM   17 BR   UNL     1     -10.203  -4.265  -0.779  1.00  0.00    -0.051 Br
HETATM   18  C   UNL     1      -8.876  -0.756   1.003  1.00  0.00     0.002 A 
HETATM   19  C   UNL     1      -7.495  -0.804   0.803  1.00  0.00     0.009 A 
ENDBRANCH  12  13
ENDBRANCH   8  12
ENDBRANCH   1   6
BRANCH   1  20
HETATM   20  C   UNL     1      -1.265  -4.943  -1.786  1.00  0.00     0.264 C 
HETATM   21  N   UNL     1      -1.057  -3.643  -2.207  1.00  0.00    -0.265 N 
HETATM   22  H   UNL     1      -1.434  -2.849  -1.672  1.00  0.00     0.190 HD
HETATM   23  O   UNL     1      -1.152  -5.896  -2.560  1.00  0.00    -0.269 OA
BRANCH  21  24
HETATM   24  N   UNL     1      -0.798  -3.423  -3.565  1.00  0.00    -0.262 N 
HETATM   25  C   UNL     1      -0.724  -2.131  -4.043  1.00  0.00     0.286 C 
HETATM   26  O   UNL     1      -0.899  -1.150  -3.322  1.00  0.00    -0.264 OA
HETATM   27  H   UNL     1      -0.665  -4.246  -4.144  1.00  0.00     0.190 HD
BRANCH  25  28
HETATM   28  C   UNL     1      -0.427  -2.005  -5.454  1.00  0.00     0.102 A 
HETATM   29  N   UNL     1      -0.332  -0.765  -6.052  1.00  0.00    -0.361 N 
HETATM   30  H   UNL     1      -0.463   0.107  -5.554  1.00  0.00     0.165 HD
HETATM   31  C   UNL     1      -0.040  -0.899  -7.382  1.00  0.00     0.088 A 
HETATM   32  C   UNL     1       0.058  -2.243  -7.658  1.00  0.00     0.019 A 
HETATM   33  C   UNL     1      -0.186  -2.940  -6.448  1.00  0.00     0.036 A 
ENDBRANCH  25  28
ENDBRANCH  21  24
ENDBRANCH   1  20
TORSDOF 6
