REMARK  4 active torsions:
REMARK  status: ('A' for Active; 'I' for Inactive)
REMARK    1  A    between atoms: S_2  and  N_3 
REMARK    2  A    between atoms: N_3  and  N_4 
REMARK    3  A    between atoms: C_10  and  C_11 
REMARK    4  A    between atoms: C_12  and  O_13 
ROOT
HETATM    1  N   UNL     1       2.840  -1.447  -2.094  1.00  0.00    -0.224 N 
HETATM    2  C   UNL     1       2.388  -2.582  -1.424  1.00  0.00     0.276 C 
HETATM    3  O   UNL     1       1.792  -2.590  -0.353  1.00  0.00    -0.266 OA
HETATM    4  C   UNL     1       2.676  -3.865  -2.111  1.00  0.00     0.055 A 
HETATM    5  C   UNL     1       3.393  -3.842  -3.317  1.00  0.00     0.026 A 
HETATM    6  N   UNL     1       3.857  -2.631  -3.874  1.00  0.00    -0.265 NA
HETATM    7  C   UNL     1       2.994  -1.494  -3.541  1.00  0.00     0.224 C 
HETATM    8  C   UNL     1       2.275  -5.077  -1.535  1.00  0.00     0.019 A 
HETATM    9  C   UNL     1       2.618  -6.280  -2.147  1.00  0.00     0.001 A 
HETATM   10  C   UNL     1       3.374  -6.272  -3.318  1.00  0.00     0.002 A 
HETATM   11  C   UNL     1       3.773  -5.061  -3.891  1.00  0.00     0.024 A 
HETATM   12  H   UNL     1       3.981  -2.719  -4.882  1.00  0.00     0.130 HD
ENDROOT
BRANCH   7  13
HETATM   13  C   UNL     1       3.595  -0.242  -4.156  1.00  0.00     0.014 A 
HETATM   14  C   UNL     1       4.955   0.083  -4.036  1.00  0.00     0.075 A 
HETATM   15  C   UNL     1       5.461   1.272  -4.556  1.00  0.00     0.037 A 
HETATM   16  C   UNL     1       4.614   2.160  -5.213  1.00  0.00     0.003 A 
HETATM   17  C   UNL     1       3.261   1.860  -5.346  1.00  0.00     0.001 A 
HETATM   18  C   UNL     1       2.753   0.670  -4.820  1.00  0.00     0.013 A 
BRANCH  14  19
HETATM   19  O   UNL     1       5.850  -0.732  -3.402  1.00  0.00    -0.360 OA
HETATM   20  H   UNL     1       5.429  -1.603  -3.239  1.00  0.00     0.217 HD
ENDBRANCH  14  19
ENDBRANCH   7  13
BRANCH   1  21
HETATM   21  N   UNL     1       2.776  -0.110  -1.443  1.00  0.00    -0.220 N 
HETATM   22  H   UNL     1       3.086   0.689  -2.000  1.00  0.00     0.200 HD
BRANCH  21  23
HETATM   23  S   UNL     1       3.167   0.016   0.216  1.00  0.00     0.240 S 
HETATM   24  C   UNL     1       3.966   1.604   0.217  1.00  0.00     0.187 C 
HETATM   25  O   UNL     1       4.186  -0.959   0.539  1.00  0.00    -0.205 OA
HETATM   26  O   UNL     1       1.944   0.166   0.974  1.00  0.00    -0.205 OA
ENDBRANCH  21  23
ENDBRANCH   1  21
TORSDOF 4
