REMARK  6 active torsions:
REMARK  status: ('A' for Active; 'I' for Inactive)
REMARK    1  A    between atoms: C_2  and  N_3 
REMARK    2  A    between atoms: C_2  and  C_15 
REMARK    3  A    between atoms: C_5  and  C_6 
REMARK       I    between atoms: C_15  and  N_16 
REMARK    4  A    between atoms: N_16  and  C_17 
REMARK    5  A    between atoms: C_20  and  O_21 
REMARK    6  A    between atoms: O_21  and  C_22 
ROOT
HETATM    1  C   UNL     1       3.005   1.497  -0.081  1.00  0.00     0.253 C 
HETATM    2  N   UNL     1       4.051   2.070   0.618  1.00  0.00    -0.325 N 
HETATM    3  O   UNL     1       2.275   2.090  -0.874  1.00  0.00    -0.271 OA
HETATM    4  H   UNL     1       4.527   1.531   1.331  1.00  0.00     0.169 HD
ENDROOT
BRANCH   1   5
HETATM    5  C   UNL     1       2.851  -0.045   0.030  1.00  0.00     0.276 C 
HETATM    6  C   UNL     1       3.548  -0.722   1.206  1.00  0.00     0.050 C 
BRANCH   5   7
HETATM    7  N   UNL     1       3.242  -0.780  -1.270  1.00  0.00    -0.049 N 
HETATM    8  H   UNL     1       3.199  -1.783  -1.058  1.00  0.00     0.281 HD
HETATM    9  C   UNL     1       4.642  -0.500  -1.791  1.00  0.00     0.238 C 
HETATM   10  C   UNL     1       4.414   0.420  -2.982  1.00  0.00     0.041 C 
HETATM   11  C   UNL     1       3.128  -0.087  -3.599  1.00  0.00     0.030 C 
HETATM   12  C   UNL     1       2.276  -0.528  -2.424  1.00  0.00     0.237 C 
BRANCH   9  13
HETATM   13  C   UNL     1       5.342  -1.775  -2.171  1.00  0.00     0.042 A 
HETATM   14  N   UNL     1       6.721  -1.897  -2.205  1.00  0.00    -0.363 N 
HETATM   15  C   UNL     1       7.700  -0.863  -1.931  1.00  0.00     0.155 C 
HETATM   16  C   UNL     1       7.064  -3.167  -2.591  1.00  0.00     0.090 A 
HETATM   17  C   UNL     1       5.912  -3.873  -2.833  1.00  0.00     0.019 A 
HETATM   18  C   UNL     1       4.831  -3.002  -2.581  1.00  0.00     0.028 A 
ENDBRANCH   9  13
ENDBRANCH   5   7
ENDBRANCH   1   5
BRANCH   2  19
HETATM   19  C   UNL     1       4.508   3.407   0.508  1.00  0.00     0.035 A 
HETATM   20  C   UNL     1       3.982   4.345  -0.384  1.00  0.00     0.032 A 
HETATM   21  C   UNL     1       4.518   5.635  -0.456  1.00  0.00     0.039 A 
HETATM   22  C   UNL     1       5.577   6.007   0.366  1.00  0.00     0.076 A 
HETATM   23  C   UNL     1       6.119   5.077   1.252  1.00  0.00     0.039 A 
HETATM   24  C   UNL     1       5.579   3.787   1.329  1.00  0.00     0.032 A 
BRANCH  22  25
HETATM   25  O   UNL     1       6.075   7.274   0.171  1.00  0.00    -0.311 OA
BRANCH  25  26
HETATM   26  C   UNL     1       6.591   7.949   1.250  1.00  0.00     0.076 A 
HETATM   27  C   UNL     1       7.848   8.534   1.089  1.00  0.00     0.037 A 
HETATM   28  C   UNL     1       8.406   9.277   2.129  1.00  0.00     0.003 A 
HETATM   29  C   UNL     1       7.700   9.447   3.320  1.00  0.00     0.000 A 
HETATM   30  C   UNL     1       6.432   8.883   3.470  1.00  0.00     0.003 A 
HETATM   31  C   UNL     1       5.870   8.140   2.431  1.00  0.00     0.037 A 
ENDBRANCH  25  26
ENDBRANCH  22  25
ENDBRANCH   2  19
TORSDOF 6
