REMARK  6 active torsions:
REMARK  status: ('A' for Active; 'I' for Inactive)
REMARK    1  A    between atoms: C_2  and  O_3 
REMARK    2  A    between atoms: O_3  and  C_4 
REMARK    3  A    between atoms: C_4  and  C_5 
REMARK    4  A    between atoms: C_6  and  O_7 
REMARK    5  A    between atoms: C_12  and  O_13 
REMARK    6  A    between atoms: C_17  and  C_18 
ROOT
HETATM    1  C   UNL     1       6.075  -0.765  -0.061  1.00  0.00     0.133 C 
HETATM    2  C   UNL     1       5.853  -0.699   1.481  1.00  0.00     0.073 C 
HETATM    3  C   UNL     1       6.454  -1.903   2.222  1.00  0.00     0.047 C 
HETATM    4  C   UNL     1       6.370   0.618   2.134  1.00  0.00     0.097 C 
HETATM    5  C   UNL     1       6.046   1.778   1.266  1.00  0.00     0.042 A 
HETATM    6  C   UNL     1       5.684   1.751  -0.065  1.00  0.00     0.030 A 
HETATM    7  C   UNL     1       5.401   3.099  -0.344  1.00  0.00     0.190 A 
HETATM    8  N   UNL     1       5.618   3.915   0.681  1.00  0.00    -0.149 NA
HETATM    9  N   UNL     1       5.998   3.082   1.664  1.00  0.00    -0.279 N 
HETATM   10  H   UNL     1       6.187   3.475   2.581  1.00  0.00     0.189 HD
HETATM   11  C   UNL     1       5.540   0.479  -0.835  1.00  0.00     0.074 C 
ENDROOT
BRANCH  11  12
HETATM   12  C   UNL     1       6.126   0.664  -2.230  1.00  0.00    -0.048 A 
HETATM   13  C   UNL     1       7.301   1.397  -2.485  1.00  0.00     0.009 A 
HETATM   14  C   UNL     1       7.821   1.499  -3.778  1.00  0.00     0.024 A 
HETATM   15  C   UNL     1       7.183   0.856  -4.832  1.00  0.00     0.034 A 
HETATM   16 CL   UNL     1       7.828   0.971  -6.422  1.00  0.00    -0.084 Cl
HETATM   17  C   UNL     1       6.027   0.114  -4.605  1.00  0.00     0.024 A 
HETATM   18  C   UNL     1       5.503   0.018  -3.312  1.00  0.00     0.009 A 
ENDBRANCH  11  12
BRANCH   1  19
HETATM   19  C   UNL     1       7.500  -1.135  -0.419  1.00  0.00     0.267 C 
HETATM   20  O   UNL     1       7.780  -2.163  -1.026  1.00  0.00    -0.265 OA
BRANCH  19  21
HETATM   21  O   UNL     1       8.405  -0.230   0.029  1.00  0.00    -0.321 OA
BRANCH  21  22
HETATM   22  C   UNL     1       9.771  -0.484  -0.335  1.00  0.00     0.174 C 
HETATM   23  C   UNL     1      10.415  -1.440   0.651  1.00  0.00     0.034 C 
ENDBRANCH  21  22
ENDBRANCH  19  21
ENDBRANCH   1  19
BRANCH   2  24
HETATM   24  O   UNL     1       4.427  -0.758   1.716  1.00  0.00    -0.389 OA
HETATM   25  H   UNL     1       4.114  -1.659   1.523  1.00  0.00     0.210 HD
ENDBRANCH   2  24
BRANCH   7  26
HETATM   26  O   UNL     1       4.958   3.668  -1.468  1.00  0.00    -0.343 OA
HETATM   27  H   UNL     1       4.885   2.999  -2.164  1.00  0.00     0.219 HD
ENDBRANCH   7  26
TORSDOF 6
