REMARK  7 active torsions:
REMARK  status: ('A' for Active; 'I' for Inactive)
REMARK    1  A    between atoms: C_3  and  C_4 
REMARK    2  A    between atoms: C_4  and  N_5 
REMARK    3  A    between atoms: C_4  and  C_9 
REMARK       I    between atoms: N_5  and  C_6 
REMARK       I    between atoms: C_6  and  N_7 
REMARK    4  A    between atoms: C_9  and  C_10 
REMARK       I    between atoms: C_10  and  N_11 
REMARK    5  A    between atoms: N_11  and  C_12 
REMARK    6  A    between atoms: C_12  and  C_13 
REMARK    7  A    between atoms: C_13  and  N_14 
ROOT
HETATM    1  C   UNL     1       3.377   3.439  -0.488  1.00  0.00     0.132 C 
ENDROOT
BRANCH   1   2
HETATM    2  C   UNL     1       3.631   2.878   0.919  1.00  0.00     0.128 C 
BRANCH   2   3
HETATM    3  C   UNL     1       2.347   2.611   1.704  1.00  0.00    -0.029 A 
HETATM    4  C   UNL     1       2.072   3.243   2.939  1.00  0.00    -0.054 A 
HETATM    5  C   UNL     1       3.027   4.215   3.580  1.00  0.00     0.049 C 
HETATM    6  C   UNL     1       0.872   2.951   3.612  1.00  0.00     0.007 A 
HETATM    7  C   UNL     1      -0.045   2.044   3.085  1.00  0.00     0.001 A 
HETATM    8  C   UNL     1       0.222   1.412   1.879  1.00  0.00     0.001 A 
HETATM    9  C   UNL     1       1.406   1.691   1.197  1.00  0.00     0.010 A 
ENDBRANCH   2   3
BRANCH   2  10
HETATM   10  N   UNL     1       4.503   1.707   0.953  1.00  0.00    -0.334 N 
HETATM   11  C   UNL     1       4.471   0.681   0.063  1.00  0.00     0.314 C 
HETATM   12  N   UNL     1       5.329  -0.318   0.381  1.00  0.00    -0.352 N 
HETATM   13  O   UNL     1       3.798   0.641  -0.956  1.00  0.00    -0.248 OA
HETATM   14  H   UNL     1       5.496  -0.537   1.351  1.00  0.00     0.160 HD
HETATM   15  H   UNL     1       5.269  -1.123  -0.231  1.00  0.00     0.160 HD
HETATM   16  H   UNL     1       5.007   1.541   1.811  1.00  0.00     0.165 HD
ENDBRANCH   2  10
ENDBRANCH   1   2
BRANCH   1  17
HETATM   17  C   UNL     1       2.819   4.840  -0.414  1.00  0.00     0.219 C 
HETATM   18  N   UNL     1       1.453   4.938  -0.530  1.00  0.00    -0.359 N 
HETATM   19  H   UNL     1       0.944   4.059  -0.454  1.00  0.00     0.162 HD
HETATM   20  O   UNL     1       3.535   5.835  -0.326  1.00  0.00    -0.274 OA
BRANCH  18  21
HETATM   21  C   UNL     1       0.653   6.140  -0.302  1.00  0.00     0.150 C 
BRANCH  21  22
HETATM   22  C   UNL     1       1.312   7.531  -0.443  1.00  0.00     0.254 C 
BRANCH  22  23
HETATM   23  N   UNL     1       2.214   7.663  -1.643  1.00  0.00    -0.065 N 
HETATM   24  H   UNL     1       2.930   6.926  -1.495  1.00  0.00     0.280 HD
HETATM   25  C   UNL     1       1.556   7.382  -2.974  1.00  0.00     0.274 C 
HETATM   26  C   UNL     1       2.480   7.653  -4.115  1.00  0.00    -0.019 A 
HETATM   27  C   UNL     1       3.656   8.362  -3.959  1.00  0.00    -0.008 A 
HETATM   28  C   UNL     1       2.299   7.257  -5.477  1.00  0.00     0.017 A 
HETATM   29  S   UNL     1       4.525   8.540  -5.407  1.00  0.00    -0.106 SA
HETATM   30  C   UNL     1       4.153   8.904  -2.658  1.00  0.00     0.074 C 
HETATM   31  C   UNL     1       3.337   7.675  -6.283  1.00  0.00     0.051 A 
HETATM   32  C   UNL     1       2.997   8.968  -1.645  1.00  0.00     0.240 C 
ENDBRANCH  22  23
ENDBRANCH  21  22
ENDBRANCH  18  21
ENDBRANCH   1  17
TORSDOF 7
