REMARK  8 active torsions:
REMARK  status: ('A' for Active; 'I' for Inactive)
REMARK    1  A    between atoms: C_4  and  C_5 
REMARK    2  A    between atoms: C_5  and  C_6 
REMARK    3  A    between atoms: C_6  and  C_7 
REMARK    4  A    between atoms: C_7  and  N_8 
REMARK    5  A    between atoms: C_17  and  C_18 
REMARK    6  A    between atoms: C_18  and  N_19 
REMARK    7  A    between atoms: C_23  and  O_24 
REMARK    8  A    between atoms: C_23  and  C_25 
ROOT
HETATM    1  N   UNL     1       4.253   4.217   2.383  1.00  0.00    -0.065 N 
HETATM    2  H   UNL     1       3.424   4.788   2.590  1.00  0.00     0.280 HD
HETATM    3  C   UNL     1       4.189   3.074   3.378  1.00  0.00     0.276 C 
HETATM    4  C   UNL     1       5.232   2.004   3.205  1.00  0.00     0.001 A 
HETATM    5  C   UNL     1       6.587   2.310   3.342  1.00  0.00     0.076 A 
HETATM    6  O   UNL     1       6.996   3.574   3.660  1.00  0.00    -0.349 OA
HETATM    7  C   UNL     1       6.790   4.491   2.578  1.00  0.00     0.203 C 
HETATM    8  C   UNL     1       5.418   5.165   2.673  1.00  0.00     0.261 C 
HETATM    9  C   UNL     1       4.871   0.667   2.952  1.00  0.00     0.020 A 
HETATM   10  C   UNL     1       5.846  -0.345   2.831  1.00  0.00    -0.032 A 
HETATM   11  C   UNL     1       7.197   0.001   2.972  1.00  0.00     0.011 A 
HETATM   12  C   UNL     1       7.562   1.321   3.244  1.00  0.00     0.038 A 
ENDROOT
BRANCH  10  13
HETATM   13  C   UNL     1       5.436  -1.773   2.555  1.00  0.00     0.273 C 
BRANCH  13  14
HETATM   14  N   UNL     1       5.772  -2.771   3.651  1.00  0.00    -0.067 N 
HETATM   15  H   UNL     1       6.800  -2.805   3.713  1.00  0.00     0.280 HD
HETATM   16  C   UNL     1       5.260  -2.357   5.011  1.00  0.00     0.238 C 
HETATM   17  C   UNL     1       5.637  -3.403   6.044  1.00  0.00     0.071 C 
HETATM   18  C   UNL     1       5.028  -4.779   5.709  1.00  0.00     0.089 C 
HETATM   19  C   UNL     1       5.595  -5.177   4.332  1.00  0.00     0.071 C 
HETATM   20  C   UNL     1       5.301  -4.153   3.246  1.00  0.00     0.238 C 
BRANCH  18  21
HETATM   21  O   UNL     1       5.577  -5.703   6.650  1.00  0.00    -0.385 OA
HETATM   22  H   UNL     1       4.875  -6.281   7.004  1.00  0.00     0.211 HD
ENDBRANCH  18  21
BRANCH  18  23
HETATM   23  C   UNL     1       3.510  -4.798   5.849  1.00  0.00    -0.006 A 
HETATM   24  C   UNL     1       2.662  -5.393   4.916  1.00  0.00     0.126 A 
HETATM   25  N   UNL     1       1.314  -5.353   4.968  1.00  0.00    -0.272 NA
HETATM   26  C   UNL     1       0.750  -4.772   6.045  1.00  0.00     0.116 A 
HETATM   27  C   UNL     1       1.487  -4.209   7.068  1.00  0.00     0.020 A 
HETATM   28  C   UNL     1       2.877  -4.228   6.967  1.00  0.00     0.013 A 
ENDBRANCH  18  23
ENDBRANCH  13  14
ENDBRANCH  10  13
BRANCH   1  29
HETATM   29  C   UNL     1       4.155   3.843   0.918  1.00  0.00     0.236 C 
BRANCH  29  30
HETATM   30  C   UNL     1       2.930   2.998   0.575  1.00  0.00     0.039 C 
BRANCH  30  31
HETATM   31  C   UNL     1       1.562   3.622   0.906  1.00  0.00     0.040 C 
HETATM   32  C   UNL     1       1.257   4.834   0.025  1.00  0.00     0.017 C 
BRANCH  31  33
HETATM   33  C   UNL     1       0.507   2.569   0.804  1.00  0.00     0.057 A 
HETATM   34  O   UNL     1       0.478   1.667   1.832  1.00  0.00    -0.319 OA
HETATM   35  C   UNL     1      -0.545   0.802   1.575  1.00  0.00     0.049 A 
HETATM   36  C   UNL     1      -0.799  -0.257   2.572  1.00  0.00     0.076 C 
HETATM   37  C   UNL     1      -1.154   1.129   0.383  1.00  0.00     0.035 A 
HETATM   38  C   UNL     1      -0.474   2.264  -0.117  1.00  0.00     0.035 A 
ENDBRANCH  31  33
ENDBRANCH  30  31
ENDBRANCH  29  30
ENDBRANCH   1  29
TORSDOF 8
