REMARK  7 active torsions:
REMARK  status: ('A' for Active; 'I' for Inactive)
REMARK    1  A    between atoms: C_2  and  C_3 
REMARK    2  A    between atoms: C_6  and  C_7 
REMARK    3  A    between atoms: N_8  and  N_9 
REMARK    4  A    between atoms: C_20  and  C_21 
REMARK       I    between atoms: C_21  and  N_22 
REMARK    5  A    between atoms: N_22  and  C_23 
REMARK    6  A    between atoms: C_23  and  C_24 
REMARK    7  A    between atoms: C_30  and  N_31 
ROOT
HETATM    1  N   UNL     1       6.242   3.630   5.469  1.00  0.00    -0.202 N 
HETATM    2  C   UNL     1       6.899   3.749   6.680  1.00  0.00     0.183 A 
HETATM    3  C   UNL     1       5.952   3.568   7.681  1.00  0.00     0.124 A 
HETATM    4  N   UNL     1       6.328   3.482   8.982  1.00  0.00    -0.242 NA
HETATM    5  C   UNL     1       7.642   3.621   9.209  1.00  0.00     0.086 A 
HETATM    6  C   UNL     1       8.581   3.846   8.170  1.00  0.00     0.088 A 
HETATM    7  N   UNL     1       8.231   3.901   6.875  1.00  0.00    -0.225 NA
HETATM    8  C   UNL     1       8.099   3.528  10.518  1.00  0.00     0.034 A 
HETATM    9  C   UNL     1       9.452   3.665  10.832  1.00  0.00     0.002 A 
HETATM   10  C   UNL     1      10.367   3.908   9.818  1.00  0.00     0.002 A 
HETATM   11  C   UNL     1       9.923   3.995   8.498  1.00  0.00     0.034 A 
HETATM   12  C   UNL     1       4.674   3.429   7.067  1.00  0.00     0.104 C 
HETATM   13  C   UNL     1       4.872   3.652   5.710  1.00  0.00     0.123 C 
ENDROOT
BRANCH   1  14
HETATM   14  N   UNL     1       6.752   3.372   4.214  1.00  0.00    -0.176 NA
HETATM   15  C   UNL     1       7.667   2.454   4.245  1.00  0.00     0.150 C 
BRANCH  15  16
HETATM   16  C   UNL     1       8.239   1.845   3.034  1.00  0.00    -0.017 A 
HETATM   17  C   UNL     1       8.014   2.364   1.763  1.00  0.00     0.013 A 
HETATM   18  C   UNL     1       8.479   1.669   0.640  1.00  0.00     0.009 A 
HETATM   19  C   UNL     1       9.162   0.443   0.766  1.00  0.00    -0.051 A 
HETATM   20  C   UNL     1       9.385  -0.046   2.068  1.00  0.00     0.009 A 
HETATM   21  C   UNL     1       8.937   0.648   3.191  1.00  0.00     0.013 A 
BRANCH  19  22
HETATM   22  C   UNL     1       9.628  -0.386  -0.444  1.00  0.00    -0.024 C 
HETATM   23  C   UNL     1       9.408   0.316  -1.801  1.00  0.00     0.019 C 
HETATM   24  C   UNL     1       8.842  -1.715  -0.477  1.00  0.00     0.019 C 
HETATM   25  C   UNL     1      11.137  -0.692  -0.327  1.00  0.00     0.019 C 
ENDBRANCH  19  22
ENDBRANCH  15  16
ENDBRANCH   1  14
BRANCH  13  26
HETATM   26  N   UNL     1       3.988   3.724   4.668  1.00  0.00    -0.286 NA
HETATM   27  H   UNL     1       4.417   3.920   3.756  1.00  0.00     0.125 HD
HETATM   28  H   UNL     1       3.164   4.313   4.795  1.00  0.00     0.125 HD
ENDBRANCH  13  26
BRANCH  12  29
HETATM   29  C   UNL     1       3.437   3.027   7.724  1.00  0.00     0.257 C 
HETATM   30  N   UNL     1       2.448   2.601   6.857  1.00  0.00    -0.354 N 
HETATM   31  H   UNL     1       2.734   2.532   5.883  1.00  0.00     0.162 HD
HETATM   32  O   UNL     1       3.317   2.974   8.941  1.00  0.00    -0.267 OA
BRANCH  30  33
HETATM   33  C   UNL     1       1.384   1.708   7.278  1.00  0.00     0.155 C 
BRANCH  33  34
HETATM   34  C   UNL     1       0.242   2.354   8.068  1.00  0.00     0.139 C 
HETATM   35  O   UNL     1      -0.922   1.495   7.982  1.00  0.00    -0.384 OA
HETATM   36  C   UNL     1      -1.455   1.313   9.300  1.00  0.00     0.168 C 
HETATM   37  C   UNL     1      -0.862   2.406  10.155  1.00  0.00     0.029 C 
HETATM   38  C   UNL     1       0.512   2.549   9.553  1.00  0.00     0.035 C 
ENDBRANCH  33  34
ENDBRANCH  30  33
ENDBRANCH  12  29
TORSDOF 7
