REMARK  5 active torsions:
REMARK  status: ('A' for Active; 'I' for Inactive)
REMARK    1  A    between atoms: C_5  and  N_6 
REMARK       I    between atoms: N_6  and  C_7 
REMARK    2  A    between atoms: C_7  and  C_8 
REMARK    3  A    between atoms: C_9  and  C_10 
REMARK    4  A    between atoms: C_13  and  O_14 
REMARK    5  A    between atoms: N_20  and  C_21 
ROOT
HETATM    1  C   UNL     1       4.236  -3.611   0.137  1.00  0.00     0.060 C 
HETATM    2  C   UNL     1       4.496  -5.077   0.110  1.00  0.00     0.158 C 
HETATM    3  N   UNL     1       3.296  -5.804   0.436  1.00  0.00    -0.354 N 
HETATM    4  C   UNL     1       2.019  -5.322   0.387  1.00  0.00     0.179 C 
HETATM    5  S   UNL     1       0.822  -6.484   0.607  1.00  0.00    -0.040 SA
HETATM    6  N   UNL     1       1.871  -3.925   0.218  1.00  0.00    -0.292 N 
HETATM    7  C   UNL     1       3.000  -3.072   0.173  1.00  0.00     0.030 C 
HETATM    8  C   UNL     1       2.788  -1.573   0.102  1.00  0.00     0.070 C 
HETATM    9  H   UNL     1       3.370  -6.808   0.549  1.00  0.00     0.163 HD
ENDROOT
BRANCH   1  10
HETATM   10  C   UNL     1       5.444  -2.754   0.284  1.00  0.00     0.257 C 
HETATM   11  N   UNL     1       6.194  -2.674  -0.865  1.00  0.00    -0.306 N 
HETATM   12  H   UNL     1       5.883  -3.144  -1.703  1.00  0.00     0.170 HD
HETATM   13  O   UNL     1       5.662  -2.227   1.367  1.00  0.00    -0.267 OA
BRANCH  11  14
HETATM   14  C   UNL     1       7.420  -2.038  -0.945  1.00  0.00     0.160 A 
HETATM   15  N   UNL     1       8.021  -1.367   0.040  1.00  0.00    -0.110 NA
HETATM   16  O   UNL     1       9.225  -0.923  -0.466  1.00  0.00    -0.216 OA
HETATM   17  C   UNL     1       9.352  -1.334  -1.753  1.00  0.00     0.078 A 
HETATM   18  C   UNL     1      10.599  -0.962  -2.446  1.00  0.00     0.079 C 
HETATM   19  C   UNL     1       8.229  -2.039  -2.109  1.00  0.00     0.087 A 
ENDBRANCH  11  14
ENDBRANCH   1  10
BRANCH   2  20
HETATM   20  C   UNL     1       5.035  -5.566  -1.229  1.00  0.00    -0.031 A 
HETATM   21  C   UNL     1       6.307  -6.159  -1.303  1.00  0.00     0.012 A 
HETATM   22  C   UNL     1       6.825  -6.586  -2.529  1.00  0.00     0.037 A 
HETATM   23  C   UNL     1       6.072  -6.419  -3.686  1.00  0.00     0.065 A 
HETATM   24  C   UNL     1       4.812  -5.837  -3.638  1.00  0.00     0.037 A 
HETATM   25  C   UNL     1       4.292  -5.417  -2.414  1.00  0.00     0.012 A 
BRANCH  23  26
HETATM   26  O   UNL     1       6.539  -6.818  -4.902  1.00  0.00    -0.361 OA
HETATM   27  H   UNL     1       7.366  -7.312  -4.775  1.00  0.00     0.217 HD
ENDBRANCH  23  26
ENDBRANCH   2  20
BRANCH   6  28
HETATM   28  C   UNL     1       0.542  -3.378   0.245  1.00  0.00     0.042 A 
HETATM   29  C   UNL     1       0.115  -2.608   1.335  1.00  0.00     0.030 A 
HETATM   30  C   UNL     1      -1.179  -2.086   1.361  1.00  0.00     0.002 A 
HETATM   31  C   UNL     1      -2.054  -2.334   0.304  1.00  0.00     0.000 A 
HETATM   32  C   UNL     1      -1.637  -3.102  -0.782  1.00  0.00     0.002 A 
HETATM   33  C   UNL     1      -0.341  -3.623  -0.815  1.00  0.00     0.030 A 
ENDBRANCH   6  28
TORSDOF 5
