REMARK  10 active torsions:
REMARK  status: ('A' for Active; 'I' for Inactive)
REMARK    1  A    between atoms: C_2  and  N_3 
REMARK    2  A    between atoms: N_7  and  C_8 
REMARK    3  A    between atoms: C_8  and  C_9 
REMARK    4  A    between atoms: C_9  and  N_10 
REMARK    5  A    between atoms: N_10  and  C_11 
REMARK    6  A    between atoms: C_13  and  C_14 
REMARK    7  A    between atoms: C_14  and  N_15 
REMARK    8  A    between atoms: C_23  and  C_24 
REMARK    9  A    between atoms: C_24  and  O_25 
REMARK   10  A    between atoms: O_25  and  C_26 
ROOT
HETATM    1  C   UNL     1       7.473   2.891   2.745  1.00  0.00     0.139 A 
HETATM    2  N   UNL     1       8.097   4.056   3.058  1.00  0.00    -0.214 NA
HETATM    3  C   UNL     1       9.359   4.034   3.514  1.00  0.00     0.155 A 
HETATM    4  N   UNL     1      10.110   2.945   3.715  1.00  0.00    -0.224 NA
HETATM    5  C   UNL     1       9.465   1.804   3.425  1.00  0.00     0.115 A 
HETATM    6  C   UNL     1       8.172   1.675   2.947  1.00  0.00     0.053 A 
HETATM    7  S   UNL     1      10.254   0.325   3.640  1.00  0.00    -0.063 SA
HETATM    8  C   UNL     1       8.877  -0.576   3.163  1.00  0.00     0.089 A 
HETATM    9  C   UNL     1       7.815   0.265   2.816  1.00  0.00    -0.022 A 
HETATM   10  C   UNL     1       6.457  -0.215   2.392  1.00  0.00     0.051 C 
ENDROOT
BRANCH   1  11
HETATM   11  N   UNL     1       6.171   2.933   2.268  1.00  0.00    -0.372 N 
HETATM   12  H   UNL     1       6.000   2.353   1.451  1.00  0.00     0.161 HD
BRANCH  11  13
HETATM   13  C   UNL     1       5.449   4.194   2.319  1.00  0.00     0.156 C 
BRANCH  13  14
HETATM   14  C   UNL     1       3.976   4.041   1.805  1.00  0.00     0.236 C 
HETATM   15  C   UNL     1       3.275   2.958   2.650  1.00  0.00     0.044 C 
BRANCH  14  16
HETATM   16  N   UNL     1       3.883   3.786   0.332  1.00  0.00     0.097 N 
HETATM   17  C   UNL     1       4.324   4.942  -0.485  1.00  0.00     0.300 C 
HETATM   18  C   UNL     1       3.373   6.163  -0.470  1.00  0.00     0.265 C 
HETATM   19  N   UNL     1       1.954   5.762  -0.848  1.00  0.00    -0.068 N 
HETATM   20  H   UNL     1       1.974   5.486  -1.840  1.00  0.00     0.280 HD
HETATM   21  C   UNL     1       1.481   4.532  -0.073  1.00  0.00     0.265 C 
HETATM   22  C   UNL     1       2.530   3.403  -0.140  1.00  0.00     0.300 C 
BRANCH  19  23
HETATM   23  C   UNL     1       0.949   6.889  -0.710  1.00  0.00     0.230 C 
HETATM   24  C   UNL     1       1.274   8.043  -1.639  1.00  0.00     0.034 C 
ENDBRANCH  19  23
ENDBRANCH  14  16
ENDBRANCH  13  14
ENDBRANCH  11  13
ENDBRANCH   1  11
BRANCH   3  25
HETATM   25  C   UNL     1      10.023   5.359   3.853  1.00  0.00     0.314 C 
BRANCH  25  26
HETATM   26  N   UNL     1      11.552   5.299   3.885  1.00  0.00    -0.072 N 
HETATM   27  H   UNL     1      11.757   4.388   4.330  1.00  0.00     0.279 HD
HETATM   28  C   UNL     1      12.159   5.233   2.514  1.00  0.00     0.269 C 
HETATM   29  C   UNL     1      12.155   6.376   4.727  1.00  0.00     0.269 C 
ENDBRANCH  25  26
ENDBRANCH   3  25
BRANCH   8  30
HETATM   30  C   UNL     1       8.920  -2.038   3.154  1.00  0.00     0.300 C 
HETATM   31  O   UNL     1       8.085  -2.758   2.620  1.00  0.00    -0.259 OA
BRANCH  30  32
HETATM   32  O   UNL     1       9.999  -2.504   3.848  1.00  0.00    -0.317 OA
BRANCH  32  33
HETATM   33  C   UNL     1      10.116  -3.929   3.977  1.00  0.00     0.174 C 
HETATM   34  C   UNL     1       9.389  -4.391   5.226  1.00  0.00     0.034 C 
ENDBRANCH  32  33
ENDBRANCH  30  32
ENDBRANCH   8  30
TORSDOF 10
