REMARK  8 active torsions:
REMARK  status: ('A' for Active; 'I' for Inactive)
REMARK    1  A    between atoms: C_4  and  O_5 
REMARK    2  A    between atoms: O_5  and  C_6 
REMARK    3  A    between atoms: C_8  and  C_9 
REMARK    4  A    between atoms: C_9  and  N_10 
REMARK    5  A    between atoms: C_9  and  C_14 
REMARK       I    between atoms: N_10  and  C_11 
REMARK       I    between atoms: C_11  and  N_12 
REMARK    6  A    between atoms: C_14  and  C_15 
REMARK       I    between atoms: C_15  and  N_16 
REMARK    7  A    between atoms: N_16  and  N_17 
REMARK       I    between atoms: N_17  and  C_18 
REMARK    8  A    between atoms: C_18  and  C_19 
ROOT
HETATM    1  C   UNL     1       7.295  -2.103  -0.991  1.00  0.00     0.128 C 
ENDROOT
BRANCH   1   2
HETATM    2  C   UNL     1       8.362  -2.590  -0.014  1.00  0.00    -0.032 A 
HETATM    3  C   UNL     1       9.088  -3.776  -0.217  1.00  0.00     0.046 A 
HETATM    4  C   UNL     1      10.056  -4.194   0.701  1.00  0.00     0.076 A 
HETATM    5  C   UNL     1      10.350  -3.410   1.816  1.00  0.00     0.037 A 
HETATM    6  C   UNL     1       9.625  -2.244   2.047  1.00  0.00     0.003 A 
HETATM    7  C   UNL     1       8.631  -1.846   1.150  1.00  0.00     0.009 A 
BRANCH   4   8
HETATM    8  O   UNL     1      10.731  -5.353   0.391  1.00  0.00    -0.311 OA
BRANCH   8   9
HETATM    9  C   UNL     1      11.030  -6.231   1.408  1.00  0.00     0.076 A 
HETATM   10  C   UNL     1      10.130  -6.573   2.421  1.00  0.00     0.037 A 
HETATM   11  C   UNL     1      10.504  -7.499   3.397  1.00  0.00     0.003 A 
HETATM   12  C   UNL     1      11.763  -8.099   3.347  1.00  0.00     0.000 A 
HETATM   13  C   UNL     1      12.648  -7.781   2.317  1.00  0.00     0.003 A 
HETATM   14  C   UNL     1      12.279  -6.851   1.344  1.00  0.00     0.037 A 
ENDBRANCH   8   9
ENDBRANCH   4   8
ENDBRANCH   1   2
BRANCH   1  15
HETATM   15  N   UNL     1       7.067  -3.029  -2.095  1.00  0.00    -0.334 N 
HETATM   16  C   UNL     1       5.841  -3.128  -2.680  1.00  0.00     0.314 C 
HETATM   17  N   UNL     1       5.858  -3.941  -3.765  1.00  0.00    -0.352 N 
HETATM   18  O   UNL     1       4.822  -2.572  -2.301  1.00  0.00    -0.248 OA
HETATM   19  H   UNL     1       6.497  -4.722  -3.742  1.00  0.00     0.160 HD
HETATM   20  H   UNL     1       4.940  -4.141  -4.142  1.00  0.00     0.160 HD
HETATM   21  H   UNL     1       7.833  -3.099  -2.758  1.00  0.00     0.165 HD
ENDBRANCH   1  15
BRANCH   1  22
HETATM   22  C   UNL     1       7.585  -0.688  -1.520  1.00  0.00     0.134 C 
BRANCH  22  23
HETATM   23  C   UNL     1       8.895  -0.649  -2.278  1.00  0.00     0.238 C 
HETATM   24  N   UNL     1       9.826   0.226  -1.757  1.00  0.00    -0.267 N 
HETATM   25  H   UNL     1       9.790   0.508  -0.778  1.00  0.00     0.190 HD
HETATM   26  O   UNL     1       9.097  -1.333  -3.282  1.00  0.00    -0.272 OA
BRANCH  24  27
HETATM   27  N   UNL     1      11.109   0.202  -2.311  1.00  0.00    -0.262 N 
HETATM   28  C   UNL     1      12.201   0.313  -1.472  1.00  0.00     0.288 C 
HETATM   29  O   UNL     1      12.111   0.596  -0.280  1.00  0.00    -0.264 OA
HETATM   30  H   UNL     1      11.228  -0.205  -3.242  1.00  0.00     0.190 HD
BRANCH  28  31
HETATM   31  C   UNL     1      13.513   0.056  -2.143  1.00  0.00     0.125 A 
HETATM   32  N   UNL     1      13.462  -0.240  -3.472  1.00  0.00    -0.255 NA
HETATM   33  C   UNL     1      14.644  -0.459  -4.085  1.00  0.00     0.117 A 
HETATM   34  C   UNL     1      15.870  -0.401  -3.440  1.00  0.00     0.019 A 
HETATM   35  C   UNL     1      15.892  -0.100  -2.080  1.00  0.00     0.004 A 
HETATM   36  C   UNL     1      14.693   0.134  -1.413  1.00  0.00     0.037 A 
ENDBRANCH  28  31
ENDBRANCH  24  27
ENDBRANCH  22  23
ENDBRANCH   1  22
TORSDOF 8
