REMARK  3 active torsions:
REMARK  status: ('A' for Active; 'I' for Inactive)
REMARK    1  A    between atoms: C_6  and  N_7 
REMARK       I    between atoms: N_7  and  C_8 
REMARK    2  A    between atoms: C_8  and  C_9 
REMARK    3  A    between atoms: C_9  and  C_10 
ROOT
HETATM    1  C   UNL     1       6.868   2.309  -0.430  1.00  0.00     0.165 C 
ENDROOT
BRANCH   1   2
HETATM    2  C   UNL     1       7.423   1.163  -1.257  1.00  0.00     0.227 C 
HETATM    3  N   UNL     1       6.844  -0.069  -1.064  1.00  0.00    -0.327 N 
HETATM    4  H   UNL     1       6.207  -0.133  -0.269  1.00  0.00     0.169 HD
HETATM    5  O   UNL     1       8.306   1.412  -2.077  1.00  0.00    -0.273 OA
BRANCH   3   6
HETATM    6  C   UNL     1       7.086  -1.268  -1.763  1.00  0.00     0.036 A 
HETATM    7  C   UNL     1       7.928  -1.375  -2.870  1.00  0.00     0.053 A 
HETATM    8  C   UNL     1       8.097  -2.606  -3.516  1.00  0.00     0.042 A 
HETATM    9  C   UNL     1       7.428  -3.755  -3.067  1.00  0.00    -0.040 A 
HETATM   10 CL   UNL     1       9.148  -2.660  -4.889  1.00  0.00    -0.084 Cl
HETATM   11  C   UNL     1       7.582  -5.085  -3.749  1.00  0.00     0.050 C 
HETATM   12  C   UNL     1       6.581  -3.640  -1.958  1.00  0.00     0.011 A 
HETATM   13  C   UNL     1       6.413  -2.410  -1.315  1.00  0.00     0.030 A 
ENDBRANCH   3   6
ENDBRANCH   1   2
BRANCH   1  14
HETATM   14  C   UNL     1       5.965   2.063   0.764  1.00  0.00     0.074 A 
HETATM   15  N   UNL     1       5.711   0.842   1.136  1.00  0.00    -0.175 NA
HETATM   16  N   UNL     1       4.899   0.643   2.208  1.00  0.00    -0.243 N 
HETATM   17  C   UNL     1       4.297   1.620   2.963  1.00  0.00     0.272 A 
HETATM   18  H   UNL     1       4.729  -0.318   2.490  1.00  0.00     0.192 HD
HETATM   19  O   UNL     1       3.574   1.357   3.917  1.00  0.00    -0.266 OA
HETATM   20  C   UNL     1       4.568   3.008   2.560  1.00  0.00     0.046 A 
HETATM   21  C   UNL     1       5.402   3.247   1.470  1.00  0.00     0.006 A 
HETATM   22  C   UNL     1       3.995   4.071   3.269  1.00  0.00     0.018 A 
HETATM   23  C   UNL     1       5.670   4.568   1.089  1.00  0.00     0.014 A 
HETATM   24  C   UNL     1       5.099   5.631   1.795  1.00  0.00     0.001 A 
HETATM   25  C   UNL     1       4.262   5.383   2.883  1.00  0.00     0.001 A 
ENDBRANCH   1  14
TORSDOF 3
