REMARK  5 active torsions:
REMARK  status: ('A' for Active; 'I' for Inactive)
REMARK    1  A    between atoms: C_2  and  N_3 
REMARK    2  A    between atoms: N_7  and  C_8 
REMARK    3  A    between atoms: N_14  and  C_15 
REMARK    4  A    between atoms: C_19  and  C_20 
REMARK       I    between atoms: C_20  and  N_21 
REMARK    5  A    between atoms: N_21  and  C_22 
ROOT
HETATM    1  C   UNL     1       1.057   2.064   4.825  1.00  0.00     0.071 A 
HETATM    2  C   UNL     1       0.873   3.461   4.877  1.00  0.00     0.143 A 
HETATM    3  F   UNL     1       1.734   4.289   4.265  1.00  0.00    -0.204 F 
HETATM    4  C   UNL     1      -0.156   4.055   5.602  1.00  0.00     0.062 A 
HETATM    5  C   UNL     1      -1.046   3.254   6.314  1.00  0.00     0.045 A 
HETATM    6  C   UNL     1      -0.938   1.856   6.286  1.00  0.00     0.051 A 
HETATM    7  N   UNL     1      -1.863   1.071   7.030  1.00  0.00    -0.350 N 
HETATM    8  C   UNL     1      -2.707   1.705   7.929  1.00  0.00     0.113 C 
HETATM    9  C   UNL     1      -2.887   3.029   8.051  1.00  0.00     0.099 C 
HETATM   10  C   UNL     1      -2.105   3.893   7.132  1.00  0.00     0.201 C 
HETATM   11  O   UNL     1      -2.297   5.105   7.068  1.00  0.00    -0.286 OA
HETATM   12  C   UNL     1       0.103   1.290   5.523  1.00  0.00     0.063 A 
ENDROOT
BRANCH   9  13
HETATM   13  C   UNL     1      -3.811   3.542   9.110  1.00  0.00     0.275 C 
HETATM   14  N   UNL     1      -4.040   4.897   9.025  1.00  0.00    -0.153 N 
HETATM   15  H   UNL     1      -3.635   5.414   8.249  1.00  0.00     0.187 HD
HETATM   16  O   UNL     1      -4.276   2.761   9.934  1.00  0.00    -0.267 OA
BRANCH  14  17
HETATM   17  C   UNL     1      -4.719   5.594   9.992  1.00  0.00     0.708 A 
HETATM   18  N   UNL     1      -5.178   5.170  11.145  1.00  0.00    -0.062 NA
HETATM   19  C   UNL     1      -5.721   6.269  11.762  1.00  0.00     0.103 A 
HETATM   20  C   UNL     1      -5.610   7.395  10.955  1.00  0.00     0.078 A 
HETATM   21  C   UNL     1      -6.326   6.387  13.021  1.00  0.00     0.034 A 
HETATM   22  N   UNL     1      -4.968   6.935   9.834  1.00  0.00    -0.187 N 
HETATM   23  C   UNL     1      -6.084   8.655  11.322  1.00  0.00     0.032 A 
HETATM   24  H   UNL     1      -4.721   7.488   9.029  1.00  0.00     0.184 HD
HETATM   25  C   UNL     1      -6.686   8.754  12.582  1.00  0.00     0.002 A 
HETATM   26  C   UNL     1      -6.804   7.642  13.421  1.00  0.00     0.002 A 
ENDBRANCH  14  17
ENDBRANCH   9  13
BRANCH   7  27
HETATM   27  C   UNL     1      -1.768  -0.400   7.099  1.00  0.00     0.090 A 
HETATM   28  C   UNL     1      -2.994  -1.281   7.072  1.00  0.00     0.028 A 
HETATM   29  C   UNL     1      -2.061  -1.270   5.902  1.00  0.00     0.028 A 
ENDBRANCH   7  27
BRANCH   1  30
HETATM   30  N   UNL     1       2.080   1.424   4.107  1.00  0.00    -0.375 N 
HETATM   31  C   UNL     1       2.823   0.339   4.785  1.00  0.00     0.150 C 
HETATM   32  C   UNL     1       4.067   0.897   5.511  1.00  0.00     0.254 C 
HETATM   33  N   UNL     1       4.965   1.671   4.537  1.00  0.00    -0.068 N 
HETATM   34  H   UNL     1       5.265   1.013   3.805  1.00  0.00     0.280 HD
HETATM   35  C   UNL     1       4.161   2.775   3.825  1.00  0.00     0.254 C 
HETATM   36  C   UNL     1       2.907   2.180   3.144  1.00  0.00     0.150 C 
BRANCH  33  37
HETATM   37  C   UNL     1       6.201   2.241   5.192  1.00  0.00     0.230 C 
HETATM   38  C   UNL     1       7.182   1.139   5.546  1.00  0.00     0.034 C 
ENDBRANCH  33  37
ENDBRANCH   1  30
TORSDOF 5
