REMARK  9 active torsions:
REMARK  status: ('A' for Active; 'I' for Inactive)
REMARK    1  A    between atoms: C_4  and  C_5 
REMARK    2  A    between atoms: C_11  and  C_12 
REMARK    3  A    between atoms: C_15  and  C_16 
REMARK    4  A    between atoms: C_16  and  N_17 
REMARK    5  A    between atoms: N_17  and  C_18 
REMARK    6  A    between atoms: C_18  and  N_19 
REMARK    7  A    between atoms: N_19  and  C_20 
REMARK    8  A    between atoms: C_22  and  C_23 
REMARK    9  A    between atoms: C_23  and  O_24 
ROOT
HETATM    1  C   UNL     1       3.262  -2.653   0.778  1.00  0.00     0.067 C 
HETATM    2  C   UNL     1       2.959  -4.103   0.308  1.00  0.00     0.001 C 
HETATM    3  C   UNL     1       1.592  -4.180  -0.411  1.00  0.00     0.040 C 
HETATM    4  C   UNL     1       0.452  -3.819   0.554  1.00  0.00     0.206 C 
HETATM    5  N   UNL     1       1.088  -3.280   1.840  1.00  0.00    -0.065 N 
HETATM    6  H   UNL     1       0.337  -2.927   2.450  1.00  0.00     0.280 HD
HETATM    7  C   UNL     1       2.057  -2.135   1.594  1.00  0.00     0.246 C 
HETATM    8  C   UNL     1       2.857  -4.983   1.576  1.00  0.00     0.033 C 
HETATM    9  C   UNL     1       1.813  -4.414   2.545  1.00  0.00     0.236 C 
ENDROOT
BRANCH   4  10
HETATM   10  C   UNL     1      -0.635  -2.882  -0.011  1.00  0.00     0.155 C 
BRANCH  10  11
HETATM   11  N   UNL     1      -0.135  -1.645  -0.600  1.00  0.00    -0.365 N 
HETATM   12  H   UNL     1       0.533  -1.737  -1.357  1.00  0.00     0.161 HD
BRANCH  11  13
HETATM   13  C   UNL     1      -0.804  -0.450  -0.627  1.00  0.00     0.172 C 
HETATM   14  S   UNL     1      -1.681   0.152   0.658  1.00  0.00    -0.041 SA
BRANCH  13  15
HETATM   15  N   UNL     1      -0.614   0.326  -1.739  1.00  0.00    -0.333 N 
HETATM   16  H   UNL     1      -0.855   1.306  -1.610  1.00  0.00     0.168 HD
BRANCH  15  17
HETATM   17  C   UNL     1      -0.259  -0.047  -3.056  1.00  0.00     0.035 A 
HETATM   18  C   UNL     1      -0.373  -1.355  -3.532  1.00  0.00     0.047 A 
HETATM   19  C   UNL     1       0.043  -1.694  -4.826  1.00  0.00     0.041 A 
HETATM   20  C   UNL     1       0.519  -0.701  -5.681  1.00  0.00     0.018 A 
HETATM   21  C   UNL     1       0.575   0.622  -5.235  1.00  0.00     0.003 A 
HETATM   22  C   UNL     1       0.184   0.947  -3.930  1.00  0.00     0.029 A 
BRANCH  19  23
HETATM   23  C   UNL     1      -0.011  -3.131  -5.194  1.00  0.00     0.293 C 
HETATM   24  O   UNL     1      -0.076  -4.020  -4.355  1.00  0.00    -0.259 OA
BRANCH  23  25
HETATM   25  O   UNL     1       0.003  -3.284  -6.537  1.00  0.00    -0.323 OA
HETATM   26  C   UNL     1      -0.098  -4.643  -6.968  1.00  0.00     0.213 C 
ENDBRANCH  23  25
ENDBRANCH  19  23
ENDBRANCH  15  17
ENDBRANCH  13  15
ENDBRANCH  11  13
ENDBRANCH  10  11
ENDBRANCH   4  10
BRANCH   1  27
HETATM   27  C   UNL     1       3.680  -1.703  -0.312  1.00  0.00     0.038 A 
HETATM   28  N   UNL     1       4.180  -0.440  -0.066  1.00  0.00    -0.277 N 
HETATM   29  C   UNL     1       4.416   0.207   1.206  1.00  0.00     0.179 C 
HETATM   30  N   UNL     1       4.479   0.243  -1.177  1.00  0.00    -0.172 NA
HETATM   31  C   UNL     1       4.282  -0.621  -2.176  1.00  0.00     0.096 A 
HETATM   32  C   UNL     1       3.763  -1.842  -1.688  1.00  0.00     0.062 A 
BRANCH  31  33
HETATM   33  C   UNL     1       4.616  -0.280  -3.597  1.00  0.00     0.035 A 
HETATM   34  S   UNL     1       4.362  -1.320  -4.929  1.00  0.00    -0.100 SA
HETATM   35  C   UNL     1       5.042  -0.191  -6.021  1.00  0.00     0.050 A 
HETATM   36  C   UNL     1       5.448   0.962  -5.385  1.00  0.00     0.008 A 
HETATM   37  C   UNL     1       5.193   0.913  -3.983  1.00  0.00     0.022 A 
ENDBRANCH  31  33
ENDBRANCH   1  27
TORSDOF 9
