REMARK  5 active torsions:
REMARK  status: ('A' for Active; 'I' for Inactive)
REMARK    1  A    between atoms: C_2  and  C_3 
REMARK    2  A    between atoms: C_3  and  N_4 
REMARK       I    between atoms: N_4  and  C_5 
REMARK    3  A    between atoms: C_5  and  C_6 
REMARK    4  A    between atoms: C_7  and  O_8 
REMARK    5  A    between atoms: O_8  and  C_9 
ROOT
HETATM    1  C   UNL     1       1.731   0.591  -0.183  1.00  0.00     0.121 C 
HETATM    2  C   UNL     1       2.387   1.892  -0.517  1.00  0.00     0.091 C 
HETATM    3  N   UNL     1       2.928   2.891  -0.755  1.00  0.00    -0.195 NA
HETATM    4  C   UNL     1       1.289  -0.050  -1.515  1.00  0.00     0.055 C 
ENDROOT
BRANCH   1   5
HETATM    5  C   UNL     1       0.510   0.838   0.774  1.00  0.00     0.020 C 
HETATM    6  C   UNL     1      -0.609   1.687   0.152  1.00  0.00     0.013 C 
HETATM    7  C   UNL     1       0.922   1.462   2.119  1.00  0.00     0.013 C 
ENDBRANCH   1   5
BRANCH   1   8
HETATM    8  N   UNL     1       2.746  -0.269   0.472  1.00  0.00    -0.335 N 
HETATM    9  C   UNL     1       2.527  -1.563   0.882  1.00  0.00     0.257 C 
HETATM   10  O   UNL     1       1.467  -2.150   0.693  1.00  0.00    -0.267 OA
HETATM   11  H   UNL     1       3.646   0.157   0.672  1.00  0.00     0.164 HD
BRANCH   9  12
HETATM   12  C   UNL     1       3.610  -2.249   1.638  1.00  0.00     0.085 A 
HETATM   13  C   UNL     1       4.956  -1.887   1.622  1.00  0.00     0.185 A 
HETATM   14  N   UNL     1       5.906  -2.510   2.370  1.00  0.00    -0.236 NA
HETATM   15  C   UNL     1       5.516  -3.553   3.132  1.00  0.00     0.119 A 
HETATM   16  C   UNL     1       4.212  -4.008   3.192  1.00  0.00     0.020 A 
HETATM   17  C   UNL     1       3.250  -3.346   2.434  1.00  0.00     0.023 A 
BRANCH  13  18
HETATM   18  O   UNL     1       5.343  -0.807   0.836  1.00  0.00    -0.291 OA
BRANCH  18  19
HETATM   19  C   UNL     1       6.675  -0.696   0.513  1.00  0.00     0.078 A 
HETATM   20  C   UNL     1       7.367  -1.711  -0.153  1.00  0.00     0.039 A 
HETATM   21  C   UNL     1       8.709  -1.527  -0.495  1.00  0.00     0.026 A 
HETATM   22  C   UNL     1       9.341  -0.322  -0.192  1.00  0.00     0.034 A 
HETATM   23 CL   UNL     1      10.995  -0.098  -0.611  1.00  0.00    -0.084 Cl
HETATM   24  C   UNL     1       8.643   0.705   0.442  1.00  0.00     0.026 A 
HETATM   25  C   UNL     1       7.302   0.521   0.788  1.00  0.00     0.039 A 
ENDBRANCH  18  19
ENDBRANCH  13  18
ENDBRANCH   9  12
ENDBRANCH   1   8
TORSDOF 5
