REMARK  13 active torsions:
REMARK  status: ('A' for Active; 'I' for Inactive)
REMARK    1  A    between atoms: O_2  and  C_3 
REMARK    2  A    between atoms: C_6  and  C_7 
REMARK    3  A    between atoms: C_7  and  C_8 
REMARK    4  A    between atoms: C_9  and  C_10 
REMARK    5  A    between atoms: N_17  and  C_18 
REMARK    6  A    between atoms: C_18  and  C_19 
REMARK    7  A    between atoms: C_19  and  O_20 
REMARK    8  A    between atoms: C_19  and  C_21 
REMARK    9  A    between atoms: C_21  and  N_22 
REMARK   10  A    between atoms: N_22  and  C_25 
REMARK   11  A    between atoms: C_25  and  C_26 
REMARK   12  A    between atoms: C_26  and  C_27 
REMARK   13  A    between atoms: C_32  and  O_33 
ROOT
HETATM    1  C   UNL     1       0.648   9.674  -1.371  1.00  0.00     0.162 C 
ENDROOT
BRANCH   1   2
HETATM    2  N   UNL     1       1.706   8.852  -1.939  1.00  0.00    -0.353 N 
HETATM    3  C   UNL     1       2.705   8.229  -1.221  1.00  0.00     0.045 A 
HETATM    4  C   UNL     1       3.454   7.472  -2.134  1.00  0.00     0.002 A 
HETATM    5  C   UNL     1       3.000   8.247   0.155  1.00  0.00     0.030 A 
HETATM    6  C   UNL     1       2.894   7.707  -3.431  1.00  0.00    -0.008 A 
HETATM    7  C   UNL     1       4.511   6.682  -1.625  1.00  0.00     0.014 A 
HETATM    8  C   UNL     1       1.816   8.553  -3.269  1.00  0.00     0.103 A 
HETATM    9  C   UNL     1       4.811   6.698  -0.259  1.00  0.00     0.001 A 
HETATM   10  C   UNL     1       4.067   7.477   0.617  1.00  0.00     0.002 A 
BRANCH   6  11
HETATM   11  C   UNL     1       3.269   7.203  -4.716  1.00  0.00     0.018 C 
HETATM   12  C   UNL     1       4.469   6.711  -5.062  1.00  0.00     0.056 C 
BRANCH  12  13
HETATM   13  C   UNL     1       4.685   6.195  -6.443  1.00  0.00     0.182 C 
HETATM   14  O   UNL     1       3.805   6.271  -7.296  1.00  0.00    -0.288 OA
BRANCH  13  15
HETATM   15  C   UNL     1       5.975   5.516  -6.758  1.00  0.00     0.014 A 
HETATM   16  C   UNL     1       7.163   5.759  -6.059  1.00  0.00     0.018 A 
HETATM   17  C   UNL     1       8.324   5.049  -6.386  1.00  0.00     0.037 A 
HETATM   18  C   UNL     1       8.322   4.101  -7.411  1.00  0.00     0.068 A 
HETATM   19  C   UNL     1       7.150   3.882  -8.133  1.00  0.00     0.037 A 
HETATM   20  C   UNL     1       5.984   4.588  -7.809  1.00  0.00     0.018 A 
BRANCH  18  21
HETATM   21  O   UNL     1       9.519   3.472  -7.609  1.00  0.00    -0.356 OA
HETATM   22  C   UNL     1       9.542   2.416  -8.562  1.00  0.00     0.210 C 
ENDBRANCH  18  21
ENDBRANCH  13  15
ENDBRANCH  12  13
ENDBRANCH   6  11
ENDBRANCH   1   2
BRANCH   1  23
HETATM   23  C   UNL     1      -0.624   8.860  -1.087  1.00  0.00     0.162 C 
BRANCH  23  24
HETATM   24  O   UNL     1      -0.384   7.871  -0.083  1.00  0.00    -0.392 OA
HETATM   25  H   UNL     1       0.297   7.244  -0.407  1.00  0.00     0.210 HD
ENDBRANCH  23  24
BRANCH  23  26
HETATM   26  C   UNL     1      -1.759   9.746  -0.537  1.00  0.00     0.265 C 
BRANCH  26  27
HETATM   27  N   UNL     1      -2.367  10.644  -1.574  1.00  0.00    -0.072 N 
HETATM   28  H   UNL     1      -1.681  11.304  -1.962  1.00  0.00     0.277 HD
HETATM   29  H   UNL     1      -2.687  10.064  -2.363  1.00  0.00     0.277 HD
BRANCH  27  30
HETATM   30  C   UNL     1      -3.568  11.426  -1.096  1.00  0.00     0.237 C 
BRANCH  30  31
HETATM   31  C   UNL     1      -3.173  12.509  -0.090  1.00  0.00     0.068 C 
BRANCH  31  32
HETATM   32  C   UNL     1      -4.343  13.336   0.320  1.00  0.00    -0.029 A 
HETATM   33  C   UNL     1      -5.379  12.953   1.232  1.00  0.00     0.001 A 
HETATM   34  C   UNL     1      -6.265  14.024   1.329  1.00  0.00     0.043 A 
HETATM   35  C   UNL     1      -5.647  11.794   1.988  1.00  0.00     0.051 A 
HETATM   36  C   UNL     1      -7.405  13.989   2.140  1.00  0.00     0.033 A 
HETATM   37  N   UNL     1      -5.785  15.027   0.522  1.00  0.00    -0.365 N 
HETATM   38  C   UNL     1      -7.650  12.821   2.875  1.00  0.00     0.039 A 
HETATM   39  C   UNL     1      -6.785  11.732   2.806  1.00  0.00     0.069 A 
HETATM   40  H   UNL     1      -6.222  15.934   0.414  1.00  0.00     0.165 HD
HETATM   41  C   UNL     1      -4.631  14.621  -0.098  1.00  0.00     0.096 A 
BRANCH  39  42
HETATM   42  O   UNL     1      -6.927  10.547   3.477  1.00  0.00    -0.356 OA
HETATM   43  C   UNL     1      -8.029  10.442   4.371  1.00  0.00     0.210 C 
ENDBRANCH  39  42
ENDBRANCH  31  32
ENDBRANCH  30  31
ENDBRANCH  27  30
ENDBRANCH  26  27
ENDBRANCH  23  26
ENDBRANCH   1  23
TORSDOF 13
