REMARK  11 active torsions:
REMARK  status: ('A' for Active; 'I' for Inactive)
REMARK    1  A    between atoms: N_2  and  C_4 
REMARK    2  A    between atoms: C_4  and  C_5 
REMARK    3  A    between atoms: C_5  and  C_6 
REMARK    4  A    between atoms: C_6  and  N_7 
REMARK    5  A    between atoms: N_7  and  C_8 
REMARK    6  A    between atoms: N_7  and  C_21 
REMARK    7  A    between atoms: C_8  and  N_9 
REMARK    8  A    between atoms: N_9  and  C_10 
REMARK    9  A    between atoms: C_11  and  C_12 
REMARK   10  A    between atoms: C_12  and  O_13 
REMARK   11  A    between atoms: C_21  and  C_22 
ROOT
HETATM    1  N   UNL     1       2.661  -4.378   0.980  1.00  0.00    -0.354 N 
ENDROOT
BRANCH   1   2
HETATM    2  C   UNL     1       2.474  -3.329  -0.043  1.00  0.00     0.127 C 
BRANCH   2   3
HETATM    3  C   UNL     1       2.928  -1.916   0.353  1.00  0.00     0.047 C 
BRANCH   3   4
HETATM    4  C   UNL     1       4.354  -1.870   0.895  1.00  0.00     0.235 C 
BRANCH   4   5
HETATM    5  N   UNL     1       4.627  -0.515   1.533  1.00  0.00    -0.079 N 
HETATM    6  C   UNL     1       4.778   0.601   0.538  1.00  0.00     0.269 C 
HETATM    7  H   UNL     1       3.816  -0.292   2.126  1.00  0.00     0.278 HD
HETATM    8  C   UNL     1       5.807  -0.578   2.468  1.00  0.00     0.269 C 
ENDBRANCH   4   5
ENDBRANCH   3   4
ENDBRANCH   2   3
ENDBRANCH   1   2
BRANCH   1   9
HETATM    9  C   UNL     1       2.356  -4.219   2.361  1.00  0.00     0.174 C 
HETATM   10  S   UNL     1       3.136  -5.118   3.540  1.00  0.00    -0.041 SA
BRANCH   9  11
HETATM   11  N   UNL     1       1.358  -3.275   2.560  1.00  0.00    -0.332 N 
HETATM   12  H   UNL     1       0.823  -3.100   1.710  1.00  0.00     0.168 HD
BRANCH  11  13
HETATM   13  C   UNL     1       0.667  -2.822   3.720  1.00  0.00     0.050 A 
HETATM   14  C   UNL     1      -0.659  -2.331   3.576  1.00  0.00     0.066 A 
HETATM   15  C   UNL     1      -1.381  -1.897   4.701  1.00  0.00     0.020 A 
HETATM   16  C   UNL     1      -0.799  -1.934   5.965  1.00  0.00     0.001 A 
HETATM   17  C   UNL     1       0.509  -2.384   6.109  1.00  0.00     0.002 A 
HETATM   18  C   UNL     1       1.238  -2.815   4.996  1.00  0.00     0.030 A 
BRANCH  14  19
HETATM   19  C   UNL     1      -1.299  -2.277   2.229  1.00  0.00     0.295 C 
HETATM   20  O   UNL     1      -0.647  -2.299   1.192  1.00  0.00    -0.259 OA
BRANCH  19  21
HETATM   21  O   UNL     1      -2.647  -2.257   2.321  1.00  0.00    -0.322 OA
HETATM   22  C   UNL     1      -3.339  -2.271   1.068  1.00  0.00     0.213 C 
ENDBRANCH  19  21
ENDBRANCH  14  19
ENDBRANCH  11  13
ENDBRANCH   9  11
ENDBRANCH   1   9
BRANCH   1  23
HETATM   23  C   UNL     1       2.792  -5.762   0.435  1.00  0.00     0.169 C 
BRANCH  23  24
HETATM   24  C   UNL     1       1.462  -6.462   0.257  1.00  0.00     0.029 A 
HETATM   25  C   UNL     1       1.576  -7.841  -0.323  1.00  0.00     0.253 A 
HETATM   26  O   UNL     1       2.663  -8.287  -0.677  1.00  0.00    -0.268 OA
HETATM   27  N   UNL     1       0.424  -8.574  -0.449  1.00  0.00    -0.322 N 
HETATM   28  C   UNL     1      -0.842  -8.109  -0.074  1.00  0.00     0.048 A 
HETATM   29  H   UNL     1       0.530  -9.507  -0.828  1.00  0.00     0.169 HD
HETATM   30  C   UNL     1      -0.959  -6.814   0.439  1.00  0.00    -0.006 A 
HETATM   31  C   UNL     1      -1.965  -8.927  -0.196  1.00  0.00     0.070 A 
HETATM   32  C   UNL     1      -2.208  -6.330   0.836  1.00  0.00     0.053 A 
HETATM   33  C   UNL     1       0.242  -5.996   0.578  1.00  0.00     0.028 A 
HETATM   34  C   UNL     1      -3.333  -7.141   0.713  1.00  0.00     0.103 A 
HETATM   35  C   UNL     1      -3.208  -8.444   0.219  1.00  0.00     0.104 A 
HETATM   36  O   UNL     1      -4.524  -6.594   1.116  1.00  0.00    -0.346 OA
HETATM   37  O   UNL     1      -4.271  -9.305   0.116  1.00  0.00    -0.346 OA
HETATM   38  C   UNL     1      -5.380  -8.860   0.907  1.00  0.00     0.202 C 
HETATM   39  C   UNL     1      -5.640  -7.380   0.680  1.00  0.00     0.202 C 
ENDBRANCH  23  24
ENDBRANCH   1  23
TORSDOF 11
