REMARK  5 active torsions:
REMARK  status: ('A' for Active; 'I' for Inactive)
REMARK    1  A    between atoms: C_2  and  O_3 
REMARK    2  A    between atoms: C_2  and  C_5 
REMARK    3  A    between atoms: C_7  and  N_8 
REMARK    4  A    between atoms: N_8  and  C_9 
REMARK    5  A    between atoms: C_9  and  C_10 
ROOT
HETATM    1  N   UNL     1       4.835  -0.587   4.393  1.00  0.00    -0.289 NA
HETATM    2  H   UNL     1       5.719  -0.226   4.034  1.00  0.00     0.128 HD
ENDROOT
BRANCH   1   3
HETATM    3  C   UNL     1       4.097  -1.166   3.356  1.00  0.00     0.009 A 
HETATM    4  C   UNL     1       3.825  -0.367   2.232  1.00  0.00     0.033 A 
HETATM    5  C   UNL     1       3.051  -0.829   1.154  1.00  0.00    -0.028 A 
HETATM    6  C   UNL     1       2.549  -2.137   1.220  1.00  0.00     0.010 A 
HETATM    7  C   UNL     1       2.809  -2.946   2.324  1.00  0.00     0.002 A 
HETATM    8  C   UNL     1       3.568  -2.458   3.389  1.00  0.00     0.023 A 
BRANCH   5   9
HETATM    9  C   UNL     1       2.689   0.031  -0.046  1.00  0.00     0.149 C 
HETATM   10  C   UNL     1       3.497   1.320  -0.199  1.00  0.00     0.045 C 
BRANCH   9  11
HETATM   11  O   UNL     1       1.297   0.345   0.088  1.00  0.00    -0.386 OA
HETATM   12  C   UNL     1       0.651   0.606  -1.149  1.00  0.00     0.202 C 
ENDBRANCH   9  11
ENDBRANCH   5   9
ENDBRANCH   1   3
BRANCH   1  13
HETATM   13  C   UNL     1       5.018  -1.292   5.659  1.00  0.00     0.133 C 
BRANCH  13  14
HETATM   14  C   UNL     1       5.616  -0.356   6.687  1.00  0.00    -0.016 A 
HETATM   15  C   UNL     1       5.406   1.035   6.706  1.00  0.00     0.069 A 
HETATM   16  C   UNL     1       5.933   1.890   7.665  1.00  0.00     0.012 A 
HETATM   17  N   UNL     1       4.690   1.846   5.859  1.00  0.00    -0.277 N 
HETATM   18  C   UNL     1       5.497   3.175   7.272  1.00  0.00     0.152 A 
HETATM   19  C   UNL     1       6.707   1.356   8.707  1.00  0.00     0.015 A 
HETATM   20  N   UNL     1       4.747   3.155   6.167  1.00  0.00    -0.186 NA
HETATM   21  C   UNL     1       6.914  -0.028   8.745  1.00  0.00     0.002 A 
HETATM   22  C   UNL     1       6.378  -0.862   7.760  1.00  0.00     0.011 A 
HETATM   23  H   UNL     1       4.167   1.543   5.042  1.00  0.00     0.189 HD
ENDBRANCH  13  14
ENDBRANCH   1  13
TORSDOF 5
