REMARK  8 active torsions:
REMARK  status: ('A' for Active; 'I' for Inactive)
REMARK    1  A    between atoms: C_4  and  C_5 
REMARK    2  A    between atoms: C_5  and  C_6 
REMARK    3  A    between atoms: C_6  and  C_7 
REMARK    4  A    between atoms: C_7  and  N_8 
REMARK    5  A    between atoms: C_17  and  C_18 
REMARK    6  A    between atoms: C_18  and  N_19 
REMARK    7  A    between atoms: C_23  and  O_24 
REMARK    8  A    between atoms: C_23  and  C_25 
ROOT
HETATM    1  N   UNL     1       4.206   4.215   2.480  1.00  0.00    -0.065 N 
HETATM    2  H   UNL     1       3.406   4.802   2.751  1.00  0.00     0.280 HD
HETATM    3  C   UNL     1       4.337   3.169   3.569  1.00  0.00     0.276 C 
HETATM    4  C   UNL     1       5.318   2.070   3.262  1.00  0.00     0.001 A 
HETATM    5  C   UNL     1       6.678   2.370   3.160  1.00  0.00     0.076 A 
HETATM    6  O   UNL     1       7.121   3.651   3.334  1.00  0.00    -0.349 OA
HETATM    7  C   UNL     1       6.742   4.488   2.230  1.00  0.00     0.203 C 
HETATM    8  C   UNL     1       5.396   5.179   2.482  1.00  0.00     0.261 C 
HETATM    9  C   UNL     1       4.907   0.741   3.053  1.00  0.00     0.020 A 
HETATM   10  C   UNL     1       5.841  -0.270   2.747  1.00  0.00    -0.032 A 
HETATM   11  C   UNL     1       7.204   0.060   2.699  1.00  0.00     0.011 A 
HETATM   12  C   UNL     1       7.619   1.375   2.918  1.00  0.00     0.038 A 
ENDROOT
BRANCH  10  13
HETATM   13  C   UNL     1       5.382  -1.675   2.436  1.00  0.00     0.273 C 
BRANCH  13  14
HETATM   14  N   UNL     1       5.732  -2.727   3.472  1.00  0.00    -0.067 N 
HETATM   15  H   UNL     1       6.760  -2.741   3.546  1.00  0.00     0.280 HD
HETATM   16  C   UNL     1       5.193  -2.401   4.844  1.00  0.00     0.238 C 
HETATM   17  C   UNL     1       5.544  -3.509   5.819  1.00  0.00     0.071 C 
HETATM   18  C   UNL     1       4.956  -4.865   5.382  1.00  0.00     0.089 C 
HETATM   19  C   UNL     1       5.572  -5.173   4.004  1.00  0.00     0.071 C 
HETATM   20  C   UNL     1       5.298  -4.090   2.973  1.00  0.00     0.238 C 
BRANCH  18  21
HETATM   21  O   UNL     1       5.478  -5.842   6.282  1.00  0.00    -0.385 OA
HETATM   22  H   UNL     1       4.771  -6.453   6.565  1.00  0.00     0.211 HD
ENDBRANCH  18  21
BRANCH  18  23
HETATM   23  C   UNL     1       3.434  -4.901   5.464  1.00  0.00    -0.006 A 
HETATM   24  C   UNL     1       2.625  -5.444   4.467  1.00  0.00     0.126 A 
HETATM   25  N   UNL     1       1.275  -5.414   4.471  1.00  0.00    -0.272 NA
HETATM   26  C   UNL     1       0.668  -4.905   5.560  1.00  0.00     0.116 A 
HETATM   27  C   UNL     1       1.363  -4.402   6.642  1.00  0.00     0.020 A 
HETATM   28  C   UNL     1       2.756  -4.406   6.591  1.00  0.00     0.013 A 
ENDBRANCH  18  23
ENDBRANCH  13  14
ENDBRANCH  10  13
BRANCH   1  29
HETATM   29  C   UNL     1       3.880   3.687   1.088  1.00  0.00     0.236 C 
BRANCH  29  30
HETATM   30  C   UNL     1       2.494   3.035   1.056  1.00  0.00     0.039 C 
BRANCH  30  31
HETATM   31  C   UNL     1       2.185   2.234  -0.225  1.00  0.00     0.040 C 
HETATM   32  C   UNL     1       3.086   1.006  -0.385  1.00  0.00     0.017 C 
BRANCH  31  33
HETATM   33  C   UNL     1       2.213   3.085  -1.445  1.00  0.00     0.057 A 
HETATM   34  O   UNL     1       3.423   3.586  -1.823  1.00  0.00    -0.319 OA
HETATM   35  C   UNL     1       3.218   4.298  -2.968  1.00  0.00     0.049 A 
HETATM   36  C   UNL     1       4.402   4.924  -3.593  1.00  0.00     0.076 C 
HETATM   37  C   UNL     1       1.886   4.263  -3.316  1.00  0.00     0.035 A 
HETATM   38  C   UNL     1       1.236   3.481  -2.333  1.00  0.00     0.035 A 
ENDBRANCH  31  33
ENDBRANCH  30  31
ENDBRANCH  29  30
ENDBRANCH   1  29
TORSDOF 8
