REMARK  7 active torsions:
REMARK  status: ('A' for Active; 'I' for Inactive)
REMARK    1  A    between atoms: C_5  and  N_6 
REMARK    2  A    between atoms: C_7  and  S_8 
REMARK    3  A    between atoms: S_8  and  C_9 
REMARK    4  A    between atoms: C_9  and  C_10 
REMARK       I    between atoms: C_10  and  N_11 
REMARK    5  A    between atoms: C_13  and  C_14 
REMARK    6  A    between atoms: C_14  and  N_15 
REMARK       I    between atoms: N_15  and  C_16 
REMARK       I    between atoms: C_16  and  N_17 
REMARK    7  A    between atoms: N_17  and  C_18 
ROOT
HETATM    1  C   UNL     1      10.502  -0.694  -1.114  1.00  0.00     0.229 C 
HETATM    2  N   UNL     1       9.830   0.529  -1.159  1.00  0.00    -0.351 N 
HETATM    3  C   UNL     1      10.021   1.616  -0.199  1.00  0.00     0.132 C 
HETATM    4  C   UNL     1       9.952   2.989  -0.883  1.00  0.00     0.021 C 
HETATM    5  C   UNL     1       8.631   3.114  -1.659  1.00  0.00     0.009 C 
HETATM    6  C   UNL     1       8.422   1.951  -2.630  1.00  0.00     0.020 C 
HETATM    7  C   UNL     1       8.600   0.598  -1.947  1.00  0.00     0.126 C 
HETATM    8  O   UNL     1      10.348  -1.541  -2.002  1.00  0.00    -0.273 OA
ENDROOT
BRANCH   1   9
HETATM    9  C   UNL     1      11.505  -0.958   0.002  1.00  0.00     0.185 C 
BRANCH   9  10
HETATM   10  S   UNL     1      10.711  -1.176   1.623  1.00  0.00    -0.082 SA
BRANCH  10  11
HETATM   11  C   UNL     1       9.756  -2.593   1.313  1.00  0.00     0.173 A 
HETATM   12  N   UNL     1      10.137  -3.884   1.645  1.00  0.00    -0.299 N 
HETATM   13  C   UNL     1       9.213  -4.705   1.025  1.00  0.00     0.118 A 
HETATM   14  C   UNL     1       8.313  -3.870   0.409  1.00  0.00     0.137 A 
HETATM   15  N   UNL     1       8.650  -2.560   0.604  1.00  0.00    -0.235 NA
BRANCH  12  16
HETATM   16  C   UNL     1      11.166  -4.328   2.523  1.00  0.00     0.047 A 
HETATM   17  C   UNL     1      12.000  -5.429   2.206  1.00  0.00    -0.029 A 
HETATM   18  C   UNL     1      12.892  -5.908   3.198  1.00  0.00    -0.054 A 
HETATM   19  C   UNL     1      11.998  -6.075   0.841  1.00  0.00     0.051 C 
HETATM   20  C   UNL     1      13.796  -7.090   2.958  1.00  0.00     0.049 C 
HETATM   21  C   UNL     1      12.988  -5.244   4.432  1.00  0.00     0.007 A 
HETATM   22  C   UNL     1      12.194  -4.137   4.711  1.00  0.00     0.003 A 
HETATM   23  C   UNL     1      11.280  -3.684   3.766  1.00  0.00     0.030 A 
ENDBRANCH  12  16
ENDBRANCH  10  11
ENDBRANCH   9  10
ENDBRANCH   1   9
BRANCH   4  24
HETATM   24  C   UNL     1      11.159   3.243  -1.808  1.00  0.00     0.130 C 
BRANCH  24  25
HETATM   25  N   UNL     1      12.420   3.242  -1.083  1.00  0.00    -0.342 N 
HETATM   26  C   UNL     1      13.498   2.409  -1.136  1.00  0.00     0.320 C 
HETATM   27  N   UNL     1      13.465   1.426  -2.084  1.00  0.00    -0.309 N 
HETATM   28  O   UNL     1      14.397   2.607  -0.326  1.00  0.00    -0.247 OA
HETATM   29  H   UNL     1      12.722   1.473  -2.761  1.00  0.00     0.170 HD
HETATM   30  H   UNL     1      12.552   3.960  -0.380  1.00  0.00     0.164 HD
BRANCH  27  31
HETATM   31  C   UNL     1      14.431   0.424  -2.323  1.00  0.00     0.039 A 
HETATM   32  C   UNL     1      15.541   0.198  -1.509  1.00  0.00     0.071 A 
HETATM   33  C   UNL     1      16.443  -0.814  -1.833  1.00  0.00     0.118 A 
HETATM   34  F   UNL     1      17.506  -1.025  -1.045  1.00  0.00    -0.206 F 
HETATM   35  C   UNL     1      16.264  -1.609  -2.958  1.00  0.00     0.042 A 
HETATM   36  C   UNL     1      15.157  -1.397  -3.773  1.00  0.00     0.005 A 
HETATM   37  C   UNL     1      14.242  -0.388  -3.452  1.00  0.00     0.030 A 
ENDBRANCH  27  31
ENDBRANCH  24  25
ENDBRANCH   4  24
TORSDOF 7
