REMARK  5 active torsions:
REMARK  status: ('A' for Active; 'I' for Inactive)
REMARK    1  A    between atoms: C_2  and  N_3 
REMARK    2  A    between atoms: C_2  and  C_16 
REMARK    3  A    between atoms: N_3  and  C_6 
REMARK    4  A    between atoms: C_6  and  C_7 
REMARK    5  A    between atoms: C_19  and  C_20 
ROOT
HETATM    1  C   UNL     1       2.931  -1.558  -0.331  1.00  0.00     0.049 C 
HETATM    2  C   UNL     1       2.481  -0.180   0.145  1.00  0.00     0.260 C 
ENDROOT
BRANCH   2   3
HETATM    3  N   UNL     1       3.015   0.872  -0.797  1.00  0.00    -0.060 N 
HETATM    4  H   UNL     1       2.825   1.793  -0.368  1.00  0.00     0.278 HD
HETATM    5  H   UNL     1       4.042   0.825  -0.822  1.00  0.00     0.278 HD
BRANCH   3   6
HETATM    6  C   UNL     1       2.459   0.907  -2.174  1.00  0.00     0.274 C 
BRANCH   6   7
HETATM    7  C   UNL     1       2.957   2.087  -2.946  1.00  0.00     0.004 A 
HETATM    8  C   UNL     1       2.747   3.380  -2.491  1.00  0.00     0.113 A 
HETATM    9  C   UNL     1       3.173   4.484  -3.190  1.00  0.00     0.105 A 
HETATM   10  O   UNL     1       2.133   3.713  -1.320  1.00  0.00    -0.322 OA
HETATM   11  O   UNL     1       2.865   5.647  -2.562  1.00  0.00    -0.323 OA
HETATM   12  C   UNL     1       3.842   4.367  -4.388  1.00  0.00     0.040 A 
HETATM   13  C   UNL     1       2.150   5.165  -1.411  1.00  0.00     0.352 A 
HETATM   14  C   UNL     1       4.072   3.081  -4.880  1.00  0.00     0.003 A 
HETATM   15  C   UNL     1       3.632   1.948  -4.169  1.00  0.00     0.012 A 
ENDBRANCH   6   7
ENDBRANCH   3   6
ENDBRANCH   2   3
BRANCH   2  16
HETATM   16  C   UNL     1       2.964   0.078   1.533  1.00  0.00     0.203 A 
HETATM   17  O   UNL     1       2.412  -0.649   2.537  1.00  0.00    -0.194 OA
HETATM   18  N   UNL     1       3.040  -0.239   3.705  1.00  0.00    -0.106 NA
HETATM   19  C   UNL     1       3.908   0.705   3.303  1.00  0.00     0.189 A 
HETATM   20  N   UNL     1       3.872   0.939   1.937  1.00  0.00    -0.202 NA
BRANCH  19  21
HETATM   21  C   UNL     1       4.813   1.418   4.198  1.00  0.00     0.017 A 
HETATM   22  C   UNL     1       5.602   2.468   3.712  1.00  0.00     0.057 A 
HETATM   23  C   UNL     1       6.468   3.141   4.569  1.00  0.00     0.117 A 
HETATM   24  F   UNL     1       7.213   4.144   4.088  1.00  0.00    -0.206 F 
HETATM   25  C   UNL     1       6.572   2.791   5.909  1.00  0.00     0.042 A 
HETATM   26  C   UNL     1       5.794   1.748   6.405  1.00  0.00     0.004 A 
HETATM   27  C   UNL     1       4.918   1.066   5.554  1.00  0.00     0.016 A 
ENDBRANCH  19  21
ENDBRANCH   2  16
TORSDOF 5
