REMARK  7 active torsions:
REMARK  status: ('A' for Active; 'I' for Inactive)
REMARK    1  A    between atoms: C_7  and  C_8 
REMARK    2  A    between atoms: C_8  and  N_9 
REMARK       I    between atoms: N_9  and  C_10 
REMARK       I    between atoms: C_10  and  N_11 
REMARK    3  A    between atoms: N_11  and  C_12 
REMARK    4  A    between atoms: C_12  and  C_13 
REMARK    5  A    between atoms: C_13  and  C_14 
REMARK    6  A    between atoms: C_14  and  O_15 
REMARK    7  A    between atoms: C_14  and  C_16 
ROOT
HETATM    1  N   UNL     1       5.347   8.166   2.733  1.00  0.00    -0.337 N 
HETATM    2  C   UNL     1       5.477   6.816   2.506  1.00  0.00     0.316 C 
HETATM    3  N   UNL     1       5.655   6.565   1.175  1.00  0.00    -0.339 N 
HETATM    4  O   UNL     1       5.428   5.977   3.398  1.00  0.00    -0.247 OA
HETATM    5  H   UNL     1       5.813   8.718   2.025  1.00  0.00     0.164 HD
HETATM    6  H   UNL     1       5.160   7.221   0.584  1.00  0.00     0.164 HD
ENDROOT
BRANCH   1   7
HETATM    7  C   UNL     1       5.374   8.710   4.077  1.00  0.00     0.183 C 
BRANCH   7   8
HETATM    8  C   UNL     1       4.176   8.307   4.855  1.00  0.00     0.044 A 
HETATM    9  N   UNL     1       3.879   6.981   5.133  1.00  0.00    -0.343 N 
HETATM   10  C   UNL     1       2.775   6.877   5.856  1.00  0.00     0.112 A 
HETATM   11  H   UNL     1       4.425   6.202   4.744  1.00  0.00     0.167 HD
HETATM   12  N   UNL     1       2.309   8.124   6.069  1.00  0.00    -0.311 N 
HETATM   13  C   UNL     1       2.084   5.682   6.390  1.00  0.00     0.049 A 
HETATM   14  C   UNL     1       1.144   8.373   6.793  1.00  0.00     0.014 A 
HETATM   15  C   UNL     1       3.166   9.028   5.453  1.00  0.00     0.125 A 
HETATM   16  C   UNL     1       0.641   9.771   6.992  1.00  0.00     0.068 C 
HETATM   17  C   UNL     1       0.505   7.289   7.288  1.00  0.00     0.025 A 
HETATM   18  C   UNL     1       0.967   5.918   7.099  1.00  0.00     0.006 A 
ENDBRANCH   7   8
ENDBRANCH   1   7
BRANCH   3  19
HETATM   19  C   UNL     1       5.726   5.225   0.591  1.00  0.00     0.085 C 
HETATM   20  C   UNL     1       6.773   4.337   1.269  1.00  0.00     0.032 C 
BRANCH  19  21
HETATM   21  C   UNL     1       4.354   4.527   0.547  1.00  0.00     0.063 C 
BRANCH  21  22
HETATM   22  C   UNL     1       3.296   5.218  -0.326  1.00  0.00     0.177 C 
BRANCH  22  23
HETATM   23  O   UNL     1       2.947   6.492   0.227  1.00  0.00    -0.389 OA
HETATM   24  H   UNL     1       2.140   6.768  -0.244  1.00  0.00     0.210 HD
ENDBRANCH  22  23
BRANCH  22  25
HETATM   25  C   UNL     1       3.736   5.438  -1.733  1.00  0.00     0.081 A 
HETATM   26  O   UNL     1       4.095   4.322  -2.432  1.00  0.00    -0.324 OA
HETATM   27  C   UNL     1       4.474   4.728  -3.671  1.00  0.00     0.142 A 
HETATM   28  C   UNL     1       4.359   6.093  -3.785  1.00  0.00     0.027 A 
HETATM   29  C   UNL     1       3.881   6.554  -2.535  1.00  0.00     0.037 A 
ENDBRANCH  22  25
ENDBRANCH  21  22
ENDBRANCH  19  21
ENDBRANCH   3  19
TORSDOF 7
