REMARK  3 active torsions:
REMARK  status: ('A' for Active; 'I' for Inactive)
REMARK    1  A    between atoms: C_3  and  N_4 
REMARK       I    between atoms: N_4  and  C_5 
REMARK    2  A    between atoms: C_5  and  C_6 
REMARK    3  A    between atoms: N_20  and  C_21 
ROOT
HETATM    1  N   UNL     1       2.887   2.360  -0.249  1.00  0.00    -0.305 N 
HETATM    2  C   UNL     1       3.836   3.362  -0.226  1.00  0.00     0.257 C 
HETATM    3  O   UNL     1       5.055   3.252  -0.265  1.00  0.00    -0.267 OA
HETATM    4  H   UNL     1       1.916   2.607  -0.341  1.00  0.00     0.170 HD
ENDROOT
BRANCH   2   5
HETATM    5  C   UNL     1       3.273   4.743  -0.198  1.00  0.00     0.034 A 
HETATM    6  C   UNL     1       3.962   5.754  -0.881  1.00  0.00     0.049 A 
HETATM    7  C   UNL     1       3.457   7.053  -0.883  1.00  0.00     0.063 A 
HETATM    8  C   UNL     1       2.274   7.351  -0.199  1.00  0.00     0.062 A 
HETATM    9  N   UNL     1       4.136   8.060  -1.573  1.00  0.00    -0.317 N 
HETATM   10  N   UNL     1       1.771   8.653  -0.213  1.00  0.00    -0.317 N 
HETATM   11  C   UNL     1       1.597   6.355   0.503  1.00  0.00     0.033 A 
HETATM   12  C   UNL     1       2.383   9.693  -0.878  1.00  0.00     0.314 A 
HETATM   13  H   UNL     1       0.917   8.889   0.275  1.00  0.00     0.169 HD
HETATM   14  O   UNL     1       1.908  10.821  -0.877  1.00  0.00    -0.262 OA
HETATM   15  C   UNL     1       3.698   9.366  -1.628  1.00  0.00     0.314 A 
HETATM   16  O   UNL     1       4.314  10.227  -2.242  1.00  0.00    -0.262 OA
HETATM   17  C   UNL     1       2.099   5.050   0.509  1.00  0.00     0.019 A 
HETATM   18  H   UNL     1       4.998   7.863  -2.063  1.00  0.00     0.169 HD
ENDBRANCH   2   5
BRANCH   1  19
HETATM   19  C   UNL     1       3.157   1.005  -0.230  1.00  0.00     0.158 A 
HETATM   20  C   UNL     1       2.167  -0.008  -0.305  1.00  0.00     0.003 A 
HETATM   21  C   UNL     1       0.697   0.115  -0.443  1.00  0.00     0.054 C 
HETATM   22  C   UNL     1       2.883  -1.187  -0.262  1.00  0.00     0.129 A 
HETATM   23  N   UNL     1       4.214  -0.866  -0.118  1.00  0.00    -0.241 N 
HETATM   24  N   UNL     1       4.374   0.479  -0.144  1.00  0.00    -0.149 NA
BRANCH  23  25
HETATM   25  C   UNL     1       5.358  -1.713  -0.021  1.00  0.00     0.079 A 
HETATM   26  C   UNL     1       5.325  -3.071   0.336  1.00  0.00     0.062 A 
HETATM   27 CL   UNL     1       3.936  -3.925   0.914  1.00  0.00    -0.082 Cl
HETATM   28  C   UNL     1       6.515  -3.819   0.343  1.00  0.00     0.026 A 
HETATM   29  C   UNL     1       7.737  -3.233   0.017  1.00  0.00     0.002 A 
HETATM   30  C   UNL     1       7.786  -1.884  -0.303  1.00  0.00     0.002 A 
HETATM   31  C   UNL     1       6.611  -1.129  -0.315  1.00  0.00     0.033 A 
ENDBRANCH  23  25
ENDBRANCH   1  19
TORSDOF 3
