REMARK  6 active torsions:
REMARK  status: ('A' for Active; 'I' for Inactive)
REMARK    1  A    between atoms: O_2  and  C_3 
REMARK    2  A    between atoms: C_6  and  C_7 
REMARK    3  A    between atoms: C_11  and  C_12 
REMARK       I    between atoms: C_12  and  N_13 
REMARK    4  A    between atoms: N_13  and  N_14 
REMARK       I    between atoms: N_14  and  C_15 
REMARK    5  A    between atoms: C_15  and  C_16 
REMARK    6  A    between atoms: C_17  and  C_18 
ROOT
HETATM    1  C   UNL     1       8.033   7.052  -1.561  1.00  0.00     0.288 C 
HETATM    2  N   UNL     1       9.157   6.292  -1.798  1.00  0.00    -0.262 N 
HETATM    3  O   UNL     1       8.031   8.275  -1.683  1.00  0.00    -0.264 OA
HETATM    4  H   UNL     1       9.175   5.276  -1.758  1.00  0.00     0.190 HD
ENDROOT
BRANCH   1   5
HETATM    5  C   UNL     1       6.870   6.311  -1.154  1.00  0.00     0.121 A 
HETATM    6  N   UNL     1       5.664   6.915  -0.938  1.00  0.00    -0.272 N 
HETATM    7  N   UNL     1       4.688   6.078  -0.559  1.00  0.00    -0.174 NA
HETATM    8  H   UNL     1       5.452   7.904  -1.036  1.00  0.00     0.189 HD
HETATM    9  C   UNL     1       5.277   4.873  -0.495  1.00  0.00     0.089 A 
HETATM   10  C   UNL     1       6.645   4.977  -0.877  1.00  0.00     0.071 A 
BRANCH   9  11
HETATM   11  C   UNL     1       4.543   3.671  -0.083  1.00  0.00    -0.005 A 
HETATM   12  C   UNL     1       3.140   3.660  -0.072  1.00  0.00     0.016 A 
HETATM   13  C   UNL     1       2.428   2.515   0.309  1.00  0.00     0.037 A 
HETATM   14  C   UNL     1       3.109   1.360   0.689  1.00  0.00     0.068 A 
HETATM   15  C   UNL     1       4.505   1.367   0.694  1.00  0.00     0.037 A 
HETATM   16  C   UNL     1       5.218   2.508   0.311  1.00  0.00     0.016 A 
BRANCH  14  17
HETATM   17  O   UNL     1       2.542   0.179   1.078  1.00  0.00    -0.356 OA
HETATM   18  C   UNL     1       1.124   0.097   1.018  1.00  0.00     0.210 C 
ENDBRANCH  14  17
ENDBRANCH   9  11
ENDBRANCH   1   5
BRANCH   2  19
HETATM   19  N   UNL     1      10.354   6.919  -2.155  1.00  0.00    -0.267 N 
HETATM   20  C   UNL     1      11.402   6.122  -2.556  1.00  0.00     0.240 C 
HETATM   21  O   UNL     1      11.328   4.896  -2.586  1.00  0.00    -0.271 OA
HETATM   22  H   UNL     1      10.333   7.929  -2.265  1.00  0.00     0.190 HD
BRANCH  20  23
HETATM   23  C   UNL     1      12.669   6.789  -2.951  1.00  0.00     0.089 A 
HETATM   24  C   UNL     1      12.781   7.666  -4.185  1.00  0.00     0.036 A 
HETATM   25  C   UNL     1      12.944   8.259  -2.803  1.00  0.00     0.025 A 
BRANCH  24  26
HETATM   26  C   UNL     1      11.583   8.028  -5.034  1.00  0.00    -0.015 A 
HETATM   27  C   UNL     1      11.193   9.362  -5.241  1.00  0.00     0.123 A 
HETATM   28  F   UNL     1      11.886  10.351  -4.655  1.00  0.00    -0.206 F 
HETATM   29  C   UNL     1      10.104   9.704  -6.039  1.00  0.00     0.043 A 
HETATM   30  C   UNL     1       9.370   8.703  -6.668  1.00  0.00     0.003 A 
HETATM   31  C   UNL     1       9.737   7.371  -6.498  1.00  0.00     0.001 A 
HETATM   32  C   UNL     1      10.834   7.040  -5.695  1.00  0.00     0.011 A 
ENDBRANCH  24  26
ENDBRANCH  20  23
ENDBRANCH   2  19
TORSDOF 6
