REMARK  7 active torsions:
REMARK  status: ('A' for Active; 'I' for Inactive)
REMARK    1  A    between atoms: C_2  and  C_3 
REMARK    2  A    between atoms: C_3  and  C_4 
REMARK    3  A    between atoms: C_4  and  N_5 
REMARK       I    between atoms: N_5  and  C_6 
REMARK    4  A    between atoms: C_6  and  C_7 
REMARK    5  A    between atoms: C_8  and  N_9 
REMARK    6  A    between atoms: N_10  and  N_11 
REMARK    7  A    between atoms: C_12  and  C_13 
ROOT
HETATM    1  C   UNL     1       1.614   3.132   1.971  1.00  0.00     0.104 C 
HETATM    2  C   UNL     1       0.652   3.431   2.930  1.00  0.00     0.123 C 
HETATM    3  N   UNL     1      -0.280   4.275   2.324  1.00  0.00    -0.202 N 
HETATM    4  C   UNL     1      -0.231   4.025   0.967  1.00  0.00     0.183 A 
HETATM    5  C   UNL     1       0.983   3.384   0.719  1.00  0.00     0.124 A 
HETATM    6  N   UNL     1       1.392   3.141  -0.553  1.00  0.00    -0.242 NA
HETATM    7  C   UNL     1       0.519   3.502  -1.508  1.00  0.00     0.086 A 
HETATM    8  C   UNL     1      -0.725   4.127  -1.220  1.00  0.00     0.088 A 
HETATM    9  N   UNL     1      -1.114   4.431   0.027  1.00  0.00    -0.225 NA
HETATM   10  C   UNL     1       0.844   3.245  -2.834  1.00  0.00     0.034 A 
HETATM   11  C   UNL     1      -0.023   3.570  -3.879  1.00  0.00     0.002 A 
HETATM   12  C   UNL     1      -1.242   4.167  -3.594  1.00  0.00     0.002 A 
HETATM   13  C   UNL     1      -1.579   4.442  -2.269  1.00  0.00     0.034 A 
ENDROOT
BRANCH   3  14
HETATM   14  N   UNL     1      -1.055   5.237   2.934  1.00  0.00    -0.176 NA
HETATM   15  C   UNL     1      -0.434   5.829   3.902  1.00  0.00     0.153 C 
BRANCH  15  16
HETATM   16  C   UNL     1      -1.033   6.904   4.657  1.00  0.00     0.011 A 
HETATM   17  C   UNL     1      -0.604   7.362   5.944  1.00  0.00     0.004 A 
HETATM   18  C   UNL     1      -1.362   8.490   6.256  1.00  0.00     0.043 A 
HETATM   19  C   UNL     1       0.371   6.925   6.868  1.00  0.00     0.014 A 
HETATM   20  C   UNL     1      -1.176   9.220   7.437  1.00  0.00     0.030 A 
HETATM   21  N   UNL     1      -2.241   8.686   5.215  1.00  0.00    -0.364 N 
HETATM   22  C   UNL     1      -0.202   8.768   8.334  1.00  0.00     0.002 A 
HETATM   23  C   UNL     1       0.557   7.633   8.061  1.00  0.00     0.001 A 
HETATM   24  H   UNL     1      -2.909   9.443   5.164  1.00  0.00     0.165 HD
HETATM   25  C   UNL     1      -2.066   7.724   4.256  1.00  0.00     0.102 A 
ENDBRANCH  15  16
ENDBRANCH   3  14
BRANCH   2  26
HETATM   26  N   UNL     1       0.599   3.133   4.267  1.00  0.00    -0.286 NA
HETATM   27  H   UNL     1       1.050   2.261   4.558  1.00  0.00     0.125 HD
HETATM   28  H   UNL     1      -0.325   3.193   4.708  1.00  0.00     0.125 HD
ENDBRANCH   2  26
BRANCH   1  29
HETATM   29  C   UNL     1       2.973   2.681   2.249  1.00  0.00     0.257 C 
HETATM   30  N   UNL     1       3.374   3.003   3.533  1.00  0.00    -0.357 N 
HETATM   31  H   UNL     1       2.715   3.553   4.074  1.00  0.00     0.162 HD
HETATM   32  O   UNL     1       3.714   2.159   1.427  1.00  0.00    -0.267 OA
BRANCH  30  33
HETATM   33  C   UNL     1       4.749   2.993   3.983  1.00  0.00     0.123 C 
BRANCH  33  34
HETATM   34  C   UNL     1       4.799   3.461   5.439  1.00  0.00     0.023 C 
BRANCH  34  35
HETATM   35  C   UNL     1       6.212   3.654   6.007  1.00  0.00    -0.021 C 
HETATM   36  C   UNL     1       6.992   2.343   6.066  1.00  0.00     0.009 C 
HETATM   37  C   UNL     1       6.119   4.269   7.408  1.00  0.00     0.009 C 
ENDBRANCH  34  35
ENDBRANCH  33  34
ENDBRANCH  30  33
ENDBRANCH   1  29
TORSDOF 7
