REMARK  5 active torsions:
REMARK  status: ('A' for Active; 'I' for Inactive)
REMARK    1  A    between atoms: C_2  and  O_3 
REMARK    2  A    between atoms: C_4  and  C_5 
REMARK    3  A    between atoms: C_5  and  O_6 
REMARK    4  A    between atoms: C_9  and  C_10 
REMARK    5  A    between atoms: C_22  and  O_23 
ROOT
HETATM    1  C   UNL     1       0.948   0.169  -0.424  1.00  0.00     0.047 C 
HETATM    2  C   UNL     1       2.338   0.321   0.225  1.00  0.00     0.073 C 
HETATM    3  C   UNL     1       3.061   1.588  -0.363  1.00  0.00     0.133 C 
HETATM    4  C   UNL     1       3.630   1.420  -1.813  1.00  0.00     0.074 C 
HETATM    5  C   UNL     1       3.825  -0.009  -2.204  1.00  0.00     0.030 A 
HETATM    6  C   UNL     1       3.624  -1.075  -1.355  1.00  0.00     0.042 A 
HETATM    7  N   UNL     1       3.862  -2.212  -2.073  1.00  0.00    -0.279 N 
HETATM    8  H   UNL     1       3.810  -3.179  -1.770  1.00  0.00     0.189 HD
HETATM    9  N   UNL     1       4.159  -1.956  -3.365  1.00  0.00    -0.149 NA
HETATM   10  C   UNL     1       4.120  -0.631  -3.419  1.00  0.00     0.190 A 
HETATM   11  C   UNL     1       3.156  -0.992   0.043  1.00  0.00     0.097 C 
ENDROOT
BRANCH   4  12
HETATM   12  C   UNL     1       4.958   2.113  -2.104  1.00  0.00    -0.048 A 
HETATM   13  C   UNL     1       6.186   1.631  -1.608  1.00  0.00     0.009 A 
HETATM   14  C   UNL     1       7.382   2.306  -1.864  1.00  0.00     0.019 A 
HETATM   15  C   UNL     1       7.364   3.475  -2.618  1.00  0.00     0.011 A 
HETATM   16 BR   UNL     1       8.979   4.393  -2.962  1.00  0.00    -0.051 Br
HETATM   17  C   UNL     1       6.163   3.974  -3.117  1.00  0.00     0.019 A 
HETATM   18  C   UNL     1       4.967   3.297  -2.859  1.00  0.00     0.009 A 
ENDBRANCH   4  12
BRANCH   3  19
HETATM   19  C   UNL     1       4.091   2.102   0.623  1.00  0.00     0.266 C 
HETATM   20  O   UNL     1       4.720   1.396   1.402  1.00  0.00    -0.265 OA
BRANCH  19  21
HETATM   21  O   UNL     1       4.177   3.460   0.553  1.00  0.00    -0.326 OA
HETATM   22  C   UNL     1       5.131   4.041   1.442  1.00  0.00     0.213 C 
ENDBRANCH  19  21
ENDBRANCH   3  19
BRANCH   2  23
HETATM   23  O   UNL     1       2.062   0.500   1.626  1.00  0.00    -0.389 OA
HETATM   24  H   UNL     1       2.917   0.481   2.103  1.00  0.00     0.210 HD
ENDBRANCH   2  23
BRANCH  10  25
HETATM   25  O   UNL     1       4.332  -0.102  -4.618  1.00  0.00    -0.343 OA
HETATM   26  H   UNL     1       4.506  -0.865  -5.194  1.00  0.00     0.219 HD
ENDBRANCH  10  25
TORSDOF 5
