REMARK  3 active torsions:
REMARK  status: ('A' for Active; 'I' for Inactive)
REMARK    1  A    between atoms: C_2  and  N_3 
REMARK       I    between atoms: N_3  and  C_4 
REMARK    2  A    between atoms: C_4  and  C_5 
REMARK    3  A    between atoms: C_20  and  C_21 
REMARK       I    between atoms: C_21  and  N_22 
ROOT
HETATM    1  C   UNL     1       1.933   0.834  -0.417  1.00  0.00     0.032 A 
HETATM    2  C   UNL     1       2.102  -0.513  -0.090  1.00  0.00     0.036 A 
HETATM    3  C   UNL     1       0.970  -1.327   0.090  1.00  0.00     0.046 A 
HETATM    4  C   UNL     1      -0.320  -0.777  -0.055  1.00  0.00     0.030 A 
HETATM    5  C   UNL     1      -0.442   0.568  -0.373  1.00  0.00     0.063 A 
HETATM    6  N   UNL     1      -1.787   0.805  -0.438  1.00  0.00    -0.277 N 
HETATM    7  H   UNL     1      -2.245   1.685  -0.645  1.00  0.00     0.189 HD
HETATM    8  N   UNL     1      -2.553  -0.274  -0.199  1.00  0.00    -0.168 NA
HETATM    9  C   UNL     1      -1.659  -1.259   0.038  1.00  0.00     0.156 A 
HETATM   10  C   UNL     1       0.659   1.405  -0.562  1.00  0.00     0.034 A 
ENDROOT
BRANCH   2  11
HETATM   11  N   UNL     1       3.360  -1.135   0.076  1.00  0.00    -0.323 N 
HETATM   12  C   UNL     1       4.606  -0.543  -0.022  1.00  0.00     0.256 C 
HETATM   13  O   UNL     1       4.845   0.639  -0.235  1.00  0.00    -0.267 OA
HETATM   14  H   UNL     1       3.317  -2.107   0.354  1.00  0.00     0.169 HD
BRANCH  12  15
HETATM   15  C   UNL     1       5.768  -1.449   0.189  1.00  0.00     0.038 A 
HETATM   16  C   UNL     1       5.740  -2.796  -0.168  1.00  0.00     0.061 A 
HETATM   17  C   UNL     1       6.882  -3.538   0.068  1.00  0.00     0.128 A 
HETATM   18 CL   UNL     1       6.938  -5.205  -0.331  1.00  0.00    -0.062 Cl
HETATM   19  N   UNL     1       8.014  -3.055   0.608  1.00  0.00    -0.225 NA
HETATM   20  C   UNL     1       8.009  -1.746   0.917  1.00  0.00     0.128 A 
HETATM   21 CL   UNL     1       9.476  -1.165   1.587  1.00  0.00    -0.062 Cl
HETATM   22  C   UNL     1       6.933  -0.903   0.731  1.00  0.00     0.061 A 
ENDBRANCH  12  15
ENDBRANCH   2  11
BRANCH   9  23
HETATM   23  C   UNL     1      -2.087  -2.631   0.344  1.00  0.00     0.270 C 
HETATM   24  N   UNL     1      -3.444  -2.802   0.366  1.00  0.00    -0.365 N 
HETATM   25  H   UNL     1      -4.037  -2.004   0.174  1.00  0.00     0.159 HD
HETATM   26  H   UNL     1      -3.834  -3.711   0.561  1.00  0.00     0.159 HD
HETATM   27  O   UNL     1      -1.319  -3.563   0.563  1.00  0.00    -0.266 OA
ENDBRANCH   9  23
TORSDOF 3
