REMARK  6 active torsions:
REMARK  status: ('A' for Active; 'I' for Inactive)
REMARK    1  A    between atoms: C_2  and  S_3 
REMARK    2  A    between atoms: C_2  and  C_11 
REMARK    3  A    between atoms: S_3  and  C_4 
REMARK    4  A    between atoms: C_4  and  C_5 
REMARK       I    between atoms: C_11  and  N_12 
REMARK    5  A    between atoms: N_12  and  C_13 
REMARK    6  A    between atoms: C_15  and  C_16 
ROOT
HETATM    1  C   UNL     1       3.275  -1.039   0.845  1.00  0.00     0.235 C 
HETATM    2  N   UNL     1       2.316  -1.475   1.749  1.00  0.00    -0.326 N 
HETATM    3  O   UNL     1       4.404  -1.508   0.725  1.00  0.00    -0.272 OA
HETATM    4  H   UNL     1       1.500  -0.877   1.834  1.00  0.00     0.169 HD
ENDROOT
BRANCH   2   5
HETATM    5  C   UNL     1       2.404  -2.561   2.646  1.00  0.00     0.035 A 
HETATM    6  C   UNL     1       3.467  -3.469   2.668  1.00  0.00     0.042 A 
HETATM    7  C   UNL     1       3.490  -4.541   3.577  1.00  0.00    -0.021 A 
HETATM    8  C   UNL     1       2.418  -4.699   4.463  1.00  0.00     0.012 A 
HETATM    9  C   UNL     1       1.350  -3.802   4.446  1.00  0.00     0.003 A 
HETATM   10  C   UNL     1       1.344  -2.738   3.541  1.00  0.00     0.029 A 
BRANCH   7  11
HETATM   11  C   UNL     1       4.601  -5.480   3.599  1.00  0.00     0.010 A 
HETATM   12  C   UNL     1       4.660  -6.841   3.981  1.00  0.00     0.152 A 
HETATM   13  N   UNL     1       5.887  -7.359   3.869  1.00  0.00    -0.187 NA
HETATM   14  N   UNL     1       6.620  -6.331   3.413  1.00  0.00    -0.289 N 
HETATM   15  H   UNL     1       7.609  -6.481   3.245  1.00  0.00     0.188 HD
HETATM   16  C   UNL     1       5.899  -5.185   3.239  1.00  0.00     0.123 A 
ENDBRANCH   7  11
ENDBRANCH   2   5
BRANCH   1  17
HETATM   17  C   UNL     1       2.754   0.057  -0.107  1.00  0.00     0.135 C 
HETATM   18  C   UNL     1       3.878   0.571  -1.003  1.00  0.00     0.031 C 
BRANCH  17  19
HETATM   19  S   UNL     1       1.971   1.416   0.861  1.00  0.00    -0.150 SA
BRANCH  19  20
HETATM   20  C   UNL     1       1.334   2.442  -0.502  1.00  0.00     0.113 C 
BRANCH  20  21
HETATM   21  C   UNL     1       0.523   3.609   0.002  1.00  0.00    -0.049 A 
HETATM   22  C   UNL     1       1.160   4.788   0.418  1.00  0.00     0.008 A 
HETATM   23  C   UNL     1       0.413   5.879   0.865  1.00  0.00     0.001 A 
HETATM   24  C   UNL     1      -0.977   5.802   0.906  1.00  0.00     0.000 A 
HETATM   25  C   UNL     1      -1.621   4.632   0.507  1.00  0.00     0.001 A 
HETATM   26  C   UNL     1      -0.876   3.539   0.060  1.00  0.00     0.008 A 
ENDBRANCH  20  21
ENDBRANCH  19  20
ENDBRANCH  17  19
ENDBRANCH   1  17
TORSDOF 6
