REMARK  5 active torsions:
REMARK  status: ('A' for Active; 'I' for Inactive)
REMARK    1  A    between atoms: C_5  and  C_6 
REMARK    2  A    between atoms: C_10  and  C_11 
REMARK       I    between atoms: C_11  and  N_12 
REMARK    3  A    between atoms: N_12  and  C_13 
REMARK    4  A    between atoms: C_15  and  O_16 
REMARK    5  A    between atoms: C_19  and  O_20 
ROOT
HETATM    1  C   UNL     1       6.444  -0.016  -0.658  1.00  0.00     0.068 A 
HETATM    2  N   UNL     1       6.943   1.244  -0.637  1.00  0.00    -0.248 NA
HETATM    3  C   UNL     1       8.154   1.498  -1.158  1.00  0.00     0.068 A 
HETATM    4  C   UNL     1       8.979   0.504  -1.719  1.00  0.00     0.008 A 
HETATM    5  C   UNL     1       8.486  -0.819  -1.633  1.00  0.00     0.047 A 
HETATM    6  C   UNL     1       7.214  -1.073  -1.110  1.00  0.00     0.050 A 
HETATM    7  C   UNL     1       8.587   2.817  -1.165  1.00  0.00     0.032 A 
HETATM    8  C   UNL     1       9.799   3.197  -1.743  1.00  0.00     0.002 A 
HETATM    9  C   UNL     1      10.597   2.240  -2.350  1.00  0.00     0.001 A 
HETATM   10  C   UNL     1      10.189   0.906  -2.348  1.00  0.00     0.015 A 
ENDROOT
BRANCH   5  11
HETATM   11  C   UNL     1       9.206  -2.019  -2.139  1.00  0.00     0.257 C 
HETATM   12  N   UNL     1      10.544  -2.116  -1.801  1.00  0.00    -0.323 N 
HETATM   13  H   UNL     1      10.945  -1.360  -1.262  1.00  0.00     0.169 HD
HETATM   14  O   UNL     1       8.554  -2.828  -2.791  1.00  0.00    -0.267 OA
BRANCH  12  15
HETATM   15  C   UNL     1      11.438  -3.140  -2.198  1.00  0.00     0.040 A 
HETATM   16  C   UNL     1      11.018  -4.357  -2.746  1.00  0.00     0.066 A 
HETATM   17  C   UNL     1      11.948  -5.328  -3.122  1.00  0.00     0.073 A 
HETATM   18  C   UNL     1      13.309  -5.065  -2.968  1.00  0.00     0.073 A 
HETATM   19  C   UNL     1      13.746  -3.850  -2.442  1.00  0.00     0.073 A 
HETATM   20  C   UNL     1      12.809  -2.901  -2.027  1.00  0.00     0.066 A 
BRANCH  17  21
HETATM   21  O   UNL     1      11.656  -6.557  -3.649  1.00  0.00    -0.356 OA
HETATM   22  C   UNL     1      10.279  -6.881  -3.803  1.00  0.00     0.210 C 
ENDBRANCH  17  21
BRANCH  19  23
HETATM   23  O   UNL     1      15.105  -3.710  -2.365  1.00  0.00    -0.356 OA
HETATM   24  C   UNL     1      15.597  -2.376  -2.327  1.00  0.00     0.210 C 
ENDBRANCH  19  23
ENDBRANCH  12  15
ENDBRANCH   5  11
BRANCH   1  25
HETATM   25  C   UNL     1       5.033  -0.162  -0.234  1.00  0.00    -0.007 A 
HETATM   26  C   UNL     1       4.214  -1.202  -0.713  1.00  0.00     0.014 A 
HETATM   27  C   UNL     1       2.864  -1.300  -0.354  1.00  0.00     0.007 A 
HETATM   28  C   UNL     1       2.285  -0.351   0.490  1.00  0.00    -0.062 A 
HETATM   29  C   UNL     1       0.836  -0.436   0.866  1.00  0.00     0.048 C 
HETATM   30  C   UNL     1       3.083   0.681   0.989  1.00  0.00     0.007 A 
HETATM   31  C   UNL     1       4.434   0.773   0.629  1.00  0.00     0.014 A 
ENDBRANCH   1  25
TORSDOF 5
