REMARK  6 active torsions:
REMARK  status: ('A' for Active; 'I' for Inactive)
REMARK       I    between atoms: C_2  and  N_3 
REMARK    1  A    between atoms: C_2  and  C_12 
REMARK    2  A    between atoms: N_3  and  C_4 
REMARK    3  A    between atoms: C_4  and  C_5 
REMARK    4  A    between atoms: C_5  and  C_6 
REMARK    5  A    between atoms: C_18  and  C_22 
REMARK    6  A    between atoms: C_28  and  C_34 
ROOT
HETATM    1  C   UNL     1       2.756   0.609  -1.252  1.00  0.00     0.032 A 
HETATM    2  C   UNL     1       3.434  -0.128  -2.229  1.00  0.00     0.020 A 
HETATM    3  C   UNL     1       3.993   0.525  -3.330  1.00  0.00     0.038 A 
HETATM    4  C   UNL     1       3.882   1.910  -3.455  1.00  0.00     0.075 A 
HETATM    5  O   UNL     1       4.538   2.476  -4.518  1.00  0.00    -0.350 OA
HETATM    6  C   UNL     1       4.190   3.839  -4.797  1.00  0.00     0.188 C 
HETATM    7  C   UNL     1       4.188   4.704  -3.540  1.00  0.00     0.082 C 
HETATM    8  C   UNL     1       3.132   4.156  -2.580  1.00  0.00     0.056 C 
HETATM    9  C   UNL     1       3.231   2.663  -2.473  1.00  0.00    -0.023 A 
HETATM   10  C   UNL     1       2.657   2.002  -1.379  1.00  0.00     0.027 A 
ENDROOT
BRANCH   7  11
HETATM   11  C   UNL     1       5.526   4.773  -2.864  1.00  0.00     0.091 A 
HETATM   12  N   UNL     1       5.779   5.839  -2.111  1.00  0.00    -0.345 N 
HETATM   13  H   UNL     1       5.083   6.574  -2.020  1.00  0.00     0.167 HD
HETATM   14  C   UNL     1       6.962   5.932  -1.432  1.00  0.00     0.049 A 
HETATM   15  C   UNL     1       7.207   7.043  -0.624  1.00  0.00     0.031 A 
HETATM   16  C   UNL     1       7.945   4.944  -1.503  1.00  0.00     0.059 A 
HETATM   17  C   UNL     1       8.406   7.148   0.096  1.00  0.00     0.014 A 
HETATM   18  C   UNL     1       9.384   6.143   0.026  1.00  0.00    -0.022 A 
HETATM   19  C   UNL     1       9.147   5.033  -0.791  1.00  0.00     0.031 A 
HETATM   20  C   UNL     1       7.658   3.794  -2.356  1.00  0.00     0.259 A 
HETATM   21  O   UNL     1       8.396   2.850  -2.551  1.00  0.00    -0.267 OA
HETATM   22  N   UNL     1       6.403   3.800  -3.000  1.00  0.00    -0.312 N 
HETATM   23  H   UNL     1       6.180   2.985  -3.569  1.00  0.00     0.170 HD
BRANCH  18  24
HETATM   24  C   UNL     1      10.613   6.266   0.788  1.00  0.00     0.010 A 
HETATM   25  C   UNL     1      11.320   7.410   1.227  1.00  0.00     0.152 A 
HETATM   26  N   UNL     1      12.413   7.104   1.928  1.00  0.00    -0.187 NA
HETATM   27  N   UNL     1      12.414   5.763   1.948  1.00  0.00    -0.289 N 
HETATM   28  H   UNL     1      13.165   5.289   2.442  1.00  0.00     0.188 HD
HETATM   29  C   UNL     1      11.356   5.212   1.279  1.00  0.00     0.123 A 
ENDBRANCH  18  24
ENDBRANCH   7  11
BRANCH   1  30
HETATM   30  C   UNL     1       2.185  -0.024  -0.033  1.00  0.00     0.251 C 
HETATM   31  O   UNL     1       2.080   0.638   0.993  1.00  0.00    -0.268 OA
HETATM   32  N   UNL     1       1.777  -1.334  -0.151  1.00  0.00    -0.357 N 
HETATM   33  H   UNL     1       1.671  -1.736  -1.073  1.00  0.00     0.162 HD
BRANCH  32  34
HETATM   34  C   UNL     1       1.145  -2.012   0.971  1.00  0.00     0.129 C 
BRANCH  34  35
HETATM   35  C   UNL     1       0.884  -3.485   0.675  1.00  0.00     0.079 C 
BRANCH  35  36
HETATM   36  C   UNL     1       0.233  -4.171   1.844  1.00  0.00     0.035 A 
HETATM   37  C   UNL     1      -1.153  -4.178   1.984  1.00  0.00     0.027 A 
HETATM   38  C   UNL     1      -1.712  -4.812   3.090  1.00  0.00     0.003 A 
HETATM   39  C   UNL     1      -0.879  -5.415   4.023  1.00  0.00     0.019 A 
HETATM   40  C   UNL     1       0.488  -5.357   3.812  1.00  0.00     0.117 A 
HETATM   41  N   UNL     1       1.059  -4.748   2.749  1.00  0.00    -0.266 NA
ENDBRANCH  35  36
ENDBRANCH  34  35
ENDBRANCH  32  34
ENDBRANCH   1  30
TORSDOF 6
