REMARK  6 active torsions:
REMARK  status: ('A' for Active; 'I' for Inactive)
REMARK    1  A    between atoms: C_3  and  O_4 
REMARK    2  A    between atoms: O_4  and  C_5 
REMARK    3  A    between atoms: C_5  and  C_6 
REMARK    4  A    between atoms: C_15  and  C_16 
REMARK       I    between atoms: C_16  and  N_17 
REMARK    5  A    between atoms: N_17  and  N_18 
REMARK       I    between atoms: N_18  and  C_19 
REMARK    6  A    between atoms: C_19  and  C_20 
ROOT
HETATM    1  C   UNL     1       1.246   0.066   0.640  1.00  0.00     0.051 C 
HETATM    2  C   UNL     1       2.695   0.041   0.240  1.00  0.00    -0.027 A 
HETATM    3  C   UNL     1       3.419   1.225   0.013  1.00  0.00     0.081 A 
HETATM    4  C   UNL     1       4.753   1.179  -0.425  1.00  0.00    -0.027 A 
HETATM    5  C   UNL     1       5.529   2.413  -0.789  1.00  0.00     0.051 C 
HETATM    6  C   UNL     1       5.394  -0.068  -0.503  1.00  0.00     0.026 A 
HETATM    7  C   UNL     1       4.711  -1.254  -0.201  1.00  0.00     0.034 A 
HETATM    8  C   UNL     1       3.357  -1.195   0.145  1.00  0.00     0.026 A 
ENDROOT
BRANCH   7   9
HETATM    9  C   UNL     1       5.465  -2.537  -0.289  1.00  0.00     0.270 C 
HETATM   10  N   UNL     1       4.936  -3.621   0.383  1.00  0.00    -0.263 N 
HETATM   11  H   UNL     1       4.163  -3.569   1.042  1.00  0.00     0.190 HD
HETATM   12  O   UNL     1       6.525  -2.604  -0.908  1.00  0.00    -0.266 OA
BRANCH  10  13
HETATM   13  N   UNL     1       5.690  -4.799   0.418  1.00  0.00    -0.262 N 
HETATM   14  C   UNL     1       5.250  -5.856   1.184  1.00  0.00     0.286 C 
HETATM   15  O   UNL     1       4.202  -5.794   1.829  1.00  0.00    -0.264 OA
HETATM   16  H   UNL     1       6.550  -4.807  -0.124  1.00  0.00     0.190 HD
BRANCH  14  17
HETATM   17  C   UNL     1       6.096  -7.028   1.178  1.00  0.00     0.102 A 
HETATM   18  N   UNL     1       5.737  -8.175   1.857  1.00  0.00    -0.361 N 
HETATM   19  H   UNL     1       4.879  -8.268   2.388  1.00  0.00     0.165 HD
HETATM   20  C   UNL     1       6.695  -9.140   1.701  1.00  0.00     0.088 A 
HETATM   21  C   UNL     1       7.695  -8.617   0.916  1.00  0.00     0.019 A 
HETATM   22  C   UNL     1       7.321  -7.291   0.585  1.00  0.00     0.036 A 
ENDBRANCH  14  17
ENDBRANCH  10  13
ENDBRANCH   7   9
BRANCH   3  23
HETATM   23  O   UNL     1       2.752   2.415   0.171  1.00  0.00    -0.346 OA
BRANCH  23  24
HETATM   24  C   UNL     1       3.270   3.182   1.269  1.00  0.00     0.216 C 
BRANCH  24  25
HETATM   25  C   UNL     1       2.172   3.795   2.099  1.00  0.00    -0.017 A 
HETATM   26  C   UNL     1       2.495   4.392   3.316  1.00  0.00     0.125 A 
HETATM   27  N   UNL     1       1.602   4.989   4.137  1.00  0.00    -0.272 NA
HETATM   28  C   UNL     1       0.317   5.000   3.726  1.00  0.00     0.116 A 
HETATM   29  C   UNL     1      -0.111   4.448   2.530  1.00  0.00     0.020 A 
HETATM   30  C   UNL     1       0.833   3.843   1.704  1.00  0.00     0.012 A 
ENDBRANCH  24  25
ENDBRANCH  23  24
ENDBRANCH   3  23
TORSDOF 6
