REMARK  5 active torsions:
REMARK  status: ('A' for Active; 'I' for Inactive)
REMARK    1  A    between atoms: O_2  and  C_3 
REMARK    2  A    between atoms: C_5  and  O_6 
REMARK    3  A    between atoms: C_9  and  N_10 
REMARK       I    between atoms: N_10  and  C_11 
REMARK    4  A    between atoms: C_11  and  C_12 
REMARK    5  A    between atoms: C_20  and  C_21 
ROOT
HETATM    1  C   UNL     1       6.528  -0.259  -1.643  1.00  0.00     0.047 A 
HETATM    2  C   UNL     1       5.553  -0.595  -0.671  1.00  0.00     0.008 A 
HETATM    3  C   UNL     1       5.193  -1.955  -0.614  1.00  0.00     0.068 A 
HETATM    4  C   UNL     1       4.199  -2.354   0.268  1.00  0.00     0.032 A 
HETATM    5  C   UNL     1       3.567  -1.456   1.130  1.00  0.00     0.002 A 
HETATM    6  C   UNL     1       3.952  -0.125   1.131  1.00  0.00     0.001 A 
HETATM    7  C   UNL     1       4.944   0.301   0.249  1.00  0.00     0.015 A 
HETATM    8  N   UNL     1       5.777  -2.901  -1.366  1.00  0.00    -0.248 NA
HETATM    9  C   UNL     1       6.780  -2.573  -2.216  1.00  0.00     0.068 A 
HETATM   10  C   UNL     1       7.156  -1.255  -2.397  1.00  0.00     0.050 A 
ENDROOT
BRANCH   1  11
HETATM   11  C   UNL     1       6.966   1.134  -1.937  1.00  0.00     0.257 C 
HETATM   12  N   UNL     1       5.948   2.066  -2.038  1.00  0.00    -0.323 N 
HETATM   13  H   UNL     1       5.002   1.735  -1.892  1.00  0.00     0.169 HD
HETATM   14  O   UNL     1       8.164   1.338  -2.090  1.00  0.00    -0.267 OA
BRANCH  12  15
HETATM   15  C   UNL     1       6.085   3.456  -2.237  1.00  0.00     0.040 A 
HETATM   16  C   UNL     1       7.265   4.070  -2.672  1.00  0.00     0.066 A 
HETATM   17  C   UNL     1       7.320   5.458  -2.848  1.00  0.00     0.073 A 
HETATM   18  C   UNL     1       6.213   6.241  -2.524  1.00  0.00     0.073 A 
HETATM   19  C   UNL     1       5.051   5.632  -2.065  1.00  0.00     0.073 A 
HETATM   20  C   UNL     1       4.963   4.246  -1.967  1.00  0.00     0.066 A 
BRANCH  17  21
HETATM   21  O   UNL     1       8.405   6.159  -3.306  1.00  0.00    -0.356 OA
HETATM   22  C   UNL     1       9.374   5.408  -4.031  1.00  0.00     0.210 C 
ENDBRANCH  17  21
BRANCH  19  23
HETATM   23  O   UNL     1       3.958   6.395  -1.753  1.00  0.00    -0.356 OA
HETATM   24  C   UNL     1       4.021   6.784  -0.379  1.00  0.00     0.210 C 
ENDBRANCH  19  23
ENDBRANCH  12  15
ENDBRANCH   1  11
BRANCH   9  25
HETATM   25  C   UNL     1       7.433  -3.707  -2.907  1.00  0.00    -0.007 A 
HETATM   26  C   UNL     1       6.729  -4.898  -3.164  1.00  0.00     0.014 A 
HETATM   27  C   UNL     1       7.337  -5.988  -3.794  1.00  0.00     0.001 A 
HETATM   28  C   UNL     1       8.671  -5.913  -4.181  1.00  0.00     0.000 A 
HETATM   29  C   UNL     1       9.395  -4.751  -3.936  1.00  0.00     0.001 A 
HETATM   30  C   UNL     1       8.784  -3.662  -3.305  1.00  0.00     0.014 A 
ENDBRANCH   9  25
TORSDOF 5
