REMARK  9 active torsions:
REMARK  status: ('A' for Active; 'I' for Inactive)
REMARK    1  A    between atoms: C_2  and  N_3 
REMARK    2  A    between atoms: N_3  and  C_5 
REMARK    3  A    between atoms: N_3  and  C_30 
REMARK    4  A    between atoms: C_5  and  C_6 
REMARK    5  A    between atoms: C_5  and  C_14 
REMARK    6  A    between atoms: C_8  and  O_9 
REMARK    7  A    between atoms: C_14  and  N_15 
REMARK       I    between atoms: N_15  and  C_16 
REMARK    8  A    between atoms: C_16  and  C_17 
REMARK    9  A    between atoms: C_18  and  N_19 
ROOT
HETATM    1  C   UNL     1       0.974   2.426  -1.044  1.00  0.00     0.161 C 
ENDROOT
BRANCH   1   2
HETATM    2  C   UNL     1       2.512   2.678  -0.862  1.00  0.00     0.238 C 
BRANCH   2   3
HETATM    3  N   UNL     1       3.355   1.472  -1.318  1.00  0.00    -0.062 N 
HETATM    4  H   UNL     1       2.967   0.726  -0.708  1.00  0.00     0.280 HD
BRANCH   3   5
HETATM    5  C   UNL     1       4.825   1.582  -0.958  1.00  0.00     0.231 C 
HETATM    6  C   UNL     1       5.058   1.427   0.533  1.00  0.00     0.034 C 
ENDBRANCH   3   5
BRANCH   3   7
HETATM    7  C   UNL     1       3.157   1.058  -2.754  1.00  0.00     0.231 C 
HETATM    8  C   UNL     1       3.311  -0.444  -2.911  1.00  0.00     0.034 C 
ENDBRANCH   3   7
ENDBRANCH   2   3
BRANCH   2   9
HETATM    9  C   UNL     1       2.951   4.020  -1.430  1.00  0.00    -0.023 A 
HETATM   10  C   UNL     1       3.556   4.964  -0.572  1.00  0.00     0.046 A 
HETATM   11  C   UNL     1       3.981   6.204  -1.052  1.00  0.00     0.068 A 
HETATM   12  C   UNL     1       3.828   6.502  -2.405  1.00  0.00     0.037 A 
HETATM   13  C   UNL     1       3.223   5.590  -3.266  1.00  0.00     0.003 A 
HETATM   14  C   UNL     1       2.781   4.359  -2.782  1.00  0.00     0.009 A 
BRANCH  11  15
HETATM   15  O   UNL     1       4.578   7.183  -0.311  1.00  0.00    -0.356 OA
HETATM   16  C   UNL     1       4.392   7.129   1.098  1.00  0.00     0.210 C 
ENDBRANCH  11  15
ENDBRANCH   2   9
ENDBRANCH   1   2
BRANCH   1  17
HETATM   17  N   UNL     1       0.439   1.096  -0.729  1.00  0.00    -0.354 N 
HETATM   18  C   UNL     1       0.824   0.404   0.410  1.00  0.00     0.253 C 
HETATM   19  O   UNL     1       1.959   0.533   0.853  1.00  0.00    -0.268 OA
HETATM   20  H   UNL     1      -0.512   0.925  -1.044  1.00  0.00     0.162 HD
BRANCH  18  21
HETATM   21  C   UNL     1      -0.221  -0.454   1.043  1.00  0.00     0.059 A 
HETATM   22  C   UNL     1       0.018  -1.763   1.527  1.00  0.00     0.046 A 
HETATM   23  C   UNL     1      -1.051  -2.346   2.244  1.00  0.00     0.031 A 
HETATM   24  C   UNL     1      -2.286  -1.712   2.434  1.00  0.00     0.009 A 
HETATM   25  C   UNL     1      -2.510  -0.440   1.927  1.00  0.00    -0.061 A 
HETATM   26  C   UNL     1      -3.810   0.266   2.174  1.00  0.00     0.048 C 
HETATM   27  C   UNL     1      -1.463   0.194   1.259  1.00  0.00     0.026 A 
BRANCH  22  28
HETATM   28  N   UNL     1       1.196  -2.476   1.357  1.00  0.00    -0.380 N 
HETATM   29  C   UNL     1       1.965  -2.445   0.114  1.00  0.00     0.123 C 
HETATM   30  C   UNL     1       2.677  -3.796   0.058  1.00  0.00     0.021 C 
HETATM   31  C   UNL     1       2.828  -4.163   1.523  1.00  0.00     0.021 C 
HETATM   32  C   UNL     1       1.493  -3.709   2.100  1.00  0.00     0.123 C 
ENDBRANCH  22  28
ENDBRANCH  18  21
ENDBRANCH   1  17
TORSDOF 9
