REMARK  6 active torsions:
REMARK  status: ('A' for Active; 'I' for Inactive)
REMARK    1  A    between atoms: C_2  and  C_3 
REMARK    2  A    between atoms: C_8  and  N_9 
REMARK       I    between atoms: N_9  and  C_10 
REMARK       I    between atoms: C_10  and  N_11 
REMARK    3  A    between atoms: N_11  and  N_12 
REMARK       I    between atoms: N_12  and  C_13 
REMARK    4  A    between atoms: C_13  and  C_14 
REMARK    5  A    between atoms: C_14  and  N_15 
REMARK       I    between atoms: N_15  and  C_16 
REMARK       I    between atoms: C_16  and  N_17 
REMARK    6  A    between atoms: N_17  and  C_18 
ROOT
HETATM    1  N   UNL     1       1.082   2.336  -0.496  1.00  0.00    -0.306 N 
HETATM    2  C   UNL     1       0.824   3.615  -0.078  1.00  0.00     0.339 C 
HETATM    3  N   UNL     1      -0.502   3.962  -0.069  1.00  0.00    -0.249 N 
HETATM    4  O   UNL     1       1.656   4.441   0.285  1.00  0.00    -0.245 OA
HETATM    5  H   UNL     1       0.313   1.876  -0.967  1.00  0.00     0.171 HD
HETATM    6  H   UNL     1      -0.725   4.938   0.129  1.00  0.00     0.192 HD
ENDROOT
BRANCH   3   7
HETATM    7  N   UNL     1      -1.562   3.152  -0.510  1.00  0.00    -0.265 N 
HETATM    8  C   UNL     1      -2.764   3.824  -0.698  1.00  0.00     0.253 C 
HETATM    9  O   UNL     1      -2.839   5.054  -0.660  1.00  0.00    -0.270 OA
HETATM   10  H   UNL     1      -1.634   2.214  -0.101  1.00  0.00     0.190 HD
BRANCH   8  11
HETATM   11  C   UNL     1      -4.013   2.944  -0.742  1.00  0.00     0.228 C 
BRANCH  11  12
HETATM   12  N   UNL     1      -3.905   1.769  -1.580  1.00  0.00    -0.334 N 
HETATM   13  C   UNL     1      -3.298   0.622  -1.184  1.00  0.00     0.322 C 
HETATM   14  N   UNL     1      -3.467  -0.484  -1.953  1.00  0.00    -0.287 N 
HETATM   15  O   UNL     1      -2.586   0.587  -0.179  1.00  0.00    -0.247 OA
HETATM   16  H   UNL     1      -2.994  -1.322  -1.650  1.00  0.00     0.172 HD
HETATM   17  H   UNL     1      -4.519   1.702  -2.391  1.00  0.00     0.164 HD
BRANCH  14  18
HETATM   18  C   UNL     1      -4.223  -0.554  -3.088  1.00  0.00     0.174 A 
HETATM   19  S   UNL     1      -4.242  -2.076  -3.854  1.00  0.00    -0.062 SA
HETATM   20  C   UNL     1      -5.267  -1.424  -5.067  1.00  0.00     0.072 A 
HETATM   21  C   UNL     1      -5.523  -0.097  -4.793  1.00  0.00     0.126 A 
HETATM   22  N   UNL     1      -4.926   0.401  -3.649  1.00  0.00    -0.236 NA
ENDBRANCH  14  18
ENDBRANCH  11  12
ENDBRANCH   8  11
ENDBRANCH   3   7
BRANCH   1  23
HETATM   23  C   UNL     1       2.329   1.666  -0.502  1.00  0.00     0.059 A 
HETATM   24  C   UNL     1       3.469   2.185   0.127  1.00  0.00     0.047 A 
HETATM   25  C   UNL     1       4.693   1.491   0.121  1.00  0.00     0.050 A 
HETATM   26  C   UNL     1       4.771   0.257  -0.538  1.00  0.00     0.018 A 
HETATM   27  C   UNL     1       3.643  -0.279  -1.163  1.00  0.00     0.027 A 
HETATM   28  C   UNL     1       2.430   0.418  -1.140  1.00  0.00     0.060 A 
HETATM   29 CL   UNL     1       1.064  -0.299  -1.927  1.00  0.00    -0.082 Cl
BRANCH  25  30
HETATM   30  C   UNL     1       5.898   2.095   0.804  1.00  0.00     0.417 C 
HETATM   31  F   UNL     1       6.934   1.219   0.938  1.00  0.00    -0.166 F 
HETATM   32  F   UNL     1       6.401   3.163   0.128  1.00  0.00    -0.166 F 
HETATM   33  F   UNL     1       5.624   2.536   2.062  1.00  0.00    -0.166 F 
ENDBRANCH  25  30
ENDBRANCH   1  23
TORSDOF 6
