REMARK  5 active torsions:
REMARK  status: ('A' for Active; 'I' for Inactive)
REMARK    1  A    between atoms: C_3  and  O_4 
REMARK    2  A    between atoms: O_4  and  C_5 
REMARK    3  A    between atoms: C_8  and  N_9 
REMARK       I    between atoms: N_9  and  C_10 
REMARK    4  A    between atoms: C_10  and  C_11 
REMARK    5  A    between atoms: C_11  and  C_12 
ROOT
HETATM    1  C   UNL     1       1.959   3.368  -1.618  1.00  0.00     0.004 A 
HETATM    2  C   UNL     1       2.410   2.444  -0.675  1.00  0.00     0.037 A 
HETATM    3  C   UNL     1       3.609   1.759  -0.883  1.00  0.00     0.077 A 
HETATM    4  C   UNL     1       4.377   2.018  -2.021  1.00  0.00     0.059 A 
HETATM    5  C   UNL     1       3.929   2.950  -2.964  1.00  0.00     0.047 A 
HETATM    6  C   UNL     1       4.719   3.230  -4.127  1.00  0.00     0.099 C 
HETATM    7  N   UNL     1       5.356   3.462  -5.069  1.00  0.00    -0.191 NA
HETATM    8  C   UNL     1       2.717   3.621  -2.762  1.00  0.00     0.023 A 
ENDROOT
BRANCH   3   9
HETATM    9  O   UNL     1       4.018   0.912   0.123  1.00  0.00    -0.311 OA
BRANCH   9  10
HETATM   10  C   UNL     1       4.506  -0.309  -0.272  1.00  0.00     0.076 A 
HETATM   11  C   UNL     1       5.870  -0.558  -0.150  1.00  0.00     0.039 A 
HETATM   12  C   UNL     1       6.384  -1.811  -0.498  1.00  0.00     0.032 A 
HETATM   13  C   UNL     1       5.534  -2.829  -0.939  1.00  0.00     0.034 A 
HETATM   14  C   UNL     1       4.157  -2.573  -1.026  1.00  0.00     0.032 A 
HETATM   15  C   UNL     1       3.642  -1.316  -0.695  1.00  0.00     0.039 A 
BRANCH  13  16
HETATM   16  N   UNL     1       5.972  -4.126  -1.284  1.00  0.00    -0.327 N 
HETATM   17  C   UNL     1       7.283  -4.578  -1.372  1.00  0.00     0.227 C 
HETATM   18  O   UNL     1       8.287  -3.883  -1.241  1.00  0.00    -0.273 OA
HETATM   19  H   UNL     1       5.244  -4.788  -1.524  1.00  0.00     0.169 HD
BRANCH  17  20
HETATM   20  C   UNL     1       7.350  -6.068  -1.726  1.00  0.00     0.159 C 
BRANCH  20  21
HETATM   21  C   UNL     1       8.640  -6.740  -1.357  1.00  0.00     0.017 A 
HETATM   22  N   UNL     1       9.816  -6.053  -1.151  1.00  0.00    -0.369 N 
HETATM   23  H   UNL     1       9.902  -5.041  -1.194  1.00  0.00     0.165 HD
HETATM   24  C   UNL     1      10.822  -6.932  -0.851  1.00  0.00     0.088 A 
HETATM   25  C   UNL     1      10.295  -8.202  -0.867  1.00  0.00     0.019 A 
HETATM   26  C   UNL     1       8.921  -8.084  -1.186  1.00  0.00     0.027 A 
ENDBRANCH  20  21
ENDBRANCH  17  20
ENDBRANCH  13  16
ENDBRANCH   9  10
ENDBRANCH   3   9
TORSDOF 5
