REMARK  5 active torsions:
REMARK  status: ('A' for Active; 'I' for Inactive)
REMARK    1  A    between atoms: C_4  and  C_5 
REMARK       I    between atoms: C_5  and  N_6 
REMARK    2  A    between atoms: N_6  and  C_7 
REMARK    3  A    between atoms: C_7  and  C_8 
REMARK    4  A    between atoms: C_8  and  C_9 
REMARK    5  A    between atoms: C_18  and  O_19 
ROOT
HETATM    1  C   UNL     1       5.268   2.184  -0.204  1.00  0.00     0.254 C 
HETATM    2  N   UNL     1       6.589   2.459  -0.464  1.00  0.00    -0.356 N 
HETATM    3  O   UNL     1       4.809   1.047  -0.269  1.00  0.00    -0.268 OA
HETATM    4  H   UNL     1       6.914   3.399  -0.244  1.00  0.00     0.162 HD
ENDROOT
BRANCH   2   5
HETATM    5  C   UNL     1       7.558   1.407  -0.699  1.00  0.00     0.136 C 
BRANCH   5   6
HETATM    6  C   UNL     1       8.941   1.930  -1.187  1.00  0.00    -0.004 C 
HETATM    7  C   UNL     1       9.884   0.717  -1.359  1.00  0.00     0.021 C 
HETATM    8  C   UNL     1       8.744   2.555  -2.589  1.00  0.00     0.021 C 
BRANCH   6   9
HETATM    9  C   UNL     1       9.575   2.894  -0.166  1.00  0.00    -0.046 A 
HETATM   10  C   UNL     1       9.696   2.526   1.184  1.00  0.00     0.027 A 
HETATM   11  C   UNL     1      10.266   3.411   2.089  1.00  0.00     0.116 A 
HETATM   12  N   UNL     1      10.730   4.631   1.756  1.00  0.00    -0.273 NA
HETATM   13  C   UNL     1      10.625   4.973   0.457  1.00  0.00     0.116 A 
HETATM   14  C   UNL     1      10.067   4.158  -0.520  1.00  0.00     0.027 A 
ENDBRANCH   6   9
ENDBRANCH   5   6
ENDBRANCH   2   5
BRANCH   1  15
HETATM   15  C   UNL     1       4.391   3.338   0.181  1.00  0.00     0.065 A 
HETATM   16  C   UNL     1       3.037   3.052   0.432  1.00  0.00     0.026 A 
HETATM   17  C   UNL     1       2.134   4.062   0.794  1.00  0.00    -0.061 A 
HETATM   18  C   UNL     1       0.698   3.741   1.082  1.00  0.00     0.048 C 
HETATM   19  C   UNL     1       2.598   5.375   0.916  1.00  0.00     0.009 A 
HETATM   20  C   UNL     1       3.940   5.677   0.676  1.00  0.00     0.038 A 
HETATM   21  C   UNL     1       4.833   4.664   0.314  1.00  0.00     0.081 A 
BRANCH  21  22
HETATM   22  O   UNL     1       6.147   4.996   0.101  1.00  0.00    -0.360 OA
HETATM   23  H   UNL     1       6.272   5.939   0.308  1.00  0.00     0.217 HD
ENDBRANCH  21  22
ENDBRANCH   1  15
TORSDOF 5
