REMARK  7 active torsions:
REMARK  status: ('A' for Active; 'I' for Inactive)
REMARK    1  A    between atoms: C_2  and  O_3 
REMARK    2  A    between atoms: O_3  and  C_4 
REMARK    3  A    between atoms: C_5  and  C_6 
REMARK       I    between atoms: C_6  and  N_7 
REMARK    4  A    between atoms: N_7  and  C_8 
REMARK    5  A    between atoms: C_8  and  C_9 
REMARK    6  A    between atoms: C_9  and  N_10 
REMARK    7  A    between atoms: N_14  and  C_15 
ROOT
HETATM    1  C   UNL     1       4.517   3.136  -0.126  1.00  0.00     0.255 C 
HETATM    2  N   UNL     1       5.347   2.761  -1.162  1.00  0.00    -0.355 N 
HETATM    3  O   UNL     1       4.951   3.549   0.945  1.00  0.00    -0.268 OA
HETATM    4  H   UNL     1       4.900   2.386  -1.997  1.00  0.00     0.162 HD
ENDROOT
BRANCH   2   5
HETATM    5  C   UNL     1       6.777   2.534  -0.996  1.00  0.00     0.150 C 
BRANCH   5   6
HETATM    6  C   UNL     1       7.623   3.798  -0.731  1.00  0.00     0.254 C 
BRANCH   6   7
HETATM    7  N   UNL     1       7.334   4.443   0.600  1.00  0.00    -0.067 N 
HETATM    8  H   UNL     1       6.299   4.424   0.719  1.00  0.00     0.280 HD
HETATM    9  C   UNL     1       7.852   3.670   1.812  1.00  0.00     0.254 C 
HETATM   10  C   UNL     1       7.406   4.369   3.116  1.00  0.00     0.150 C 
HETATM   11  N   UNL     1       7.864   5.773   3.136  1.00  0.00    -0.378 N 
HETATM   12  C   UNL     1       7.352   6.558   1.990  1.00  0.00     0.150 C 
HETATM   13  C   UNL     1       7.763   5.904   0.651  1.00  0.00     0.254 C 
BRANCH  11  14
HETATM   14  C   UNL     1       9.079   6.128   3.718  1.00  0.00     0.030 A 
HETATM   15  C   UNL     1      10.013   5.183   4.179  1.00  0.00     0.031 A 
HETATM   16  C   UNL     1      11.217   5.562   4.792  1.00  0.00     0.026 A 
HETATM   17  C   UNL     1      11.512   6.906   4.968  1.00  0.00     0.034 A 
HETATM   18 CL   UNL     1      12.982   7.372   5.724  1.00  0.00    -0.084 Cl
HETATM   19  C   UNL     1      10.609   7.869   4.544  1.00  0.00     0.026 A 
HETATM   20  C   UNL     1       9.408   7.479   3.936  1.00  0.00     0.031 A 
ENDBRANCH  11  14
ENDBRANCH   6   7
ENDBRANCH   5   6
ENDBRANCH   2   5
BRANCH   1  21
HETATM   21  C   UNL     1       3.067   3.038  -0.394  1.00  0.00     0.076 A 
HETATM   22  C   UNL     1       2.328   4.234  -0.455  1.00  0.00     0.085 A 
HETATM   23  C   UNL     1       0.967   4.167  -0.746  1.00  0.00     0.039 A 
HETATM   24  C   UNL     1       0.350   2.928  -0.945  1.00  0.00     0.015 A 
HETATM   25  C   UNL     1       1.073   1.730  -0.853  1.00  0.00    -0.025 A 
HETATM   26  C   UNL     1       2.457   1.764  -0.564  1.00  0.00    -0.007 A 
HETATM   27  C   UNL     1       0.424   0.499  -1.041  1.00  0.00     0.012 A 
HETATM   28  C   UNL     1       3.134   0.523  -0.446  1.00  0.00     0.013 A 
HETATM   29  C   UNL     1       2.474  -0.693  -0.633  1.00  0.00     0.001 A 
HETATM   30  C   UNL     1       1.119  -0.704  -0.936  1.00  0.00     0.001 A 
BRANCH  22  31
HETATM   31  O   UNL     1       3.011   5.411  -0.277  1.00  0.00    -0.350 OA
BRANCH  31  32
HETATM   32  C   UNL     1       2.236   6.520   0.188  1.00  0.00     0.171 C 
HETATM   33  C   UNL     1       3.198   7.587   0.677  1.00  0.00     0.034 C 
ENDBRANCH  31  32
ENDBRANCH  22  31
ENDBRANCH   1  21
TORSDOF 7
