REMARK  8 active torsions:
REMARK  status: ('A' for Active; 'I' for Inactive)
REMARK    1  A    between atoms: O_2  and  C_3 
REMARK    2  A    between atoms: C_6  and  N_7 
REMARK    3  A    between atoms: N_7  and  C_8 
REMARK    4  A    between atoms: C_11  and  C_12 
REMARK    5  A    between atoms: C_15  and  C_16 
REMARK       I    between atoms: C_16  and  N_17 
REMARK    6  A    between atoms: N_17  and  C_18 
REMARK    7  A    between atoms: C_18  and  C_19 
REMARK    8  A    between atoms: C_19  and  O_20 
ROOT
HETATM    1  C   UNL     1       5.317   2.988  -5.067  1.00  0.00     0.161 A 
HETATM    2  N   UNL     1       5.340   1.664  -5.328  1.00  0.00    -0.131 NA
HETATM    3  N   UNL     1       5.735   1.192  -6.546  1.00  0.00    -0.147 NA
HETATM    4  C   UNL     1       6.119   2.050  -7.517  1.00  0.00     0.100 A 
HETATM    5  C   UNL     1       6.119   3.443  -7.318  1.00  0.00     0.009 A 
HETATM    6  C   UNL     1       5.714   3.924  -6.050  1.00  0.00     0.024 A 
HETATM    7  C   UNL     1       6.491   4.382  -8.314  1.00  0.00     0.015 A 
HETATM    8  C   UNL     1       6.495   5.754  -8.063  1.00  0.00     0.001 A 
HETATM    9  C   UNL     1       6.125   6.225  -6.813  1.00  0.00     0.001 A 
HETATM   10  C   UNL     1       5.739   5.323  -5.821  1.00  0.00     0.016 A 
ENDROOT
BRANCH   4  11
HETATM   11  C   UNL     1       6.524   1.377  -8.760  1.00  0.00    -0.005 A 
HETATM   12  C   UNL     1       5.582   0.657  -9.515  1.00  0.00     0.015 A 
HETATM   13  C   UNL     1       5.956  -0.025 -10.678  1.00  0.00     0.018 A 
HETATM   14  C   UNL     1       7.290  -0.010 -11.097  1.00  0.00     0.032 A 
HETATM   15  C   UNL     1       8.236   0.716 -10.364  1.00  0.00     0.018 A 
HETATM   16  C   UNL     1       7.857   1.395  -9.201  1.00  0.00     0.015 A 
BRANCH  14  17
HETATM   17  C   UNL     1       7.746  -0.743 -12.309  1.00  0.00     0.251 C 
HETATM   18  N   UNL     1       7.033  -1.873 -12.648  1.00  0.00    -0.355 N 
HETATM   19  H   UNL     1       6.335  -2.242 -12.017  1.00  0.00     0.162 HD
HETATM   20  O   UNL     1       8.735  -0.364 -12.926  1.00  0.00    -0.268 OA
BRANCH  18  21
HETATM   21  C   UNL     1       7.422  -2.705 -13.776  1.00  0.00     0.148 C 
BRANCH  21  22
HETATM   22  C   UNL     1       8.624  -3.593 -13.455  1.00  0.00     0.183 C 
BRANCH  22  23
HETATM   23  O   UNL     1       8.323  -4.443 -12.348  1.00  0.00    -0.399 OA
HETATM   24  H   UNL     1       8.277  -3.858 -11.570  1.00  0.00     0.209 HD
ENDBRANCH  22  23
ENDBRANCH  21  22
ENDBRANCH  18  21
ENDBRANCH  14  17
ENDBRANCH   4  11
BRANCH   1  25
HETATM   25  N   UNL     1       4.856   3.452  -3.805  1.00  0.00    -0.339 N 
HETATM   26  H   UNL     1       4.064   4.068  -3.957  1.00  0.00     0.167 HD
BRANCH  25  27
HETATM   27  C   UNL     1       4.722   2.701  -2.617  1.00  0.00     0.033 A 
HETATM   28  C   UNL     1       5.594   1.656  -2.290  1.00  0.00     0.032 A 
HETATM   29  C   UNL     1       5.494   0.978  -1.068  1.00  0.00     0.039 A 
HETATM   30  C   UNL     1       4.527   1.351  -0.138  1.00  0.00     0.068 A 
HETATM   31  C   UNL     1       3.665   2.404  -0.444  1.00  0.00     0.039 A 
HETATM   32  C   UNL     1       3.771   3.083  -1.663  1.00  0.00     0.032 A 
BRANCH  30  33
HETATM   33  O   UNL     1       4.327   0.781   1.089  1.00  0.00    -0.356 OA
HETATM   34  C   UNL     1       5.258  -0.217   1.488  1.00  0.00     0.210 C 
ENDBRANCH  30  33
ENDBRANCH  25  27
ENDBRANCH   1  25
TORSDOF 8
