REMARK  9 active torsions:
REMARK  status: ('A' for Active; 'I' for Inactive)
REMARK    1  A    between atoms: C_2  and  O_3 
REMARK    2  A    between atoms: O_3  and  C_4 
REMARK    3  A    between atoms: C_4  and  C_5 
REMARK    4  A    between atoms: C_7  and  C_8 
REMARK       I    between atoms: C_8  and  N_9 
REMARK    5  A    between atoms: N_9  and  N_10 
REMARK    6  A    between atoms: N_10  and  C_11 
REMARK    7  A    between atoms: C_11  and  N_12 
REMARK    8  A    between atoms: N_12  and  C_13 
REMARK    9  A    between atoms: C_13  and  C_14 
ROOT
HETATM    1  C   UNL     1       5.851  -0.888  -0.050  1.00  0.00     0.078 A 
HETATM    2  O   UNL     1       7.079  -0.432  -0.428  1.00  0.00    -0.307 OA
HETATM    3  C   UNL     1       7.957  -1.483  -0.363  1.00  0.00     0.145 A 
HETATM    4  C   UNL     1       7.282  -2.603   0.092  1.00  0.00     0.045 A 
HETATM    5  C   UNL     1       5.931  -2.221   0.287  1.00  0.00     0.038 A 
ENDROOT
BRANCH   3   6
HETATM    6  C   UNL     1       9.325  -1.241  -0.776  1.00  0.00     0.293 C 
HETATM    7  N   UNL     1      10.160  -2.346  -0.734  1.00  0.00    -0.262 N 
HETATM    8  H   UNL     1       9.876  -3.266  -0.416  1.00  0.00     0.190 HD
HETATM    9  O   UNL     1       9.756  -0.152  -1.161  1.00  0.00    -0.264 OA
BRANCH   7  10
HETATM   10  N   UNL     1      11.469  -2.210  -1.224  1.00  0.00    -0.274 N 
HETATM   11  H   UNL     1      11.702  -1.256  -1.495  1.00  0.00     0.189 HD
BRANCH  10  12
HETATM   12  C   UNL     1      12.470  -3.055  -0.821  1.00  0.00     0.186 C 
HETATM   13  S   UNL     1      12.260  -4.398   0.154  1.00  0.00    -0.040 SA
BRANCH  12  14
HETATM   14  N   UNL     1      13.714  -2.787  -1.314  1.00  0.00    -0.364 N 
HETATM   15  H   UNL     1      14.400  -3.508  -1.101  1.00  0.00     0.162 HD
BRANCH  14  16
HETATM   16  C   UNL     1      14.023  -1.994  -2.500  1.00  0.00     0.154 C 
BRANCH  16  17
HETATM   17  C   UNL     1      15.525  -1.755  -2.642  1.00  0.00     0.139 C 
HETATM   18  O   UNL     1      16.237  -3.009  -2.673  1.00  0.00    -0.384 OA
HETATM   19  C   UNL     1      17.374  -2.856  -3.537  1.00  0.00     0.168 C 
HETATM   20  C   UNL     1      17.346  -1.442  -4.084  1.00  0.00     0.029 C 
HETATM   21  C   UNL     1      15.896  -1.054  -3.935  1.00  0.00     0.035 C 
ENDBRANCH  16  17
ENDBRANCH  14  16
ENDBRANCH  12  14
ENDBRANCH  10  12
ENDBRANCH   7  10
ENDBRANCH   3   6
BRANCH   1  22
HETATM   22  C   UNL     1       4.737   0.094  -0.089  1.00  0.00     0.240 C 
BRANCH  22  23
HETATM   23  O   UNL     1       4.206   0.043  -1.410  1.00  0.00    -0.345 OA
BRANCH  23  24
HETATM   24  C   UNL     1       3.226   0.949  -1.719  1.00  0.00     0.069 A 
HETATM   25  C   UNL     1       2.523   1.741  -0.797  1.00  0.00     0.037 A 
HETATM   26  C   UNL     1       1.518   2.617  -1.226  1.00  0.00     0.010 A 
HETATM   27  C   UNL     1       1.242   2.696  -2.580  1.00  0.00    -0.052 A 
HETATM   28  C   UNL     1       1.941   1.912  -3.501  1.00  0.00    -0.049 A 
HETATM   29  C   UNL     1       0.195   3.515  -3.265  1.00  0.00     0.039 C 
HETATM   30  C   UNL     1       2.924   1.029  -3.083  1.00  0.00     0.044 A 
HETATM   31  C   UNL     1       1.435   2.139  -4.890  1.00  0.00     0.039 C 
HETATM   32  C   UNL     1       0.685   3.469  -4.720  1.00  0.00     0.009 C 
ENDBRANCH  23  24
ENDBRANCH  22  23
ENDBRANCH   1  22
TORSDOF 9
