REMARK  6 active torsions:
REMARK  status: ('A' for Active; 'I' for Inactive)
REMARK    1  A    between atoms: C_4  and  C_5 
REMARK    2  A    between atoms: C_5  and  N_6 
REMARK    3  A    between atoms: C_5  and  C_19 
REMARK       I    between atoms: N_6  and  C_7 
REMARK    4  A    between atoms: C_7  and  C_8 
REMARK       I    between atoms: C_19  and  N_20 
REMARK    5  A    between atoms: N_20  and  C_21 
REMARK    6  A    between atoms: C_21  and  C_22 
ROOT
HETATM    1  C   UNL     1       2.611  -0.132  -0.117  1.00  0.00     0.210 C 
ENDROOT
BRANCH   1   2
HETATM    2  C   UNL     1       1.166   0.026   0.337  1.00  0.00    -0.026 A 
HETATM    3  C   UNL     1       0.288   0.856  -0.381  1.00  0.00     0.010 A 
HETATM    4  C   UNL     1      -1.044   0.999   0.017  1.00  0.00     0.001 A 
HETATM    5  C   UNL     1      -1.515   0.325   1.141  1.00  0.00     0.000 A 
HETATM    6  C   UNL     1      -0.654  -0.488   1.873  1.00  0.00     0.001 A 
HETATM    7  C   UNL     1       0.676  -0.634   1.476  1.00  0.00     0.010 A 
ENDBRANCH   1   2
BRANCH   1   8
HETATM    8  N   UNL     1       3.501   0.845   0.514  1.00  0.00    -0.340 N 
HETATM    9  C   UNL     1       3.777   0.906   1.856  1.00  0.00     0.253 C 
HETATM   10  O   UNL     1       3.529  -0.009   2.634  1.00  0.00    -0.268 OA
HETATM   11  H   UNL     1       3.833   1.591  -0.080  1.00  0.00     0.164 HD
BRANCH   9  12
HETATM   12  C   UNL     1       4.506   2.100   2.333  1.00  0.00     0.047 A 
HETATM   13  C   UNL     1       4.296   3.394   1.815  1.00  0.00     0.027 A 
HETATM   14  C   UNL     1       5.084   4.409   2.354  1.00  0.00     0.138 A 
HETATM   15  C   UNL     1       3.439   4.024   0.863  1.00  0.00     0.033 A 
HETATM   16  N   UNL     1       4.760   5.583   1.732  1.00  0.00    -0.350 N 
HETATM   17  N   UNL     1       6.011   4.305   3.322  1.00  0.00    -0.242 NA
HETATM   18  H   UNL     1       5.196   6.468   1.949  1.00  0.00     0.166 HD
HETATM   19  C   UNL     1       3.759   5.365   0.822  1.00  0.00     0.090 A 
HETATM   20  C   UNL     1       6.139   3.052   3.808  1.00  0.00     0.120 A 
HETATM   21  C   UNL     1       5.435   1.943   3.368  1.00  0.00     0.037 A 
ENDBRANCH   9  12
ENDBRANCH   1   8
BRANCH   1  22
HETATM   22  C   UNL     1       3.064  -1.619  -0.181  1.00  0.00     0.245 C 
HETATM   23  N   UNL     1       3.864  -2.075   0.844  1.00  0.00    -0.354 N 
HETATM   24  H   UNL     1       3.889  -1.492   1.682  1.00  0.00     0.162 HD
HETATM   25  O   UNL     1       2.631  -2.382  -1.050  1.00  0.00    -0.271 OA
BRANCH  23  26
HETATM   26  C   UNL     1       4.013  -3.497   1.039  1.00  0.00     0.168 C 
BRANCH  26  27
HETATM   27  C   UNL     1       5.085  -3.800   2.036  1.00  0.00     0.000 A 
HETATM   28  S   UNL     1       5.070  -3.100   3.603  1.00  0.00    -0.105 SA
HETATM   29  C   UNL     1       6.476  -3.951   4.071  1.00  0.00     0.050 A 
HETATM   30  C   UNL     1       6.942  -4.771   3.069  1.00  0.00     0.008 A 
HETATM   31  C   UNL     1       6.141  -4.681   1.894  1.00  0.00     0.017 A 
ENDBRANCH  26  27
ENDBRANCH  23  26
ENDBRANCH   1  22
TORSDOF 6
