REMARK  7 active torsions:
REMARK  status: ('A' for Active; 'I' for Inactive)
REMARK    1  A    between atoms: C_2  and  N_3 
REMARK    2  A    between atoms: N_3  and  C_4 
REMARK    3  A    between atoms: C_6  and  N_7 
REMARK    4  A    between atoms: N_7  and  C_8 
REMARK    5  A    between atoms: C_8  and  C_9 
REMARK    6  A    between atoms: C_9  and  C_10 
REMARK    7  A    between atoms: C_13  and  O_14 
ROOT
HETATM    1  C   UNL     1       2.504   2.423   0.581  1.00  0.00     0.119 A 
HETATM    2  N   UNL     1       3.123   3.357   1.327  1.00  0.00    -0.207 NA
HETATM    3  C   UNL     1       3.030   4.642   0.952  1.00  0.00     0.181 A 
HETATM    4  N   UNL     1       2.317   5.025  -0.104  1.00  0.00    -0.330 N 
HETATM    5  H   UNL     1       2.245   6.019  -0.276  1.00  0.00     0.168 HD
HETATM    6  C   UNL     1       1.666   4.143  -0.869  1.00  0.00     0.048 A 
HETATM    7  C   UNL     1       1.737   2.774  -0.550  1.00  0.00     0.031 A 
HETATM    8  C   UNL     1       0.919   4.588  -1.971  1.00  0.00     0.030 A 
HETATM    9  C   UNL     1       0.232   3.672  -2.767  1.00  0.00     0.002 A 
HETATM   10  C   UNL     1       0.281   2.315  -2.464  1.00  0.00     0.001 A 
HETATM   11  C   UNL     1       1.021   1.868  -1.367  1.00  0.00     0.017 A 
ENDROOT
BRANCH   3  12
HETATM   12  N   UNL     1       3.662   5.656   1.663  1.00  0.00    -0.262 NA
HETATM   13  H   UNL     1       4.138   6.328   1.069  1.00  0.00     0.130 HD
BRANCH  12  14
HETATM   14  C   UNL     1       4.530   5.195   2.759  1.00  0.00     0.100 C 
BRANCH  14  15
HETATM   15  C   UNL     1       5.126   6.407   3.487  1.00  0.00     0.053 C 
BRANCH  15  16
HETATM   16  C   UNL     1       6.108   6.005   4.556  1.00  0.00    -0.057 A 
HETATM   17  C   UNL     1       7.439   5.725   4.227  1.00  0.00     0.010 A 
HETATM   18  C   UNL     1       8.347   5.354   5.222  1.00  0.00     0.037 A 
HETATM   19  C   UNL     1       7.945   5.260   6.555  1.00  0.00     0.068 A 
HETATM   20  C   UNL     1       6.618   5.526   6.886  1.00  0.00     0.037 A 
HETATM   21  C   UNL     1       5.703   5.894   5.892  1.00  0.00     0.010 A 
BRANCH  19  22
HETATM   22  O   UNL     1       8.936   4.898   7.425  1.00  0.00    -0.356 OA
HETATM   23  C   UNL     1       8.628   4.960   8.813  1.00  0.00     0.210 C 
ENDBRANCH  19  22
ENDBRANCH  15  16
ENDBRANCH  14  15
ENDBRANCH  12  14
ENDBRANCH   3  12
BRANCH   1  24
HETATM   24  N   UNL     1       2.574   1.086   0.977  1.00  0.00    -0.273 NA
HETATM   25  H   UNL     1       2.829   0.469   0.209  1.00  0.00     0.129 HD
BRANCH  24  26
HETATM   26  C   UNL     1       3.282   0.742   2.216  1.00  0.00     0.053 C 
HETATM   27  C   UNL     1       4.790   0.679   1.984  1.00  0.00     0.026 C 
HETATM   28  C   UNL     1       2.767  -0.620   2.685  1.00  0.00     0.026 C 
ENDBRANCH  24  26
ENDBRANCH   1  24
TORSDOF 7
