REMARK  6 active torsions:
REMARK  status: ('A' for Active; 'I' for Inactive)
REMARK    1  A    between atoms: N_2  and  C_4 
REMARK    2  A    between atoms: N_2  and  C_11 
REMARK    3  A    between atoms: C_4  and  C_5 
REMARK    4  A    between atoms: C_5  and  O_6 
REMARK    5  A    between atoms: C_11  and  C_12 
REMARK    6  A    between atoms: C_13  and  C_14 
ROOT
HETATM    1  C   UNL     1       2.732  -2.330   1.257  1.00  0.00     0.016 A 
HETATM    2  C   UNL     1       3.300  -3.290   2.161  1.00  0.00     0.102 A 
HETATM    3  N   UNL     1       3.007  -4.538   1.775  1.00  0.00    -0.174 NA
HETATM    4  N   UNL     1       2.301  -4.405   0.651  1.00  0.00    -0.288 N 
HETATM    5  H   UNL     1       1.983  -5.250   0.183  1.00  0.00     0.188 HD
HETATM    6  C   UNL     1       2.114  -3.102   0.288  1.00  0.00     0.120 A 
ENDROOT
BRANCH   1   7
HETATM    7  C   UNL     1       2.854  -0.849   1.361  1.00  0.00     0.277 C 
BRANCH   7   8
HETATM    8  N   UNL     1       2.158  -0.056   0.272  1.00  0.00    -0.068 N 
HETATM    9  C   UNL     1       0.660  -0.039   0.474  1.00  0.00     0.270 C 
HETATM   10  H   UNL     1       2.346  -0.551  -0.605  1.00  0.00     0.279 HD
BRANCH   8  11
HETATM   11  C   UNL     1       2.752   1.347   0.161  1.00  0.00     0.272 C 
BRANCH  11  12
HETATM   12  C   UNL     1       2.302   2.115  -1.103  1.00  0.00     0.082 C 
HETATM   13  C   UNL     1       3.024   3.460  -1.219  1.00  0.00     0.039 C 
HETATM   14  C   UNL     1       2.857   3.845  -2.684  1.00  0.00     0.003 C 
HETATM   15  C   UNL     1       2.837   2.526  -3.451  1.00  0.00     0.003 C 
HETATM   16  C   UNL     1       2.657   1.411  -2.416  1.00  0.00     0.039 C 
BRANCH  12  17
HETATM   17  O   UNL     1       0.891   2.335  -1.038  1.00  0.00    -0.388 OA
HETATM   18  H   UNL     1       0.618   2.913  -1.777  1.00  0.00     0.210 HD
ENDBRANCH  12  17
ENDBRANCH  11  12
ENDBRANCH   8  11
ENDBRANCH   7   8
ENDBRANCH   1   7
BRANCH   2  19
HETATM   19  C   UNL     1       4.101  -3.066   3.358  1.00  0.00     0.072 A 
HETATM   20  C   UNL     1       3.629  -2.276   4.408  1.00  0.00     0.132 A 
HETATM   21  F   UNL     1       2.433  -1.674   4.319  1.00  0.00    -0.205 F 
HETATM   22  C   UNL     1       4.386  -2.073   5.563  1.00  0.00     0.043 A 
HETATM   23  C   UNL     1       5.640  -2.670   5.683  1.00  0.00     0.006 A 
HETATM   24  C   UNL     1       6.130  -3.459   4.644  1.00  0.00     0.043 A 
HETATM   25  C   UNL     1       5.363  -3.651   3.494  1.00  0.00     0.132 A 
HETATM   26  F   UNL     1       5.890  -4.380   2.499  1.00  0.00    -0.205 F 
ENDBRANCH   2  19
TORSDOF 6
