REMARK  5 active torsions:
REMARK  status: ('A' for Active; 'I' for Inactive)
REMARK    1  A    between atoms: C_7  and  C_8 
REMARK       I    between atoms: C_8  and  N_9 
REMARK    2  A    between atoms: N_9  and  C_10 
REMARK    3  A    between atoms: C_10  and  C_11 
REMARK    4  A    between atoms: C_11  and  O_12 
REMARK    5  A    between atoms: C_11  and  C_13 
ROOT
HETATM    1  C   UNL     1      -2.010  -2.821  -3.652  1.00  0.00     0.254 C 
HETATM    2  N   UNL     1      -1.340  -2.161  -2.646  1.00  0.00    -0.354 N 
HETATM    3  O   UNL     1      -2.816  -2.252  -4.383  1.00  0.00    -0.268 OA
HETATM    4  H   UNL     1      -0.494  -2.594  -2.298  1.00  0.00     0.162 HD
ENDROOT
BRANCH   2   5
HETATM    5  C   UNL     1      -1.402  -0.712  -2.531  1.00  0.00     0.159 C 
BRANCH   5   6
HETATM    6  C   UNL     1      -0.928  -0.209  -1.154  1.00  0.00     0.175 C 
BRANCH   6   7
HETATM    7  O   UNL     1       0.390  -0.720  -0.905  1.00  0.00    -0.389 OA
HETATM    8  H   UNL     1       0.436  -1.020   0.019  1.00  0.00     0.210 HD
ENDBRANCH   6   7
BRANCH   6   9
HETATM    9  C   UNL     1      -1.923  -0.515  -0.059  1.00  0.00     0.049 A 
HETATM   10  C   UNL     1      -3.007   0.345   0.141  1.00  0.00     0.128 A 
HETATM   11  F   UNL     1      -3.126   1.447  -0.614  1.00  0.00    -0.205 F 
HETATM   12  C   UNL     1      -3.978   0.095   1.111  1.00  0.00     0.043 A 
HETATM   13  C   UNL     1      -3.885  -1.046   1.903  1.00  0.00     0.006 A 
HETATM   14  C   UNL     1      -2.819  -1.924   1.718  1.00  0.00     0.043 A 
HETATM   15  C   UNL     1      -1.856  -1.653   0.745  1.00  0.00     0.128 A 
HETATM   16  F   UNL     1      -0.832  -2.508   0.610  1.00  0.00    -0.205 F 
ENDBRANCH   6   9
ENDBRANCH   5   6
ENDBRANCH   2   5
BRANCH   1  17
HETATM   17  C   UNL     1      -1.645  -4.230  -3.827  1.00  0.00     0.066 A 
HETATM   18  C   UNL     1      -1.179  -5.126  -2.865  1.00  0.00     0.022 A 
HETATM   19  C   UNL     1      -0.955  -4.995  -1.400  1.00  0.00     0.069 C 
HETATM   20  N   UNL     1      -0.953  -6.329  -3.490  1.00  0.00    -0.358 N 
HETATM   21  H   UNL     1      -0.610  -7.165  -3.036  1.00  0.00     0.166 HD
HETATM   22  C   UNL     1      -1.294  -6.265  -4.817  1.00  0.00     0.043 A 
HETATM   23  C   UNL     1      -1.741  -4.968  -5.060  1.00  0.00     0.008 A 
HETATM   24  C   UNL     1      -1.245  -7.253  -5.809  1.00  0.00     0.030 A 
HETATM   25  C   UNL     1      -2.159  -4.644  -6.369  1.00  0.00     0.015 A 
HETATM   26  C   UNL     1      -2.119  -5.617  -7.374  1.00  0.00     0.001 A 
HETATM   27  C   UNL     1      -1.667  -6.904  -7.095  1.00  0.00     0.002 A 
ENDBRANCH   1  17
TORSDOF 5
