REMARK  3 active torsions:
REMARK  status: ('A' for Active; 'I' for Inactive)
REMARK    1  A    between atoms: C_4  and  C_5 
REMARK    2  A    between atoms: C_11  and  C_12 
REMARK    3  A    between atoms: C_21  and  N_22 
ROOT
HETATM    1  C   UNL     1       2.912   0.334  -0.627  1.00  0.00     0.098 A 
HETATM    2  N   UNL     1       3.725  -0.717  -0.860  1.00  0.00    -0.172 NA
HETATM    3  N   UNL     1       4.966  -0.198  -0.872  1.00  0.00    -0.256 N 
HETATM    4  H   UNL     1       5.753  -0.813  -1.044  1.00  0.00     0.191 HD
HETATM    5  C   UNL     1       4.976   1.138  -0.652  1.00  0.00     0.175 A 
HETATM    6  C   UNL     1       3.677   1.522  -0.453  1.00  0.00     0.036 A 
HETATM    7  C   UNL     1       3.366   2.949  -0.087  1.00  0.00     0.077 C 
HETATM    8  C   UNL     1       4.601   3.812  -0.423  1.00  0.00     0.076 C 
HETATM    9  C   UNL     1       4.390   5.200  -0.671  1.00  0.00     0.100 C 
HETATM   10  N   UNL     1       4.228   6.317  -0.940  1.00  0.00    -0.192 NA
HETATM   11  C   UNL     1       5.839   3.283  -0.645  1.00  0.00     0.140 C 
HETATM   12  O   UNL     1       6.064   1.896  -0.641  1.00  0.00    -0.279 OA
ENDROOT
BRANCH   7  13
HETATM   13  C   UNL     1       2.845   3.009   1.394  1.00  0.00     0.003 C 
HETATM   14  C   UNL     1       3.923   2.754   2.468  1.00  0.00     0.032 C 
HETATM   15  C   UNL     1       4.616   3.989   2.950  1.00  0.00    -0.030 C 
HETATM   16  C   UNL     1       4.096   5.216   2.823  1.00  0.00    -0.031 C 
HETATM   17  C   UNL     1       2.763   5.494   2.203  1.00  0.00     0.027 C 
HETATM   18  C   UNL     1       1.998   4.252   1.737  1.00  0.00     0.009 C 
ENDBRANCH   7  13
BRANCH  11  19
HETATM   19  N   UNL     1       6.976   3.997  -0.952  1.00  0.00    -0.282 NA
HETATM   20  H   UNL     1       6.824   4.921  -1.350  1.00  0.00     0.126 HD
HETATM   21  H   UNL     1       7.647   3.442  -1.474  1.00  0.00     0.126 HD
ENDBRANCH  11  19
BRANCH   1  22
HETATM   22  C   UNL     1       1.464   0.150  -0.551  1.00  0.00    -0.005 A 
HETATM   23  C   UNL     1       0.934  -0.962   0.119  1.00  0.00     0.014 A 
HETATM   24  C   UNL     1      -0.447  -1.149   0.205  1.00  0.00     0.001 A 
HETATM   25  C   UNL     1      -1.312  -0.228  -0.383  1.00  0.00     0.000 A 
HETATM   26  C   UNL     1      -0.797   0.875  -1.062  1.00  0.00     0.001 A 
HETATM   27  C   UNL     1       0.585   1.062  -1.149  1.00  0.00     0.014 A 
ENDBRANCH   1  22
TORSDOF 3
