REMARK  3 active torsions:
REMARK  status: ('A' for Active; 'I' for Inactive)
REMARK    1  A    between atoms: C_2  and  C_3 
REMARK    2  A    between atoms: C_11  and  C_12 
REMARK    3  A    between atoms: C_12  and  C_13 
ROOT
HETATM    1  C   UNL     1       2.966   1.566   0.278  1.00  0.00     0.041 A 
HETATM    2  N   UNL     1       4.090   1.716   1.019  1.00  0.00    -0.245 NA
HETATM    3  C   UNL     1       4.440   2.989   1.285  1.00  0.00     0.111 A 
HETATM    4  C   UNL     1       3.772   4.134   0.875  1.00  0.00     0.028 A 
HETATM    5  C   UNL     1       2.615   3.937   0.092  1.00  0.00     0.025 A 
HETATM    6  C   UNL     1       2.206   2.633  -0.220  1.00  0.00    -0.036 A 
HETATM    7  C   UNL     1       0.962   2.433  -1.035  1.00  0.00     0.050 C 
HETATM    8  S   UNL     1       5.819   3.333   2.222  1.00  0.00    -0.063 SA
HETATM    9  C   UNL     1       5.581   5.025   2.087  1.00  0.00     0.085 A 
HETATM   10  C   UNL     1       4.433   5.305   1.367  1.00  0.00     0.060 A 
HETATM   11  N   UNL     1       3.987   6.567   1.147  1.00  0.00    -0.397 N 
HETATM   12  H   UNL     1       4.362   7.325   1.726  1.00  0.00     0.156 HD
HETATM   13  H   UNL     1       3.027   6.741   0.868  1.00  0.00     0.156 HD
ENDROOT
BRANCH   9  14
HETATM   14  C   UNL     1       6.454   5.980   2.753  1.00  0.00     0.201 C 
HETATM   15  O   UNL     1       6.044   7.065   3.175  1.00  0.00    -0.286 OA
BRANCH  14  16
HETATM   16  C   UNL     1       7.909   5.716   2.924  1.00  0.00     0.018 A 
HETATM   17  C   UNL     1       8.523   6.137   4.114  1.00  0.00     0.055 A 
HETATM   18  C   UNL     1       9.882   5.947   4.236  1.00  0.00     0.106 A 
HETATM   19  C   UNL     1      10.628   5.372   3.233  1.00  0.00     0.105 A 
HETATM   20  O   UNL     1      10.640   6.298   5.309  1.00  0.00    -0.323 OA
HETATM   21  O   UNL     1      11.947   5.290   3.551  1.00  0.00    -0.323 OA
HETATM   22  C   UNL     1      10.058   4.957   2.049  1.00  0.00     0.040 A 
HETATM   23  C   UNL     1      11.951   5.896   4.861  1.00  0.00     0.352 A 
HETATM   24  C   UNL     1       8.680   5.141   1.889  1.00  0.00     0.018 A 
ENDBRANCH  14  16
ENDBRANCH   9  14
BRANCH   1  25
HETATM   25  C   UNL     1       2.591   0.128   0.001  1.00  0.00     0.055 C 
HETATM   26  C   UNL     1       3.262  -0.400  -1.257  1.00  0.00     0.011 C 
ENDBRANCH   1  25
TORSDOF 3
