REMARK  6 active torsions:
REMARK  status: ('A' for Active; 'I' for Inactive)
REMARK    1  A    between atoms: C_2  and  O_3 
REMARK    2  A    between atoms: C_2  and  C_4 
REMARK    3  A    between atoms: C_7  and  N_8 
REMARK       I    between atoms: N_8  and  C_9 
REMARK    4  A    between atoms: C_9  and  C_10 
REMARK    5  A    between atoms: C_13  and  C_14 
REMARK    6  A    between atoms: C_19  and  C_20 
ROOT
HETATM    1  C   UNL     1       3.848  -3.383  -5.546  1.00  0.00     0.096 C 
HETATM    2  C   UNL     1       4.504  -3.473  -4.333  1.00  0.00     0.138 C 
HETATM    3  N   UNL     1       4.441  -4.800  -3.969  1.00  0.00    -0.240 N 
HETATM    4  C   UNL     1       4.977  -5.344  -2.732  1.00  0.00     0.221 C 
HETATM    5  C   UNL     1       5.896  -4.316  -2.043  1.00  0.00     0.068 C 
HETATM    6  C   UNL     1       5.297  -2.904  -2.101  1.00  0.00     0.143 C 
HETATM    7  N   UNL     1       5.096  -2.551  -3.521  1.00  0.00    -0.363 N 
HETATM    8  N   UNL     1       3.647  -5.532  -4.766  1.00  0.00    -0.181 NA
HETATM    9  C   UNL     1       3.312  -4.679  -5.737  1.00  0.00     0.160 C 
HETATM   10  H   UNL     1       4.810  -1.574  -3.623  1.00  0.00     0.162 HD
ENDROOT
BRANCH   1  11
HETATM   11  C   UNL     1       3.675  -2.241  -6.427  1.00  0.00     0.261 C 
HETATM   12  N   UNL     1       4.705  -1.323  -6.344  1.00  0.00    -0.323 N 
HETATM   13  H   UNL     1       5.489  -1.599  -5.762  1.00  0.00     0.169 HD
HETATM   14  O   UNL     1       2.714  -2.185  -7.185  1.00  0.00    -0.267 OA
BRANCH  12  15
HETATM   15  C   UNL     1       4.861  -0.142  -7.097  1.00  0.00     0.035 A 
HETATM   16  C   UNL     1       3.868   0.394  -7.916  1.00  0.00     0.030 A 
HETATM   17  C   UNL     1       4.109   1.556  -8.660  1.00  0.00     0.012 A 
HETATM   18  C   UNL     1       5.348   2.207  -8.600  1.00  0.00    -0.030 A 
HETATM   19  C   UNL     1       6.337   1.673  -7.765  1.00  0.00     0.012 A 
HETATM   20  C   UNL     1       6.093   0.517  -7.014  1.00  0.00     0.030 A 
BRANCH  18  21
HETATM   21  C   UNL     1       5.598   3.425  -9.463  1.00  0.00     0.147 C 
HETATM   22  C   UNL     1       6.029   3.027 -10.870  1.00  0.00     0.044 C 
BRANCH  21  23
HETATM   23  O   UNL     1       6.607   4.250  -8.882  1.00  0.00    -0.391 OA
HETATM   24  H   UNL     1       6.690   5.036  -9.448  1.00  0.00     0.210 HD
ENDBRANCH  21  23
ENDBRANCH  18  21
ENDBRANCH  12  15
ENDBRANCH   1  11
BRANCH   4  25
HETATM   25  C   UNL     1       5.746  -6.623  -2.978  1.00  0.00     0.409 C 
HETATM   26  F   UNL     1       6.768  -6.448  -3.847  1.00  0.00    -0.169 F 
HETATM   27  F   UNL     1       6.302  -7.053  -1.813  1.00  0.00    -0.169 F 
HETATM   28  F   UNL     1       4.982  -7.640  -3.425  1.00  0.00    -0.169 F 
ENDBRANCH   4  25
BRANCH   6  29
HETATM   29  C   UNL     1       4.076  -2.787  -1.235  1.00  0.00     0.075 A 
HETATM   30  O   UNL     1       4.252  -3.046   0.095  1.00  0.00    -0.325 OA
HETATM   31  C   UNL     1       3.039  -2.913   0.691  1.00  0.00     0.142 A 
HETATM   32  C   UNL     1       2.084  -2.567  -0.234  1.00  0.00     0.027 A 
HETATM   33  C   UNL     1       2.752  -2.482  -1.478  1.00  0.00     0.037 A 
ENDBRANCH   6  29
TORSDOF 6
