REMARK  11 active torsions:
REMARK  status: ('A' for Active; 'I' for Inactive)
REMARK    1  A    between atoms: C_2  and  C_3 
REMARK    2  A    between atoms: C_3  and  C_4 
REMARK    3  A    between atoms: C_4  and  O_5 
REMARK    4  A    between atoms: O_5  and  C_6 
REMARK    5  A    between atoms: C_9  and  C_10 
REMARK       I    between atoms: C_10  and  N_11 
REMARK    6  A    between atoms: N_11  and  C_12 
REMARK    7  A    between atoms: C_12  and  C_13 
REMARK       I    between atoms: C_13  and  N_14 
REMARK    8  A    between atoms: N_14  and  N_15 
REMARK    9  A    between atoms: C_16  and  C_17 
REMARK   10  A    between atoms: C_18  and  O_19 
REMARK   11  A    between atoms: C_21  and  O_22 
ROOT
HETATM    1  C   UNL     1      12.746  -2.433  -2.781  1.00  0.00     0.227 C 
ENDROOT
BRANCH   1   2
HETATM    2  N   UNL     1      11.326  -2.281  -2.477  1.00  0.00    -0.348 N 
HETATM    3  C   UNL     1      10.432  -3.309  -2.672  1.00  0.00     0.252 C 
HETATM    4  O   UNL     1      10.755  -4.350  -3.237  1.00  0.00    -0.268 OA
HETATM    5  H   UNL     1      11.064  -1.488  -1.907  1.00  0.00     0.163 HD
BRANCH   3   6
HETATM    6  C   UNL     1       9.033  -3.103  -2.212  1.00  0.00     0.032 A 
HETATM    7  C   UNL     1       8.453  -1.832  -2.123  1.00  0.00     0.020 A 
HETATM    8  C   UNL     1       7.106  -1.699  -1.764  1.00  0.00     0.038 A 
HETATM    9  C   UNL     1       6.332  -2.833  -1.512  1.00  0.00     0.068 A 
HETATM   10  C   UNL     1       6.921  -4.096  -1.562  1.00  0.00     0.038 A 
HETATM   11  C   UNL     1       8.263  -4.235  -1.922  1.00  0.00     0.020 A 
BRANCH   9  12
HETATM   12  O   UNL     1       5.000  -2.823  -1.204  1.00  0.00    -0.351 OA
BRANCH  12  13
HETATM   13  C   UNL     1       4.249  -1.726  -1.727  1.00  0.00     0.175 C 
BRANCH  13  14
HETATM   14  C   UNL     1       2.791  -2.154  -1.889  1.00  0.00     0.026 C 
BRANCH  14  15
HETATM   15  C   UNL     1       2.124  -2.499  -0.557  1.00  0.00    -0.002 C 
HETATM   16  C   UNL     1       0.672  -2.906  -0.761  1.00  0.00     0.005 C 
ENDBRANCH  14  15
ENDBRANCH  13  14
ENDBRANCH  12  13
ENDBRANCH   9  12
ENDBRANCH   3   6
ENDBRANCH   1   2
BRANCH   1  17
HETATM   17  C   UNL     1      13.101  -2.304  -4.268  1.00  0.00     0.255 C 
HETATM   18  N   UNL     1      12.367  -3.145  -5.089  1.00  0.00    -0.246 N 
HETATM   19  H   UNL     1      11.695  -3.791  -4.664  1.00  0.00     0.192 HD
HETATM   20  O   UNL     1      14.029  -1.589  -4.646  1.00  0.00    -0.270 OA
BRANCH  18  21
HETATM   21  N   UNL     1      12.611  -3.190  -6.426  1.00  0.00    -0.184 NA
HETATM   22  C   UNL     1      11.850  -3.997  -7.096  1.00  0.00     0.153 C 
BRANCH  22  23
HETATM   23  C   UNL     1      12.018  -4.157  -8.554  1.00  0.00     0.016 A 
HETATM   24  C   UNL     1      13.049  -3.522  -9.259  1.00  0.00     0.080 A 
HETATM   25  C   UNL     1      13.183  -3.707 -10.634  1.00  0.00     0.074 A 
HETATM   26  C   UNL     1      12.276  -4.525 -11.300  1.00  0.00     0.068 A 
HETATM   27  C   UNL     1      11.243  -5.158 -10.615  1.00  0.00     0.037 A 
HETATM   28  C   UNL     1      11.112  -4.977  -9.236  1.00  0.00     0.018 A 
BRANCH  24  29
HETATM   29  O   UNL     1      13.973  -2.704  -8.665  1.00  0.00    -0.360 OA
HETATM   30  H   UNL     1      13.755  -2.636  -7.706  1.00  0.00     0.217 HD
ENDBRANCH  24  29
BRANCH  26  31
HETATM   31  O   UNL     1      12.366  -4.736 -12.645  1.00  0.00    -0.361 OA
HETATM   32  H   UNL     1      13.134  -4.243 -12.982  1.00  0.00     0.217 HD
ENDBRANCH  26  31
ENDBRANCH  22  23
ENDBRANCH  18  21
ENDBRANCH   1  17
TORSDOF 11
