REMARK  8 active torsions:
REMARK  status: ('A' for Active; 'I' for Inactive)
REMARK    1  A    between atoms: C_2  and  N_3 
REMARK    2  A    between atoms: C_2  and  C_17 
REMARK    3  A    between atoms: N_3  and  N_4 
REMARK       I    between atoms: N_4  and  C_5 
REMARK    4  A    between atoms: C_5  and  C_6 
REMARK    5  A    between atoms: C_6  and  N_7 
REMARK    6  A    between atoms: N_7  and  C_8 
REMARK    7  A    between atoms: C_9  and  O_10 
REMARK       I    between atoms: C_17  and  N_18 
REMARK    8  A    between atoms: N_18  and  C_19 
ROOT
HETATM    1  N   UNL     1       3.573   0.544   1.533  1.00  0.00    -0.225 NA
HETATM    2  H   UNL     1       2.702   0.070   1.249  1.00  0.00     0.147 HD
ENDROOT
BRANCH   1   3
HETATM    3  C   UNL     1       4.411  -0.502   2.199  1.00  0.00     0.165 C 
HETATM    4  C   UNL     1       4.648  -1.640   1.211  1.00  0.00     0.038 C 
BRANCH   3   5
HETATM    5  C   UNL     1       5.769   0.072   2.646  1.00  0.00     0.241 C 
HETATM    6  N   UNL     1       6.182   1.142   1.870  1.00  0.00    -0.326 N 
HETATM    7  H   UNL     1       5.502   1.412   1.164  1.00  0.00     0.169 HD
HETATM    8  O   UNL     1       6.396  -0.437   3.571  1.00  0.00    -0.271 OA
BRANCH   6   9
HETATM    9  C   UNL     1       7.316   1.953   2.037  1.00  0.00     0.036 A 
HETATM   10  C   UNL     1       8.294   1.734   3.010  1.00  0.00     0.053 A 
HETATM   11  C   UNL     1       9.373   2.612   3.124  1.00  0.00     0.036 A 
HETATM   12 CL   UNL     1      10.570   2.344   4.332  1.00  0.00    -0.084 Cl
HETATM   13  C   UNL     1       9.491   3.710   2.275  1.00  0.00     0.024 A 
HETATM   14  C   UNL     1       8.524   3.930   1.297  1.00  0.00     0.004 A 
HETATM   15  C   UNL     1       7.443   3.053   1.178  1.00  0.00     0.029 A 
ENDBRANCH   6   9
ENDBRANCH   3   5
ENDBRANCH   1   3
BRANCH   1  16
HETATM   16  N   UNL     1       3.184   1.556   2.460  1.00  0.00    -0.290 N 
HETATM   17  C   UNL     1       2.070   1.343   3.269  1.00  0.00     0.245 C 
HETATM   18  O   UNL     1       1.433   0.290   3.267  1.00  0.00    -0.271 OA
HETATM   19  H   UNL     1       3.442   2.522   2.264  1.00  0.00     0.183 HD
BRANCH  17  20
HETATM   20  C   UNL     1       1.668   2.562   4.101  1.00  0.00     0.196 C 
BRANCH  20  21
HETATM   21  N   UNL     1       0.641   3.322   3.369  1.00  0.00    -0.282 NA
HETATM   22  H   UNL     1      -0.031   2.653   2.966  1.00  0.00     0.128 HD
BRANCH  21  23
HETATM   23  C   UNL     1      -0.136   4.115   4.263  1.00  0.00     0.042 A 
HETATM   24  C   UNL     1      -1.444   3.704   4.605  1.00  0.00     0.089 A 
HETATM   25  C   UNL     1      -2.192   4.457   5.510  1.00  0.00     0.038 A 
HETATM   26  C   UNL     1      -1.643   5.608   6.082  1.00  0.00     0.003 A 
HETATM   27  C   UNL     1      -0.348   6.010   5.753  1.00  0.00     0.002 A 
HETATM   28  C   UNL     1       0.407   5.263   4.848  1.00  0.00     0.026 A 
BRANCH  24  29
HETATM   29  O   UNL     1      -1.864   2.551   3.985  1.00  0.00    -0.354 OA
HETATM   30  C   UNL     1      -3.096   1.995   4.425  1.00  0.00     0.210 C 
ENDBRANCH  24  29
ENDBRANCH  21  23
ENDBRANCH  20  21
ENDBRANCH  17  20
ENDBRANCH   1  16
TORSDOF 8
