REMARK  5 active torsions:
REMARK  status: ('A' for Active; 'I' for Inactive)
REMARK    1  A    between atoms: C_2  and  C_3 
REMARK    2  A    between atoms: C_3  and  N_4 
REMARK    3  A    between atoms: C_3  and  C_19 
REMARK       I    between atoms: N_4  and  C_5 
REMARK       I    between atoms: C_5  and  N_6 
REMARK    4  A    between atoms: N_6  and  C_7 
REMARK    5  A    between atoms: C_12  and  C_13 
ROOT
HETATM    1  N   UNL     1       2.371   1.119   2.395  1.00  0.00    -0.334 N 
HETATM    2  C   UNL     1       1.108   1.596   2.393  1.00  0.00     0.321 C 
HETATM    3  N   UNL     1       0.560   2.012   3.566  1.00  0.00    -0.306 N 
HETATM    4  O   UNL     1       0.464   1.770   1.358  1.00  0.00    -0.247 OA
HETATM    5  H   UNL     1       2.723   0.736   3.256  1.00  0.00     0.165 HD
HETATM    6  H   UNL     1      -0.280   2.542   3.366  1.00  0.00     0.171 HD
ENDROOT
BRANCH   1   7
HETATM    7  C   UNL     1       3.046   0.706   1.179  1.00  0.00     0.122 C 
BRANCH   7   8
HETATM    8  C   UNL     1       2.655  -0.716   0.738  1.00  0.00     0.026 C 
HETATM    9  C   UNL     1       2.970  -1.816   1.745  1.00  0.00     0.007 C 
ENDBRANCH   7   8
BRANCH   7  10
HETATM   10  C   UNL     1       4.522   0.895   1.362  1.00  0.00     0.001 A 
HETATM   11  C   UNL     1       5.317   0.705   2.479  1.00  0.00     0.122 A 
HETATM   12  N   UNL     1       6.586   1.050   2.116  1.00  0.00    -0.285 N 
HETATM   13  C   UNL     1       7.759   1.058   2.955  1.00  0.00     0.179 C 
HETATM   14  N   UNL     1       6.689   1.427   0.831  1.00  0.00    -0.185 NA
HETATM   15  C   UNL     1       5.437   1.341   0.377  1.00  0.00     0.149 A 
ENDBRANCH   7  10
ENDBRANCH   1   7
BRANCH   3  16
HETATM   16  C   UNL     1       0.933   1.921   4.922  1.00  0.00     0.075 A 
HETATM   17  C   UNL     1       1.865   1.034   5.468  1.00  0.00     0.143 A 
HETATM   18  F   UNL     1       2.495   0.123   4.713  1.00  0.00    -0.204 F 
HETATM   19  C   UNL     1       2.143   1.020   6.836  1.00  0.00     0.045 A 
HETATM   20  C   UNL     1       1.487   1.901   7.693  1.00  0.00     0.019 A 
HETATM   21  C   UNL     1       0.536   2.795   7.184  1.00  0.00     0.050 A 
HETATM   22  C   UNL     1       0.261   2.786   5.803  1.00  0.00     0.049 A 
BRANCH  21  23
HETATM   23  C   UNL     1      -0.185   3.769   8.087  1.00  0.00     0.417 C 
HETATM   24  F   UNL     1       0.146   3.641   9.401  1.00  0.00    -0.166 F 
HETATM   25  F   UNL     1       0.073   5.064   7.759  1.00  0.00    -0.166 F 
HETATM   26  F   UNL     1      -1.537   3.627   8.024  1.00  0.00    -0.166 F 
ENDBRANCH  21  23
ENDBRANCH   3  16
TORSDOF 5
