REMARK  7 active torsions:
REMARK  status: ('A' for Active; 'I' for Inactive)
REMARK    1  A    between atoms: C_2  and  C_3 
REMARK    2  A    between atoms: C_3  and  N_4 
REMARK    3  A    between atoms: C_3  and  C_20 
REMARK       I    between atoms: N_4  and  C_5 
REMARK       I    between atoms: C_5  and  N_6 
REMARK    4  A    between atoms: N_6  and  C_7 
REMARK    5  A    between atoms: C_7  and  C_8 
REMARK    6  A    between atoms: C_10  and  O_11 
REMARK    7  A    between atoms: O_11  and  C_12 
ROOT
HETATM    1  N   UNL     1       2.335   2.422   1.278  1.00  0.00    -0.334 N 
HETATM    2  C   UNL     1       1.121   1.996   1.706  1.00  0.00     0.316 C 
HETATM    3  N   UNL     1       0.208   1.699   0.751  1.00  0.00    -0.339 N 
HETATM    4  O   UNL     1       0.813   1.876   2.888  1.00  0.00    -0.247 OA
HETATM    5  H   UNL     1       2.470   2.626   0.303  1.00  0.00     0.165 HD
HETATM    6  H   UNL     1      -0.680   1.413   1.143  1.00  0.00     0.164 HD
ENDROOT
BRANCH   3   7
HETATM    7  C   UNL     1       0.368   1.588  -0.682  1.00  0.00     0.163 C 
BRANCH   7   8
HETATM    8  C   UNL     1      -0.068   2.804  -1.459  1.00  0.00    -0.035 A 
HETATM    9  C   UNL     1      -0.526   3.981  -0.857  1.00  0.00     0.066 A 
HETATM   10  C   UNL     1      -0.949   5.025  -1.668  1.00  0.00     0.164 A 
HETATM   11  N   UNL     1      -0.929   4.992  -3.016  1.00  0.00    -0.237 NA
HETATM   12  C   UNL     1      -0.471   3.858  -3.581  1.00  0.00     0.120 A 
HETATM   13  C   UNL     1      -0.039   2.756  -2.858  1.00  0.00     0.028 A 
BRANCH  10  14
HETATM   14  O   UNL     1      -1.422   6.155  -1.029  1.00  0.00    -0.329 OA
BRANCH  14  15
HETATM   15  C   UNL     1      -2.145   7.092  -1.858  1.00  0.00     0.130 C 
HETATM   16  C   UNL     1      -3.575   6.675  -2.298  1.00  0.00     0.032 C 
HETATM   17  C   UNL     1      -4.008   8.132  -2.060  1.00  0.00     0.005 C 
HETATM   18  C   UNL     1      -2.822   8.256  -1.088  1.00  0.00     0.032 C 
ENDBRANCH  14  15
ENDBRANCH  10  14
ENDBRANCH   7   8
ENDBRANCH   3   7
BRANCH   1  19
HETATM   19  C   UNL     1       3.441   2.671   2.190  1.00  0.00     0.119 C 
BRANCH  19  20
HETATM   20  C   UNL     1       4.175   3.975   1.831  1.00  0.00     0.025 C 
HETATM   21  C   UNL     1       3.298   5.205   2.025  1.00  0.00     0.007 C 
ENDBRANCH  19  20
BRANCH  19  22
HETATM   22  C   UNL     1       4.398   1.491   2.184  1.00  0.00    -0.033 A 
HETATM   23  C   UNL     1       4.729   0.851   3.384  1.00  0.00     0.028 A 
HETATM   24  C   UNL     1       5.617  -0.213   3.354  1.00  0.00     0.116 A 
HETATM   25  N   UNL     1       6.191  -0.682   2.226  1.00  0.00    -0.273 NA
HETATM   26  C   UNL     1       5.856  -0.060   1.076  1.00  0.00     0.116 A 
HETATM   27  C   UNL     1       4.982   1.014   1.004  1.00  0.00     0.028 A 
ENDBRANCH  19  22
ENDBRANCH   1  19
TORSDOF 7
