REMARK  8 active torsions:
REMARK  status: ('A' for Active; 'I' for Inactive)
REMARK    1  A    between atoms: C_2  and  C_3 
REMARK    2  A    between atoms: C_3  and  C_4 
REMARK    3  A    between atoms: C_7  and  N_8 
REMARK       I    between atoms: N_8  and  C_9 
REMARK    4  A    between atoms: C_9  and  C_10 
REMARK    5  A    between atoms: C_13  and  N_14 
REMARK       I    between atoms: N_14  and  C_15 
REMARK    6  A    between atoms: C_15  and  C_16 
REMARK    7  A    between atoms: C_16  and  C_17 
REMARK    8  A    between atoms: C_19  and  N_20 
ROOT
HETATM    1  C   UNL     1       2.910   7.413   1.863  1.00  0.00     0.032 A 
HETATM    2  C   UNL     1       3.125   8.682   1.315  1.00  0.00     0.019 A 
HETATM    3  C   UNL     1       4.188   8.898   0.426  1.00  0.00     0.030 A 
HETATM    4  C   UNL     1       5.055   7.859   0.083  1.00  0.00     0.034 A 
HETATM    5  C   UNL     1       4.866   6.603   0.670  1.00  0.00     0.030 A 
HETATM    6  C   UNL     1       3.804   6.382   1.553  1.00  0.00     0.019 A 
ENDROOT
BRANCH   4   7
HETATM    7  N   UNL     1       6.123   7.986  -0.830  1.00  0.00    -0.327 N 
HETATM    8  C   UNL     1       6.483   9.111  -1.550  1.00  0.00     0.223 C 
HETATM    9  O   UNL     1       5.916  10.198  -1.531  1.00  0.00    -0.273 OA
HETATM   10  H   UNL     1       6.674   7.149  -0.976  1.00  0.00     0.169 HD
BRANCH   8  11
HETATM   11  C   UNL     1       7.672   8.871  -2.459  1.00  0.00     0.128 C 
BRANCH  11  12
HETATM   12  C   UNL     1       8.617  10.063  -2.418  1.00  0.00     0.158 C 
HETATM   13  S   UNL     1       9.686  10.017  -0.950  1.00  0.00    -0.077 SA
HETATM   14  C   UNL     1      11.093  10.373  -1.937  1.00  0.00     0.168 C 
HETATM   15  N   UNL     1      10.892  10.352  -3.215  1.00  0.00    -0.189 NA
HETATM   16  C   UNL     1       9.600  10.045  -3.570  1.00  0.00     0.260 C 
HETATM   17  O   UNL     1       9.260   9.800  -4.722  1.00  0.00    -0.270 OA
BRANCH  14  18
HETATM   18  N   UNL     1      12.294  10.679  -1.335  1.00  0.00    -0.360 N 
HETATM   19  C   UNL     1      12.697  10.192  -0.012  1.00  0.00     0.125 C 
HETATM   20  C   UNL     1      13.565   8.943  -0.178  1.00  0.00     0.020 C 
HETATM   21  C   UNL     1      14.771   9.226  -1.077  1.00  0.00     0.003 C 
HETATM   22  C   UNL     1      14.338   9.853  -2.403  1.00  0.00     0.020 C 
HETATM   23  C   UNL     1      13.441  11.067  -2.168  1.00  0.00     0.125 C 
ENDBRANCH  14  18
ENDBRANCH  11  12
ENDBRANCH   8  11
ENDBRANCH   4   7
BRANCH   1  24
HETATM   24  C   UNL     1       1.753   7.088   2.754  1.00  0.00     0.256 C 
HETATM   25  N   UNL     1       0.619   7.860   2.569  1.00  0.00    -0.323 N 
HETATM   26  H   UNL     1       0.665   8.608   1.893  1.00  0.00     0.169 HD
HETATM   27  O   UNL     1       1.877   6.153   3.537  1.00  0.00    -0.267 OA
BRANCH  25  28
HETATM   28  C   UNL     1      -0.656   7.657   3.140  1.00  0.00     0.035 A 
HETATM   29  C   UNL     1      -0.989   6.567   3.942  1.00  0.00     0.030 A 
HETATM   30  C   UNL     1      -2.302   6.394   4.403  1.00  0.00     0.010 A 
HETATM   31  C   UNL     1      -3.304   7.322   4.094  1.00  0.00    -0.054 A 
HETATM   32  C   UNL     1      -2.958   8.427   3.303  1.00  0.00     0.010 A 
HETATM   33  C   UNL     1      -1.652   8.589   2.829  1.00  0.00     0.030 A 
BRANCH  31  34
HETATM   34  C   UNL     1      -4.753   7.139   4.519  1.00  0.00     0.014 C 
HETATM   35  C   UNL     1      -5.486   6.314   3.452  1.00  0.00     0.015 C 
BRANCH  34  36
HETATM   36  C   UNL     1      -4.970   6.505   5.909  1.00  0.00     0.004 C 
HETATM   37  C   UNL     1      -4.414   7.347   7.050  1.00  0.00     0.006 C 
ENDBRANCH  34  36
ENDBRANCH  31  34
ENDBRANCH  25  28
ENDBRANCH   1  24
TORSDOF 8
