REMARK  6 active torsions:
REMARK  status: ('A' for Active; 'I' for Inactive)
REMARK    1  A    between atoms: C_2  and  C_3 
REMARK    2  A    between atoms: C_3  and  C_4 
REMARK    3  A    between atoms: C_3  and  C_11 
REMARK    4  A    between atoms: C_11  and  C_12 
REMARK       I    between atoms: C_12  and  N_13 
REMARK    5  A    between atoms: N_13  and  C_14 
REMARK    6  A    between atoms: C_21  and  C_22 
REMARK       I    between atoms: C_22  and  N_23 
ROOT
HETATM    1  C   UNL     1       4.280  -4.687   3.477  1.00  0.00     0.035 A 
HETATM    2  C   UNL     1       5.408  -5.052   4.226  1.00  0.00     0.046 A 
HETATM    3  C   UNL     1       5.369  -6.223   5.017  1.00  0.00     0.030 A 
HETATM    4  C   UNL     1       4.200  -6.974   5.045  1.00  0.00     0.063 A 
HETATM    5  N   UNL     1       4.461  -8.020   5.884  1.00  0.00    -0.277 N 
HETATM    6  H   UNL     1       3.830  -8.770   6.145  1.00  0.00     0.189 HD
HETATM    7  N   UNL     1       5.703  -8.031   6.392  1.00  0.00    -0.168 NA
HETATM    8  C   UNL     1       6.279  -6.927   5.862  1.00  0.00     0.156 A 
HETATM    9  C   UNL     1       3.058  -6.636   4.319  1.00  0.00     0.034 A 
HETATM   10  C   UNL     1       3.127  -5.483   3.529  1.00  0.00     0.032 A 
ENDROOT
BRANCH   1  11
HETATM   11  N   UNL     1       4.238  -3.569   2.615  1.00  0.00    -0.327 N 
HETATM   12  C   UNL     1       5.165  -2.550   2.511  1.00  0.00     0.222 C 
HETATM   13  O   UNL     1       6.142  -2.393   3.239  1.00  0.00    -0.273 OA
HETATM   14  H   UNL     1       3.396  -3.484   2.067  1.00  0.00     0.169 HD
BRANCH  12  15
HETATM   15  C   UNL     1       4.975  -1.634   1.304  1.00  0.00     0.112 C 
BRANCH  15  16
HETATM   16  C   UNL     1       3.551  -1.112   1.036  1.00  0.00     0.027 C 
BRANCH  16  17
HETATM   17  C   UNL     1       3.463  -0.317  -0.289  1.00  0.00     0.005 C 
HETATM   18  C   UNL     1       4.374   0.898  -0.408  1.00  0.00     0.006 C 
ENDBRANCH  16  17
BRANCH  16  19
HETATM   19  C   UNL     1       2.920  -0.349   2.190  1.00  0.00    -0.053 A 
HETATM   20  C   UNL     1       3.631   0.582   2.957  1.00  0.00     0.008 A 
HETATM   21  C   UNL     1       3.005   1.284   3.992  1.00  0.00     0.007 A 
HETATM   22  C   UNL     1       1.654   1.073   4.281  1.00  0.00    -0.062 A 
HETATM   23  C   UNL     1       1.000   1.810   5.412  1.00  0.00     0.048 C 
HETATM   24  C   UNL     1       0.942   0.133   3.533  1.00  0.00     0.007 A 
HETATM   25  C   UNL     1       1.565  -0.563   2.493  1.00  0.00     0.008 A 
ENDBRANCH  16  19
ENDBRANCH  15  16
ENDBRANCH  12  15
ENDBRANCH   1  11
BRANCH   8  26
HETATM   26  C   UNL     1       7.676  -6.584   6.164  1.00  0.00     0.270 C 
HETATM   27  N   UNL     1       8.294  -7.459   7.015  1.00  0.00    -0.365 N 
HETATM   28  H   UNL     1       7.770  -8.257   7.353  1.00  0.00     0.159 HD
HETATM   29  H   UNL     1       9.260  -7.316   7.262  1.00  0.00     0.159 HD
HETATM   30  O   UNL     1       8.275  -5.617   5.705  1.00  0.00    -0.266 OA
ENDBRANCH   8  26
TORSDOF 6
