REMARK  7 active torsions:
REMARK  status: ('A' for Active; 'I' for Inactive)
REMARK    1  A    between atoms: C_10  and  C_11 
REMARK       I    between atoms: C_11  and  N_12 
REMARK    2  A    between atoms: N_12  and  C_13 
REMARK    3  A    between atoms: C_13  and  C_14 
REMARK    4  A    between atoms: C_14  and  O_15 
REMARK    5  A    between atoms: C_14  and  C_16 
REMARK    6  A    between atoms: C_16  and  O_17 
REMARK    7  A    between atoms: O_17  and  C_18 
ROOT
HETATM    1  C   UNL     1      11.386  -2.086  -3.269  1.00  0.00     0.257 C 
HETATM    2  N   UNL     1      12.127  -1.599  -2.221  1.00  0.00    -0.354 N 
HETATM    3  O   UNL     1      10.191  -1.841  -3.408  1.00  0.00    -0.267 OA
HETATM    4  H   UNL     1      13.076  -1.953  -2.111  1.00  0.00     0.162 HD
ENDROOT
BRANCH   2   5
HETATM    5  C   UNL     1      11.575  -0.787  -1.155  1.00  0.00     0.156 C 
BRANCH   5   6
HETATM    6  C   UNL     1      11.043  -1.603   0.030  1.00  0.00     0.160 C 
BRANCH   6   7
HETATM    7  O   UNL     1      12.084  -2.456   0.533  1.00  0.00    -0.392 OA
HETATM    8  H   UNL     1      11.648  -3.065   1.159  1.00  0.00     0.210 HD
ENDBRANCH   6   7
BRANCH   6   9
HETATM    9  C   UNL     1       9.799  -2.432  -0.314  1.00  0.00     0.209 C 
BRANCH   9  10
HETATM   10  O   UNL     1       9.352  -3.049   0.904  1.00  0.00    -0.349 OA
BRANCH  10  11
HETATM   11  C   UNL     1       8.250  -3.855   0.816  1.00  0.00     0.069 A 
HETATM   12  C   UNL     1       7.980  -4.602   1.966  1.00  0.00     0.038 A 
HETATM   13  C   UNL     1       6.880  -5.461   2.016  1.00  0.00     0.026 A 
HETATM   14  C   UNL     1       6.040  -5.566   0.911  1.00  0.00     0.034 A 
HETATM   15 CL   UNL     1       4.679  -6.617   0.966  1.00  0.00    -0.084 Cl
HETATM   16  C   UNL     1       6.295  -4.821  -0.239  1.00  0.00     0.026 A 
HETATM   17  C   UNL     1       7.402  -3.966  -0.288  1.00  0.00     0.038 A 
ENDBRANCH  10  11
ENDBRANCH   9  10
ENDBRANCH   6   9
ENDBRANCH   5   6
ENDBRANCH   2   5
BRANCH   1  18
HETATM   18  C   UNL     1      12.111  -2.936  -4.192  1.00  0.00     0.098 A 
HETATM   19  C   UNL     1      13.444  -3.308  -4.161  1.00  0.00     0.167 A 
HETATM   20  N   UNL     1      13.648  -4.129  -5.276  1.00  0.00    -0.226 N 
HETATM   21  N   UNL     1      14.460  -3.009  -3.287  1.00  0.00    -0.240 NA
HETATM   22  C   UNL     1      14.903  -4.667  -5.540  1.00  0.00     0.128 A 
HETATM   23  N   UNL     1      12.513  -4.295  -5.995  1.00  0.00    -0.178 NA
HETATM   24  C   UNL     1      15.942  -4.410  -4.729  1.00  0.00    -0.027 A 
HETATM   25  C   UNL     1      17.333  -4.909  -4.889  1.00  0.00     0.051 C 
HETATM   26  C   UNL     1      15.619  -3.530  -3.564  1.00  0.00     0.127 A 
HETATM   27  C   UNL     1      11.600  -3.576  -5.339  1.00  0.00     0.160 A 
ENDBRANCH   1  18
TORSDOF 7
