REMARK  6 active torsions:
REMARK  status: ('A' for Active; 'I' for Inactive)
REMARK    1  A    between atoms: C_2  and  O_3 
REMARK    2  A    between atoms: O_3  and  C_4 
REMARK    3  A    between atoms: C_4  and  C_5 
REMARK    4  A    between atoms: C_6  and  O_7 
REMARK    5  A    between atoms: C_12  and  O_13 
REMARK    6  A    between atoms: C_17  and  C_18 
ROOT
HETATM    1  C   UNL     1       1.728   2.775  -0.497  1.00  0.00     0.133 C 
HETATM    2  C   UNL     1       1.537   4.305  -0.220  1.00  0.00     0.073 C 
HETATM    3  C   UNL     1       2.644   5.144  -0.881  1.00  0.00     0.047 C 
HETATM    4  C   UNL     1       0.164   4.811  -0.767  1.00  0.00     0.097 C 
HETATM    5  C   UNL     1      -0.905   3.813  -0.507  1.00  0.00     0.042 A 
HETATM    6  C   UNL     1      -0.748   2.483  -0.177  1.00  0.00     0.030 A 
HETATM    7  C   UNL     1      -2.068   2.016  -0.083  1.00  0.00     0.190 A 
HETATM    8  N   UNL     1      -2.982   2.944  -0.337  1.00  0.00    -0.149 NA
HETATM    9  N   UNL     1      -2.249   4.047  -0.569  1.00  0.00    -0.279 N 
HETATM   10  H   UNL     1      -2.735   4.914  -0.773  1.00  0.00     0.189 HD
HETATM   11  C   UNL     1       0.585   1.832  -0.024  1.00  0.00     0.075 C 
ENDROOT
BRANCH  11  12
HETATM   12  C   UNL     1       0.653   1.295   1.398  1.00  0.00    -0.045 A 
HETATM   13  C   UNL     1       0.384   2.074   2.535  1.00  0.00     0.050 A 
HETATM   14  C   UNL     1       0.477   1.519   3.809  1.00  0.00     0.117 A 
HETATM   15  F   UNL     1       0.223   2.281   4.880  1.00  0.00    -0.206 F 
HETATM   16  C   UNL     1       0.832   0.189   3.989  1.00  0.00     0.042 A 
HETATM   17  C   UNL     1       1.103  -0.602   2.877  1.00  0.00     0.004 A 
HETATM   18  C   UNL     1       1.019  -0.052   1.594  1.00  0.00     0.008 A 
ENDBRANCH  11  12
BRANCH   1  19
HETATM   19  C   UNL     1       3.059   2.194  -0.072  1.00  0.00     0.267 C 
HETATM   20  O   UNL     1       3.582   1.243  -0.641  1.00  0.00    -0.265 OA
BRANCH  19  21
HETATM   21  O   UNL     1       3.564   2.816   1.027  1.00  0.00    -0.316 OA
BRANCH  21  22
HETATM   22  C   UNL     1       4.827   2.331   1.523  1.00  0.00     0.123 C 
HETATM   23  C   UNL     1       4.594   1.147   2.453  1.00  0.00     0.040 C 
HETATM   24  C   UNL     1       5.479   3.485   2.275  1.00  0.00     0.040 C 
ENDBRANCH  21  22
ENDBRANCH  19  21
ENDBRANCH   1  19
BRANCH   2  25
HETATM   25  O   UNL     1       1.566   4.609   1.180  1.00  0.00    -0.389 OA
HETATM   26  H   UNL     1       2.399   4.253   1.548  1.00  0.00     0.210 HD
ENDBRANCH   2  25
BRANCH   7  27
HETATM   27  O   UNL     1      -2.522   0.800   0.228  1.00  0.00    -0.343 OA
HETATM   28  H   UNL     1      -1.792   0.263   0.569  1.00  0.00     0.219 HD
ENDBRANCH   7  27
TORSDOF 6
