REMARK  6 active torsions:
REMARK  status: ('A' for Active; 'I' for Inactive)
REMARK    1  A    between atoms: C_4  and  C_5 
REMARK       I    between atoms: C_5  and  N_6 
REMARK    2  A    between atoms: N_6  and  C_7 
REMARK    3  A    between atoms: C_15  and  C_16 
REMARK       I    between atoms: C_16  and  N_17 
REMARK    4  A    between atoms: N_17  and  C_18 
REMARK    5  A    between atoms: C_18  and  C_19 
REMARK    6  A    between atoms: C_19  and  N_20 
ROOT
HETATM    1  C   UNL     1       2.510   2.809  -0.578  1.00  0.00     0.093 A 
HETATM    2  S   UNL     1       0.850   2.569  -0.836  1.00  0.00    -0.075 SA
HETATM    3  C   UNL     1       0.510   4.214  -0.662  1.00  0.00    -0.008 A 
HETATM    4  C   UNL     1       1.644   4.979  -0.449  1.00  0.00    -0.026 A 
HETATM    5  C   UNL     1       1.512   6.464  -0.228  1.00  0.00     0.041 C 
HETATM    6  C   UNL     1       0.085   6.879   0.160  1.00  0.00     0.005 C 
HETATM    7  C   UNL     1      -0.952   6.235  -0.767  1.00  0.00     0.005 C 
HETATM    8  C   UNL     1      -0.907   4.706  -0.673  1.00  0.00     0.047 C 
HETATM    9  C   UNL     1       2.849   4.157  -0.460  1.00  0.00     0.073 A 
ENDROOT
BRANCH   1  10
HETATM   10  N   UNL     1       3.361   1.717  -0.432  1.00  0.00    -0.316 N 
HETATM   11  C   UNL     1       3.061   0.399  -0.742  1.00  0.00     0.256 C 
HETATM   12  O   UNL     1       2.133   0.027  -1.453  1.00  0.00    -0.267 OA
HETATM   13  H   UNL     1       4.252   1.937  -0.009  1.00  0.00     0.169 HD
BRANCH  11  14
HETATM   14  C   UNL     1       3.970  -0.652  -0.176  1.00  0.00     0.032 A 
HETATM   15  C   UNL     1       5.243  -0.389   0.349  1.00  0.00     0.017 A 
HETATM   16  C   UNL     1       6.011  -1.428   0.888  1.00  0.00     0.001 A 
HETATM   17  C   UNL     1       5.518  -2.732   0.905  1.00  0.00     0.000 A 
HETATM   18  C   UNL     1       4.260  -3.006   0.379  1.00  0.00     0.001 A 
HETATM   19  C   UNL     1       3.492  -1.973  -0.160  1.00  0.00     0.017 A 
ENDBRANCH  11  14
ENDBRANCH   1  10
BRANCH   9  20
HETATM   20  C   UNL     1       4.252   4.570  -0.342  1.00  0.00     0.255 C 
HETATM   21  N   UNL     1       4.564   5.863  -0.705  1.00  0.00    -0.355 N 
HETATM   22  H   UNL     1       3.794   6.456  -0.987  1.00  0.00     0.162 HD
HETATM   23  O   UNL     1       5.164   3.788  -0.060  1.00  0.00    -0.268 OA
BRANCH  21  24
HETATM   24  C   UNL     1       5.793   6.548  -0.315  1.00  0.00     0.150 C 
BRANCH  24  25
HETATM   25  C   UNL     1       7.115   5.773  -0.463  1.00  0.00     0.249 C 
BRANCH  25  26
HETATM   26  N   UNL     1       7.098   4.903  -1.664  1.00  0.00    -0.078 N 
HETATM   27  H   UNL     1       6.430   4.134  -1.477  1.00  0.00     0.274 HD
HETATM   28  H   UNL     1       6.778   5.388  -2.510  1.00  0.00     0.274 HD
HETATM   29  H   UNL     1       8.010   4.469  -1.849  1.00  0.00     0.274 HD
ENDBRANCH  25  26
ENDBRANCH  24  25
ENDBRANCH  21  24
ENDBRANCH   9  20
TORSDOF 6
