REMARK  3 active torsions:
REMARK  status: ('A' for Active; 'I' for Inactive)
REMARK    1  A    between atoms: N_4  and  C_5 
REMARK    2  A    between atoms: C_15  and  C_16 
REMARK       I    between atoms: C_16  and  N_17 
REMARK    3  A    between atoms: N_17  and  C_18 
ROOT
HETATM    1  C   UNL     1       1.183  -0.414  -0.207  1.00  0.00     0.073 C 
HETATM    2  C   UNL     1       2.658  -0.260  -0.157  1.00  0.00     0.069 A 
HETATM    3  N   UNL     1       3.447  -1.331   0.005  1.00  0.00    -0.170 NA
HETATM    4  N   UNL     1       4.728  -0.853  -0.049  1.00  0.00    -0.216 N 
HETATM    5  C   UNL     1       4.716   0.533  -0.103  1.00  0.00     0.145 A 
HETATM    6  C   UNL     1       3.405   0.930  -0.214  1.00  0.00     0.087 A 
HETATM    7  N   UNL     1       5.738   1.418  -0.013  1.00  0.00    -0.349 N 
HETATM    8  C   UNL     1       5.436   2.770  -0.045  1.00  0.00     0.111 A 
HETATM    9  C   UNL     1       4.194   3.284  -0.193  1.00  0.00     0.098 A 
HETATM   10  C   UNL     1       3.037   2.328  -0.303  1.00  0.00     0.205 A 
HETATM   11  O   UNL     1       1.880   2.716  -0.442  1.00  0.00    -0.286 OA
HETATM   12  H   UNL     1       6.675   1.174   0.305  1.00  0.00     0.167 HD
ENDROOT
BRANCH   9  13
HETATM   13  C   UNL     1       4.044   4.775  -0.211  1.00  0.00     0.261 C 
HETATM   14  N   UNL     1       2.738   5.213  -0.266  1.00  0.00    -0.320 N 
HETATM   15  H   UNL     1       2.027   4.492  -0.387  1.00  0.00     0.169 HD
HETATM   16  O   UNL     1       5.048   5.478  -0.209  1.00  0.00    -0.267 OA
BRANCH  14  17
HETATM   17  C   UNL     1       2.242   6.537  -0.241  1.00  0.00     0.073 A 
HETATM   18  C   UNL     1       2.971   7.694   0.057  1.00  0.00     0.143 A 
HETATM   19  F   UNL     1       4.259   7.658   0.420  1.00  0.00    -0.204 F 
HETATM   20  C   UNL     1       2.362   8.952   0.047  1.00  0.00     0.044 A 
HETATM   21  C   UNL     1       1.008   9.076  -0.250  1.00  0.00     0.003 A 
HETATM   22  C   UNL     1       0.260   7.937  -0.530  1.00  0.00     0.002 A 
HETATM   23  C   UNL     1       0.872   6.679  -0.521  1.00  0.00     0.033 A 
ENDBRANCH  14  17
ENDBRANCH   9  13
BRANCH   4  24
HETATM   24  C   UNL     1       5.824  -1.762  -0.056  1.00  0.00     0.060 A 
HETATM   25  C   UNL     1       7.096  -1.382  -0.502  1.00  0.00     0.031 A 
HETATM   26  C   UNL     1       8.149  -2.304  -0.489  1.00  0.00     0.002 A 
HETATM   27  C   UNL     1       7.937  -3.607  -0.042  1.00  0.00     0.000 A 
HETATM   28  C   UNL     1       6.669  -4.000   0.379  1.00  0.00     0.002 A 
HETATM   29  C   UNL     1       5.613  -3.086   0.364  1.00  0.00     0.031 A 
ENDBRANCH   4  24
TORSDOF 3
