REMARK  5 active torsions:
REMARK  status: ('A' for Active; 'I' for Inactive)
REMARK    1  A    between atoms: C_5  and  C_6 
REMARK    2  A    between atoms: C_11  and  C_12 
REMARK       I    between atoms: C_12  and  N_13 
REMARK    3  A    between atoms: N_13  and  C_14 
REMARK    4  A    between atoms: C_16  and  O_17 
REMARK    5  A    between atoms: C_23  and  C_24 
ROOT
HETATM    1  C   UNL     1       6.605   0.493  -0.966  1.00  0.00     0.118 C 
HETATM    2  N   UNL     1       7.032  -0.799  -1.503  1.00  0.00    -0.366 N 
HETATM    3  C   UNL     1       7.713  -0.917  -2.660  1.00  0.00     0.123 A 
HETATM    4  N   UNL     1       8.191   0.181  -3.315  1.00  0.00    -0.240 N 
HETATM    5  N   UNL     1       8.706  -0.083  -4.529  1.00  0.00    -0.165 NA
HETATM    6  C   UNL     1       8.673  -1.437  -4.589  1.00  0.00     0.148 A 
HETATM    7  C   UNL     1       8.072  -1.993  -3.425  1.00  0.00     0.089 A 
HETATM    8  C   UNL     1       8.043   1.531  -2.809  1.00  0.00     0.221 C 
HETATM    9  C   UNL     1       6.734   1.622  -2.012  1.00  0.00     0.066 C 
HETATM   10  H   UNL     1       6.682  -1.617  -1.005  1.00  0.00     0.161 HD
ENDROOT
BRANCH   6  11
HETATM   11  C   UNL     1       9.175  -2.179  -5.760  1.00  0.00     0.276 C 
HETATM   12  N   UNL     1       9.531  -1.329  -6.789  1.00  0.00    -0.322 N 
HETATM   13  H   UNL     1       9.371  -0.347  -6.573  1.00  0.00     0.169 HD
HETATM   14  O   UNL     1       9.222  -3.404  -5.772  1.00  0.00    -0.266 OA
BRANCH  12  15
HETATM   15  C   UNL     1      10.038  -1.655  -8.057  1.00  0.00     0.037 A 
HETATM   16  C   UNL     1      10.377  -2.953  -8.446  1.00  0.00     0.066 A 
HETATM   17  C   UNL     1      10.883  -3.182  -9.725  1.00  0.00     0.067 A 
HETATM   18  C   UNL     1      11.050  -2.140 -10.629  1.00  0.00     0.036 A 
HETATM   19  C   UNL     1      10.711  -0.844 -10.249  1.00  0.00     0.005 A 
HETATM   20  C   UNL     1      10.212  -0.602  -8.966  1.00  0.00     0.029 A 
BRANCH  17  21
HETATM   21  O   UNL     1      11.237  -4.436 -10.131  1.00  0.00    -0.361 OA
HETATM   22  H   UNL     1      11.081  -5.051  -9.395  1.00  0.00     0.217 HD
ENDBRANCH  17  21
ENDBRANCH  12  15
ENDBRANCH   6  11
BRANCH   8  23
HETATM   23  C   UNL     1       9.256   1.912  -1.991  1.00  0.00     0.409 C 
HETATM   24  F   UNL     1      10.392   1.903  -2.722  1.00  0.00    -0.169 F 
HETATM   25  F   UNL     1       9.110   3.179  -1.522  1.00  0.00    -0.169 F 
HETATM   26  F   UNL     1       9.451   1.124  -0.914  1.00  0.00    -0.169 F 
ENDBRANCH   8  23
BRANCH   1  27
HETATM   27  C   UNL     1       5.171   0.372  -0.480  1.00  0.00    -0.035 A 
HETATM   28  C   UNL     1       4.830   0.721   0.834  1.00  0.00     0.010 A 
HETATM   29  C   UNL     1       3.507   0.614   1.277  1.00  0.00     0.007 A 
HETATM   30  C   UNL     1       2.503   0.149   0.421  1.00  0.00    -0.062 A 
HETATM   31  C   UNL     1       1.078   0.063   0.881  1.00  0.00     0.048 C 
HETATM   32  C   UNL     1       2.836  -0.190  -0.894  1.00  0.00     0.007 A 
HETATM   33  C   UNL     1       4.155  -0.087  -1.336  1.00  0.00     0.010 A 
ENDBRANCH   1  27
TORSDOF 5
