REMARK  5 active torsions:
REMARK  status: ('A' for Active; 'I' for Inactive)
REMARK    1  A    between atoms: C_3  and  O_4 
REMARK    2  A    between atoms: O_4  and  C_5 
REMARK    3  A    between atoms: C_5  and  C_6 
REMARK       I    between atoms: C_6  and  N_7 
REMARK    4  A    between atoms: N_7  and  C_8 
REMARK    5  A    between atoms: C_14  and  C_15 
ROOT
HETATM    1  C   UNL     1       0.234   3.392  -0.637  1.00  0.00     0.137 A 
HETATM    2  N   UNL     1       0.223   2.526   0.428  1.00  0.00    -0.262 N 
HETATM    3  H   UNL     1       0.867   2.532   1.216  1.00  0.00     0.191 HD
HETATM    4  N   UNL     1      -0.747   1.598   0.367  1.00  0.00    -0.177 NA
HETATM    5  C   UNL     1      -1.394   1.885  -0.770  1.00  0.00     0.065 A 
HETATM    6  C   UNL     1      -2.570   1.074  -1.174  1.00  0.00     0.073 C 
HETATM    7  C   UNL     1      -0.816   2.999  -1.444  1.00  0.00     0.046 A 
ENDROOT
BRANCH   1   8
HETATM    8  N   UNL     1       1.155   4.417  -0.782  1.00  0.00    -0.309 N 
HETATM    9  C   UNL     1       2.123   4.671   0.184  1.00  0.00     0.247 C 
HETATM   10  O   UNL     1       2.271   3.985   1.195  1.00  0.00    -0.271 OA
HETATM   11  H   UNL     1       1.088   4.995  -1.611  1.00  0.00     0.170 HD
BRANCH   9  12
HETATM   12  C   UNL     1       2.983   5.895  -0.139  1.00  0.00     0.278 C 
BRANCH  12  13
HETATM   13  O   UNL     1       3.573   6.387   1.056  1.00  0.00    -0.342 OA
BRANCH  13  14
HETATM   14  C   UNL     1       4.181   7.611   1.004  1.00  0.00     0.075 A 
HETATM   15  C   UNL     1       4.432   8.219   2.247  1.00  0.00    -0.029 A 
HETATM   16  C   UNL     1       4.042   7.536   3.530  1.00  0.00     0.051 C 
HETATM   17  C   UNL     1       5.069   9.468   2.289  1.00  0.00     0.009 A 
HETATM   18  C   UNL     1       5.449  10.108   1.110  1.00  0.00     0.001 A 
HETATM   19  C   UNL     1       5.205   9.501  -0.118  1.00  0.00     0.003 A 
HETATM   20  C   UNL     1       4.576   8.254  -0.173  1.00  0.00     0.037 A 
ENDBRANCH  13  14
ENDBRANCH  12  13
ENDBRANCH   9  12
ENDBRANCH   1   8
BRANCH   7  21
HETATM   21  C   UNL     1      -1.190   3.630  -2.693  1.00  0.00    -0.020 A 
HETATM   22  C   UNL     1      -1.549   4.984  -2.729  1.00  0.00     0.014 A 
HETATM   23  C   UNL     1      -1.921   5.582  -3.936  1.00  0.00     0.020 A 
HETATM   24  C   UNL     1      -1.941   4.824  -5.106  1.00  0.00     0.011 A 
HETATM   25 BR   UNL     1      -2.452   5.630  -6.737  1.00  0.00    -0.051 Br
HETATM   26  C   UNL     1      -1.592   3.475  -5.081  1.00  0.00     0.020 A 
HETATM   27  C   UNL     1      -1.217   2.878  -3.875  1.00  0.00     0.014 A 
ENDBRANCH   7  21
TORSDOF 5
