REMARK  4 active torsions:
REMARK  status: ('A' for Active; 'I' for Inactive)
REMARK    1  A    between atoms: N_4  and  C_5 
REMARK    2  A    between atoms: C_14  and  C_15 
REMARK       I    between atoms: C_15  and  N_16 
REMARK    3  A    between atoms: N_16  and  N_17 
REMARK       I    between atoms: N_17  and  C_18 
REMARK       I    between atoms: C_18  and  N_19 
REMARK    4  A    between atoms: N_19  and  C_20 
ROOT
HETATM    1  C   UNL     1       5.465   4.387   0.326  1.00  0.00     0.277 C 
HETATM    2  N   UNL     1       6.766   4.696  -0.017  1.00  0.00    -0.261 N 
HETATM    3  O   UNL     1       4.675   5.261   0.682  1.00  0.00    -0.265 OA
HETATM    4  H   UNL     1       7.459   3.974  -0.216  1.00  0.00     0.190 HD
ENDROOT
BRANCH   1   5
HETATM    5  C   UNL     1       5.116   2.976   0.232  1.00  0.00     0.077 A 
HETATM    6  S   UNL     1       6.353   1.747   0.101  1.00  0.00    -0.064 SA
HETATM    7  C   UNL     1       5.200   0.546   0.089  1.00  0.00     0.113 A 
HETATM    8  N   UNL     1       5.102  -0.822   0.035  1.00  0.00    -0.226 N 
HETATM    9  C   UNL     1       3.957   1.032   0.165  1.00  0.00     0.027 A 
HETATM   10  N   UNL     1       3.763  -1.183   0.048  1.00  0.00    -0.171 NA
HETATM   11  C   UNL     1       3.072  -0.030   0.131  1.00  0.00     0.064 A 
HETATM   12  C   UNL     1       1.593  -0.030   0.164  1.00  0.00     0.073 C 
HETATM   13  C   UNL     1       3.838   2.415   0.260  1.00  0.00     0.041 A 
BRANCH   8  14
HETATM   14  C   UNL     1       6.112  -1.828  -0.012  1.00  0.00     0.059 A 
HETATM   15  C   UNL     1       5.726  -3.179  -0.023  1.00  0.00     0.031 A 
HETATM   16  C   UNL     1       6.686  -4.195  -0.053  1.00  0.00     0.002 A 
HETATM   17  C   UNL     1       8.040  -3.874  -0.073  1.00  0.00     0.000 A 
HETATM   18  C   UNL     1       8.434  -2.538  -0.066  1.00  0.00     0.002 A 
HETATM   19  C   UNL     1       7.477  -1.518  -0.035  1.00  0.00     0.031 A 
ENDBRANCH   8  14
ENDBRANCH   1   5
BRANCH   2  20
HETATM   20  N   UNL     1       7.267   5.991   0.195  1.00  0.00    -0.249 N 
HETATM   21  C   UNL     1       8.649   6.093   0.278  1.00  0.00     0.339 C 
HETATM   22  N   UNL     1       9.055   7.368   0.599  1.00  0.00    -0.308 N 
HETATM   23  O   UNL     1       9.364   5.122   0.047  1.00  0.00    -0.245 OA
HETATM   24  H   UNL     1       8.321   8.052   0.706  1.00  0.00     0.170 HD
HETATM   25  H   UNL     1       6.670   6.593   0.757  1.00  0.00     0.192 HD
BRANCH  22  26
HETATM   26  C   UNL     1      10.379   7.838   0.722  1.00  0.00     0.036 A 
HETATM   27  C   UNL     1      11.511   7.039   0.538  1.00  0.00     0.031 A 
HETATM   28  C   UNL     1      12.795   7.582   0.661  1.00  0.00     0.026 A 
HETATM   29  C   UNL     1      12.952   8.928   0.972  1.00  0.00     0.034 A 
HETATM   30 CL   UNL     1      14.530   9.596   1.118  1.00  0.00    -0.084 Cl
HETATM   31  C   UNL     1      11.836   9.737   1.164  1.00  0.00     0.026 A 
HETATM   32  C   UNL     1      10.553   9.192   1.039  1.00  0.00     0.031 A 
ENDBRANCH  22  26
ENDBRANCH   2  20
TORSDOF 4
