REMARK  3 active torsions:
REMARK  status: ('A' for Active; 'I' for Inactive)
REMARK    1  A    between atoms: C_2  and  N_3 
REMARK       I    between atoms: N_3  and  C_4 
REMARK    2  A    between atoms: C_4  and  C_5 
REMARK    3  A    between atoms: C_5  and  C_6 
ROOT
HETATM    1  C   UNL     1      -1.511   1.607   0.680  1.00  0.00     0.286 C 
HETATM    2  N   UNL     1      -2.602   1.529  -0.395  1.00  0.00    -0.056 N 
HETATM    3  H   UNL     1      -3.399   2.127  -0.104  1.00  0.00     0.278 HD
HETATM    4  H   UNL     1      -2.241   1.932  -1.269  1.00  0.00     0.278 HD
HETATM    5  C   UNL     1      -3.148   0.147  -0.647  1.00  0.00     0.209 C 
HETATM    6  C   UNL     1      -1.980  -0.831  -0.872  1.00  0.00     0.115 C 
HETATM    7  N   UNL     1      -1.059  -0.813   0.251  1.00  0.00    -0.353 N 
HETATM    8  C   UNL     1      -0.652   0.344   0.861  1.00  0.00     0.249 C 
HETATM    9  O   UNL     1       0.358   0.346   1.558  1.00  0.00    -0.271 OA
HETATM   10  C   UNL     1      -4.086   0.179  -1.849  1.00  0.00     0.035 C 
HETATM   11  C   UNL     1      -4.624  -1.223  -2.137  1.00  0.00     0.002 C 
HETATM   12  C   UNL     1      -3.502  -2.249  -2.302  1.00  0.00     0.002 C 
HETATM   13  C   UNL     1      -2.524  -2.238  -1.126  1.00  0.00     0.027 C 
HETATM   14  H   UNL     1      -0.393  -1.577   0.356  1.00  0.00     0.163 HD
ENDROOT
BRANCH   1  15
HETATM   15  C   UNL     1      -2.034   2.131   2.022  1.00  0.00     0.146 C 
BRANCH  15  16
HETATM   16  C   UNL     1      -3.364   1.537   2.369  1.00  0.00     0.224 C 
HETATM   17  N   UNL     1      -3.592   0.545   3.256  1.00  0.00    -0.327 N 
HETATM   18  H   UNL     1      -4.591   0.355   3.305  1.00  0.00     0.169 HD
HETATM   19  O   UNL     1      -4.330   1.929   1.692  1.00  0.00    -0.273 OA
BRANCH  17  20
HETATM   20  C   UNL     1      -2.818  -0.271   4.102  1.00  0.00     0.034 A 
HETATM   21  C   UNL     1      -1.437  -0.224   4.269  1.00  0.00     0.031 A 
HETATM   22  C   UNL     1      -0.785  -1.124   5.128  1.00  0.00     0.026 A 
HETATM   23  C   UNL     1      -1.512  -2.076   5.833  1.00  0.00     0.034 A 
HETATM   24  C   UNL     1      -2.891  -2.135   5.689  1.00  0.00     0.026 A 
HETATM   25 CL   UNL     1      -0.705  -3.176   6.875  1.00  0.00    -0.084 Cl
HETATM   26  C   UNL     1      -3.536  -1.237   4.831  1.00  0.00     0.031 A 
ENDBRANCH  17  20
ENDBRANCH  15  16
ENDBRANCH   1  15
TORSDOF 3
