REMARK  3 active torsions:
REMARK  status: ('A' for Active; 'I' for Inactive)
REMARK    1  A    between atoms: C_6  and  C_7 
REMARK    2  A    between atoms: C_11  and  C_12 
REMARK       I    between atoms: C_12  and  N_13 
REMARK    3  A    between atoms: N_13  and  N_14 
ROOT
HETATM    1  C   UNL     1      10.106  -1.695  -1.316  1.00  0.00     0.289 C 
HETATM    2  N   UNL     1      10.023  -3.077  -1.284  1.00  0.00    -0.241 N 
HETATM    3  O   UNL     1      11.134  -1.075  -1.578  1.00  0.00    -0.264 OA
HETATM    4  H   UNL     1       9.143  -3.542  -1.063  1.00  0.00     0.192 HD
ENDROOT
BRANCH   1   5
HETATM    5  C   UNL     1       8.878  -1.003  -1.017  1.00  0.00     0.121 A 
HETATM    6  N   UNL     1       8.826   0.361  -1.019  1.00  0.00    -0.272 N 
HETATM    7  N   UNL     1       7.622   0.868  -0.726  1.00  0.00    -0.174 NA
HETATM    8  H   UNL     1       9.594   0.995  -1.217  1.00  0.00     0.189 HD
HETATM    9  C   UNL     1       6.838  -0.204  -0.519  1.00  0.00     0.089 A 
HETATM   10  C   UNL     1       7.595  -1.401  -0.693  1.00  0.00     0.071 A 
BRANCH   9  11
HETATM   11  C   UNL     1       5.417  -0.055  -0.171  1.00  0.00    -0.005 A 
HETATM   12  C   UNL     1       4.603  -1.165   0.098  1.00  0.00     0.021 A 
HETATM   13  C   UNL     1       3.240  -1.020   0.429  1.00  0.00    -0.055 A 
HETATM   14  C   UNL     1       2.671   0.267   0.468  1.00  0.00    -0.056 A 
HETATM   15  C   UNL     1       2.424  -2.253   0.707  1.00  0.00     0.049 C 
HETATM   16  C   UNL     1       1.231   0.517   0.821  1.00  0.00     0.049 C 
HETATM   17  C   UNL     1       3.489   1.378   0.217  1.00  0.00     0.008 A 
HETATM   18  C   UNL     1       4.839   1.219  -0.100  1.00  0.00     0.014 A 
ENDBRANCH   9  11
ENDBRANCH   1   5
BRANCH   2  19
HETATM   19  N   UNL     1      11.127  -3.841  -1.550  1.00  0.00    -0.165 NA
HETATM   20  C   UNL     1      10.974  -5.125  -1.501  1.00  0.00     0.157 A 
HETATM   21  C   UNL     1       9.706  -5.922  -1.182  1.00  0.00     0.277 A 
HETATM   22  C   UNL     1      12.016  -6.113  -1.748  1.00  0.00     0.027 A 
HETATM   23  O   UNL     1       8.629  -5.430  -0.920  1.00  0.00    -0.266 OA
HETATM   24  N   UNL     1      10.073  -7.248  -1.260  1.00  0.00    -0.321 N 
HETATM   25  C   UNL     1      11.423  -7.365  -1.591  1.00  0.00     0.048 A 
HETATM   26  H   UNL     1       9.437  -8.014  -1.097  1.00  0.00     0.169 HD
HETATM   27  C   UNL     1      12.148  -8.525  -1.758  1.00  0.00     0.030 A 
HETATM   28  C   UNL     1      13.502  -8.393  -2.092  1.00  0.00     0.002 A 
HETATM   29  C   UNL     1      14.096  -7.122  -2.250  1.00  0.00     0.001 A 
HETATM   30  C   UNL     1      13.346  -5.956  -2.077  1.00  0.00     0.016 A 
ENDBRANCH   2  19
TORSDOF 3
