REMARK  5 active torsions:
REMARK  status: ('A' for Active; 'I' for Inactive)
REMARK    1  A    between atoms: C_2  and  N_3 
REMARK       I    between atoms: N_3  and  C_4 
REMARK       I    between atoms: C_4  and  N_5 
REMARK    2  A    between atoms: C_7  and  C_8 
REMARK    3  A    between atoms: C_13  and  N_14 
REMARK       I    between atoms: N_14  and  C_15 
REMARK    4  A    between atoms: C_15  and  C_16 
REMARK    5  A    between atoms: C_19  and  O_20 
ROOT
HETATM    1  C   UNL     1      -0.905  -1.207   2.532  1.00  0.00     0.088 A 
HETATM    2  N   UNL     1      -1.946  -1.675   3.248  1.00  0.00    -0.177 NA
HETATM    3  N   UNL     1      -2.817  -0.659   3.286  1.00  0.00    -0.287 N 
HETATM    4  H   UNL     1      -3.683  -0.792   3.797  1.00  0.00     0.188 HD
HETATM    5  C   UNL     1      -2.417   0.431   2.578  1.00  0.00     0.141 A 
HETATM    6  C   UNL     1      -1.143   0.150   2.148  1.00  0.00     0.079 A 
ENDROOT
BRANCH   1   7
HETATM    7  C   UNL     1       0.181  -2.168   2.079  1.00  0.00     0.060 C 
HETATM    8  C   UNL     1       1.613  -1.682   2.343  1.00  0.00     0.138 C 
HETATM    9  N   UNL     1       2.610  -2.650   1.872  1.00  0.00    -0.334 N 
HETATM   10  C   UNL     1       3.170  -2.444   0.617  1.00  0.00     0.318 C 
HETATM   11  C   UNL     1       2.508  -3.962   2.503  1.00  0.00     0.127 C 
HETATM   12  N   UNL     1       4.191  -3.311   0.312  1.00  0.00    -0.339 N 
HETATM   13  O   UNL     1       2.809  -1.553  -0.148  1.00  0.00    -0.247 OA
HETATM   14  H   UNL     1       4.708  -3.613   1.124  1.00  0.00     0.164 HD
HETATM   15  C   UNL     1       1.124  -4.548   2.236  1.00  0.00     0.021 C 
HETATM   16  C   UNL     1       0.019  -3.588   2.686  1.00  0.00     0.014 C 
BRANCH  12  17
HETATM   17  C   UNL     1       4.963  -3.164  -0.914  1.00  0.00     0.078 C 
HETATM   18  C   UNL     1       5.665  -4.478  -1.243  1.00  0.00     0.032 C 
HETATM   19  C   UNL     1       5.980  -2.030  -0.786  1.00  0.00     0.032 C 
ENDBRANCH  12  17
ENDBRANCH   1   7
BRANCH   6  20
HETATM   20  N   UNL     1      -0.372   1.044   1.427  1.00  0.00    -0.320 N 
HETATM   21  C   UNL     1       0.804   1.531   1.977  1.00  0.00     0.256 C 
HETATM   22  O   UNL     1       1.235   1.273   3.096  1.00  0.00    -0.267 OA
HETATM   23  H   UNL     1      -0.885   1.748   0.909  1.00  0.00     0.169 HD
BRANCH  21  24
HETATM   24  C   UNL     1       1.533   2.500   1.121  1.00  0.00     0.032 A 
HETATM   25  C   UNL     1       2.141   3.607   1.716  1.00  0.00     0.020 A 
HETATM   26  C   UNL     1       2.855   4.511   0.927  1.00  0.00     0.038 A 
HETATM   27  C   UNL     1       2.992   4.299  -0.448  1.00  0.00     0.068 A 
HETATM   28  C   UNL     1       2.382   3.191  -1.040  1.00  0.00     0.038 A 
HETATM   29  C   UNL     1       1.655   2.288  -0.257  1.00  0.00     0.020 A 
BRANCH  27  30
HETATM   30  O   UNL     1       3.733   5.243  -1.105  1.00  0.00    -0.356 OA
HETATM   31  C   UNL     1       4.279   4.846  -2.358  1.00  0.00     0.210 C 
ENDBRANCH  27  30
ENDBRANCH  21  24
ENDBRANCH   6  20
TORSDOF 5
