REMARK  6 active torsions:
REMARK  status: ('A' for Active; 'I' for Inactive)
REMARK    1  A    between atoms: C_2  and  S_3 
REMARK    2  A    between atoms: S_3  and  C_4 
REMARK    3  A    between atoms: C_5  and  C_6 
REMARK       I    between atoms: C_6  and  N_7 
REMARK    4  A    between atoms: N_7  and  C_8 
REMARK    5  A    between atoms: N_9  and  C_10 
REMARK    6  A    between atoms: C_21  and  C_22 
ROOT
HETATM    1  C   UNL     1       3.060   0.900  -2.756  1.00  0.00     0.152 A 
HETATM    2  N   UNL     1       2.229  -0.147  -2.385  1.00  0.00    -0.044 N 
HETATM    3  N   UNL     1       1.221   0.253  -1.552  1.00  0.00    -0.148 NA
HETATM    4  C   UNL     1       1.434   1.568  -1.403  1.00  0.00     0.115 A 
HETATM    5  C   UNL     1       2.555   2.017  -2.131  1.00  0.00     0.087 A 
ENDROOT
BRANCH   1   6
HETATM    6  N   UNL     1       4.149   0.715  -3.592  1.00  0.00    -0.307 N 
HETATM    7  C   UNL     1       4.956   1.745  -4.031  1.00  0.00     0.258 C 
HETATM    8  O   UNL     1       4.807   2.944  -3.837  1.00  0.00    -0.267 OA
HETATM    9  H   UNL     1       4.337  -0.235  -3.912  1.00  0.00     0.170 HD
BRANCH   7  10
HETATM   10  C   UNL     1       6.054   1.291  -4.910  1.00  0.00     0.049 A 
HETATM   11  C   UNL     1       7.155   0.564  -4.429  1.00  0.00     0.016 A 
HETATM   12  C   UNL     1       8.134   0.154  -5.346  1.00  0.00     0.019 A 
HETATM   13  C   UNL     1       8.010   0.450  -6.707  1.00  0.00     0.001 A 
HETATM   14  C   UNL     1       6.914   1.175  -7.170  1.00  0.00     0.001 A 
HETATM   15  C   UNL     1       5.938   1.601  -6.273  1.00  0.00     0.018 A 
BRANCH  11  16
HETATM   16  S   UNL     1       7.422   0.214  -2.695  1.00  0.00    -0.129 SA
BRANCH  16  17
HETATM   17  C   UNL     1       7.046  -1.567  -2.678  1.00  0.00     0.075 C 
HETATM   18  C   UNL     1       7.334  -2.141  -1.302  1.00  0.00     0.016 C 
ENDBRANCH  16  17
ENDBRANCH  11  16
ENDBRANCH   7  10
ENDBRANCH   1   6
BRANCH   2  19
HETATM   19  C   UNL     1       2.314  -1.499  -2.772  1.00  0.00     0.732 A 
HETATM   20  N   UNL     1       3.240  -1.960  -3.563  1.00  0.00    -0.067 NA
HETATM   21  C   UNL     1       3.138  -3.298  -3.820  1.00  0.00     0.065 A 
HETATM   22  C   UNL     1       2.207  -4.121  -3.336  1.00  0.00     0.036 A 
HETATM   23  C   UNL     1       4.091  -4.025  -4.708  1.00  0.00     0.061 C 
HETATM   24  C   UNL     1       2.354  -5.519  -3.798  1.00  0.00     0.047 C 
HETATM   25  C   UNL     1       1.176  -3.589  -2.446  1.00  0.00     0.268 A 
HETATM   26  C   UNL     1       3.374  -5.364  -4.934  1.00  0.00     0.011 C 
HETATM   27  O   UNL     1       0.294  -4.285  -1.965  1.00  0.00    -0.267 OA
HETATM   28  N   UNL     1       1.304  -2.248  -2.213  1.00  0.00    -0.152 N 
HETATM   29  H   UNL     1       0.630  -1.789  -1.608  1.00  0.00     0.188 HD
ENDBRANCH   2  19
BRANCH   4  30
HETATM   30  C   UNL     1       0.567   2.433  -0.551  1.00  0.00     0.105 A 
HETATM   31  O   UNL     1       0.758   3.775  -0.364  1.00  0.00    -0.320 OA
HETATM   32  C   UNL     1      -0.219   4.211   0.470  1.00  0.00     0.142 A 
HETATM   33  C   UNL     1      -1.046   3.174   0.828  1.00  0.00     0.027 A 
HETATM   34  C   UNL     1      -0.541   2.026   0.170  1.00  0.00     0.041 A 
ENDBRANCH   4  30
TORSDOF 6
