REMARK  3 active torsions:
REMARK  status: ('A' for Active; 'I' for Inactive)
REMARK    1  A    between atoms: O_2  and  C_3 
REMARK    2  A    between atoms: C_9  and  C_10 
REMARK       I    between atoms: C_10  and  N_11 
REMARK    3  A    between atoms: N_11  and  C_12 
ROOT
HETATM    1  C   UNL     1       3.074   1.242   0.236  1.00  0.00     0.068 A 
HETATM    2  C   UNL     1       4.356   1.112   0.777  1.00  0.00     0.044 A 
HETATM    3  C   UNL     1       5.132   2.243   1.063  1.00  0.00    -0.043 A 
HETATM    4  C   UNL     1       4.616   3.526   0.771  1.00  0.00    -0.001 A 
HETATM    5  C   UNL     1       5.466   4.656   1.107  1.00  0.00     0.069 A 
HETATM    6  C   UNL     1       6.613   4.569   1.864  1.00  0.00     0.007 A 
HETATM    7  C   UNL     1       7.104   5.893   1.969  1.00  0.00     0.153 A 
HETATM    8  N   UNL     1       6.312   6.752   1.282  1.00  0.00    -0.168 NA
HETATM    9  N   UNL     1       5.337   5.968   0.775  1.00  0.00    -0.276 N 
HETATM   10  H   UNL     1       4.616   6.402   0.209  1.00  0.00     0.189 HD
HETATM   11  C   UNL     1       7.074   3.273   2.432  1.00  0.00     0.048 C 
HETATM   12  C   UNL     1       6.554   2.082   1.590  1.00  0.00     0.044 C 
HETATM   13  C   UNL     1       3.339   3.655   0.225  1.00  0.00     0.017 A 
HETATM   14  C   UNL     1       2.570   2.515  -0.039  1.00  0.00     0.037 A 
ENDROOT
BRANCH   7  15
HETATM   15  C   UNL     1       8.287   6.370   2.715  1.00  0.00     0.277 C 
HETATM   16  N   UNL     1       8.434   7.739   2.609  1.00  0.00    -0.322 N 
HETATM   17  H   UNL     1       7.715   8.171   2.032  1.00  0.00     0.169 HD
HETATM   18  O   UNL     1       9.012   5.604   3.342  1.00  0.00    -0.266 OA
BRANCH  16  19
HETATM   19  C   UNL     1       9.404   8.567   3.197  1.00  0.00     0.037 A 
HETATM   20  C   UNL     1      10.428   8.101   4.021  1.00  0.00     0.071 A 
HETATM   21  C   UNL     1      11.339   9.003   4.567  1.00  0.00     0.118 A 
HETATM   22  F   UNL     1      12.319   8.550   5.360  1.00  0.00    -0.206 F 
HETATM   23  C   UNL     1      11.252  10.365   4.307  1.00  0.00     0.042 A 
HETATM   24  C   UNL     1      10.235  10.839   3.484  1.00  0.00     0.005 A 
HETATM   25  C   UNL     1       9.315   9.942   2.932  1.00  0.00     0.029 A 
ENDBRANCH  16  19
ENDBRANCH   7  15
BRANCH   1  26
HETATM   26  O   UNL     1       2.424   0.057   0.020  1.00  0.00    -0.356 OA
HETATM   27  C   UNL     1       1.095   0.132  -0.479  1.00  0.00     0.210 C 
ENDBRANCH   1  26
TORSDOF 3
