REMARK  9 active torsions:
REMARK  status: ('A' for Active; 'I' for Inactive)
REMARK    1  A    between atoms: C_2  and  C_3 
REMARK    2  A    between atoms: C_6  and  N_7 
REMARK    3  A    between atoms: N_7  and  S_8 
REMARK    4  A    between atoms: S_8  and  C_9 
REMARK    5  A    between atoms: C_15  and  C_16 
REMARK       I    between atoms: C_16  and  N_17 
REMARK    6  A    between atoms: N_17  and  C_18 
REMARK    7  A    between atoms: C_18  and  C_19 
REMARK    8  A    between atoms: C_19  and  C_20 
REMARK    9  A    between atoms: C_20  and  O_21 
ROOT
HETATM    1  C   UNL     1       6.113   5.059  -3.030  1.00  0.00     0.081 A 
HETATM    2  C   UNL     1       7.089   6.035  -2.815  1.00  0.00     0.043 A 
HETATM    3  C   UNL     1       8.408   5.635  -2.580  1.00  0.00     0.043 A 
HETATM    4  C   UNL     1       8.762   4.274  -2.577  1.00  0.00     0.046 A 
HETATM    5  N   UNL     1      10.082   3.902  -2.297  1.00  0.00    -0.364 N 
HETATM    6  C   UNL     1      11.057   4.851  -2.119  1.00  0.00     0.109 A 
HETATM    7  C   UNL     1      10.861   6.180  -2.115  1.00  0.00     0.098 A 
HETATM    8  C   UNL     1       9.465   6.654  -2.338  1.00  0.00     0.201 A 
HETATM    9  O   UNL     1       9.179   7.850  -2.329  1.00  0.00    -0.286 OA
HETATM   10  C   UNL     1       7.770   3.313  -2.791  1.00  0.00     0.032 A 
HETATM   11  C   UNL     1       6.447   3.701  -3.030  1.00  0.00     0.027 A 
HETATM   12  H   UNL     1      10.368   2.939  -2.441  1.00  0.00     0.165 HD
ENDROOT
BRANCH   1  13
HETATM   13  S   UNL     1       4.442   5.568  -3.380  1.00  0.00     0.263 S 
HETATM   14  O   UNL     1       3.798   4.502  -4.114  1.00  0.00    -0.200 OA
HETATM   15  O   UNL     1       4.513   6.912  -3.915  1.00  0.00    -0.200 OA
BRANCH  13  16
HETATM   16  N   UNL     1       3.766   5.705  -1.842  1.00  0.00    -0.281 N 
HETATM   17  H   UNL     1       3.994   6.587  -1.386  1.00  0.00     0.179 HD
BRANCH  16  18
HETATM   18  C   UNL     1       3.636   4.548  -1.028  1.00  0.00     0.042 A 
HETATM   19  C   UNL     1       4.453   4.391   0.090  1.00  0.00     0.030 A 
HETATM   20  C   UNL     1       4.322   3.253   0.892  1.00  0.00     0.009 A 
HETATM   21  C   UNL     1       3.373   2.268   0.582  1.00  0.00    -0.058 A 
HETATM   22  C   UNL     1       2.562   2.437  -0.547  1.00  0.00     0.009 A 
HETATM   23  C   UNL     1       2.699   3.569  -1.352  1.00  0.00     0.030 A 
BRANCH  21  24
HETATM   24  C   UNL     1       3.197   1.064   1.472  1.00  0.00     0.034 C 
HETATM   25  C   UNL     1       2.290   1.363   2.656  1.00  0.00     0.010 C 
ENDBRANCH  21  24
ENDBRANCH  16  18
ENDBRANCH  13  16
ENDBRANCH   1  13
BRANCH   7  26
HETATM   26  C   UNL     1      12.034   7.074  -1.897  1.00  0.00     0.257 C 
HETATM   27  N   UNL     1      11.768   8.418  -1.966  1.00  0.00    -0.357 N 
HETATM   28  H   UNL     1      10.803   8.711  -2.129  1.00  0.00     0.162 HD
HETATM   29  O   UNL     1      13.154   6.623  -1.674  1.00  0.00    -0.267 OA
BRANCH  27  30
HETATM   30  C   UNL     1      12.782   9.432  -1.770  1.00  0.00     0.125 C 
BRANCH  30  31
HETATM   31  C   UNL     1      13.693   9.619  -2.979  1.00  0.00     0.046 C 
BRANCH  31  32
HETATM   32  C   UNL     1      12.943  10.104  -4.214  1.00  0.00     0.168 C 
BRANCH  32  33
HETATM   33  O   UNL     1      13.897  10.346  -5.249  1.00  0.00    -0.396 OA
HETATM   34  C   UNL     1      13.271  10.760  -6.456  1.00  0.00     0.201 C 
ENDBRANCH  32  33
ENDBRANCH  31  32
ENDBRANCH  30  31
ENDBRANCH  27  30
ENDBRANCH   7  26
TORSDOF 9
