REMARK  2 active torsions:
REMARK  status: ('A' for Active; 'I' for Inactive)
REMARK    1  A    between atoms: N_20  and  C_21 
REMARK    2  A    between atoms: C_24  and  O_25 
ROOT
HETATM    1  C   UNL     1       4.167   3.673  -2.492  1.00  0.00     0.048 C 
HETATM    2  C   UNL     1       5.109   2.540  -2.192  1.00  0.00    -0.061 A 
HETATM    3  C   UNL     1       4.617   1.272  -1.839  1.00  0.00     0.019 A 
HETATM    4  C   UNL     1       5.522   0.240  -1.630  1.00  0.00     0.016 A 
HETATM    5  C   UNL     1       6.894   0.489  -1.750  1.00  0.00     0.044 A 
HETATM    6  N   UNL     1       7.624  -0.653  -1.463  1.00  0.00    -0.324 N 
HETATM    7  C   UNL     1       6.792  -1.710  -1.152  1.00  0.00     0.264 A 
HETATM    8  O   UNL     1       7.138  -2.831  -0.816  1.00  0.00    -0.270 OA
HETATM    9  C   UNL     1       5.307  -1.194  -1.226  1.00  0.00     0.250 A 
HETATM   10  N   UNL     1       4.584  -1.317   0.103  1.00  0.00    -0.043 N 
HETATM   11  H   UNL     1       3.739  -0.731   0.041  1.00  0.00     0.282 HD
HETATM   12  C   UNL     1       4.204  -2.771   0.214  1.00  0.00     0.204 C 
HETATM   13  C   UNL     1       3.408  -2.737   1.497  1.00  0.00     0.036 C 
HETATM   14  C   UNL     1       4.259  -1.798   2.384  1.00  0.00     0.030 C 
HETATM   15  C   UNL     1       5.173  -0.996   1.437  1.00  0.00     0.237 C 
HETATM   16  C   UNL     1       3.728  -3.114  -1.180  1.00  0.00     0.126 C 
HETATM   17  C   UNL     1       4.515  -2.187  -2.117  1.00  0.00     0.145 C 
HETATM   18  C   UNL     1       3.445  -1.537  -2.939  1.00  0.00     0.239 C 
HETATM   19  O   UNL     1       3.732  -0.884  -3.930  1.00  0.00    -0.272 OA
HETATM   20  N   UNL     1       2.209  -1.791  -2.381  1.00  0.00    -0.252 N 
HETATM   21  C   UNL     1       2.295  -2.752  -1.400  1.00  0.00     0.238 C 
HETATM   22  O   UNL     1       1.424  -3.247  -0.701  1.00  0.00    -0.272 OA
HETATM   23  C   UNL     1       7.409   1.719  -2.091  1.00  0.00     0.031 A 
HETATM   24  C   UNL     1       6.499   2.751  -2.319  1.00  0.00     0.009 A 
HETATM   25  H   UNL     1       8.635  -0.721  -1.486  1.00  0.00     0.169 HD
ENDROOT
BRANCH  20  26
HETATM   26  C   UNL     1       0.991  -1.130  -2.757  1.00  0.00     0.045 A 
HETATM   27  C   UNL     1       0.992  -0.005  -3.595  1.00  0.00     0.033 A 
HETATM   28  C   UNL     1      -0.190   0.697  -3.879  1.00  0.00     0.039 A 
HETATM   29  C   UNL     1      -1.409   0.296  -3.341  1.00  0.00     0.068 A 
HETATM   30  C   UNL     1      -1.440  -0.834  -2.538  1.00  0.00     0.039 A 
HETATM   31  C   UNL     1      -0.257  -1.536  -2.255  1.00  0.00     0.033 A 
BRANCH  29  32
HETATM   32  O   UNL     1      -2.475   1.082  -3.671  1.00  0.00    -0.356 OA
HETATM   33  C   UNL     1      -3.729   0.749  -3.085  1.00  0.00     0.210 C 
ENDBRANCH  29  32
ENDBRANCH  20  26
TORSDOF 2
