REMARK  8 active torsions:
REMARK  status: ('A' for Active; 'I' for Inactive)
REMARK    1  A    between atoms: C_4  and  C_5 
REMARK       I    between atoms: C_5  and  N_6 
REMARK    2  A    between atoms: N_6  and  C_7 
REMARK    3  A    between atoms: C_7  and  C_8 
REMARK    4  A    between atoms: C_8  and  C_9 
REMARK       I    between atoms: C_9  and  N_10 
REMARK    5  A    between atoms: N_10  and  N_11 
REMARK       I    between atoms: N_11  and  C_12 
REMARK    6  A    between atoms: C_12  and  C_13 
REMARK    7  A    between atoms: N_15  and  C_16 
REMARK    8  A    between atoms: C_24  and  O_25 
ROOT
HETATM    1  N   UNL     1       0.629   4.317  -0.226  1.00  0.00    -0.262 N 
HETATM    2  C   UNL     1      -0.608   4.335  -0.848  1.00  0.00     0.293 C 
HETATM    3  O   UNL     1      -0.999   5.311  -1.487  1.00  0.00    -0.264 OA
HETATM    4  H   UNL     1       0.995   3.436   0.137  1.00  0.00     0.190 HD
ENDROOT
BRANCH   1   5
HETATM    5  N   UNL     1       1.531   5.361  -0.481  1.00  0.00    -0.267 N 
HETATM    6  C   UNL     1       2.871   5.040  -0.591  1.00  0.00     0.237 C 
HETATM    7  O   UNL     1       3.322   3.936  -0.297  1.00  0.00    -0.272 OA
HETATM    8  H   UNL     1       1.141   6.162  -0.978  1.00  0.00     0.190 HD
BRANCH   6   9
HETATM    9  C   UNL     1       3.722   6.209  -1.032  1.00  0.00     0.124 C 
BRANCH   9  10
HETATM   10  C   UNL     1       5.119   5.750  -1.428  1.00  0.00     0.132 C 
BRANCH  10  11
HETATM   11  N   UNL     1       6.006   6.859  -1.733  1.00  0.00    -0.356 N 
HETATM   12  C   UNL     1       5.902   7.574  -2.908  1.00  0.00     0.251 C 
HETATM   13  O   UNL     1       5.024   7.373  -3.740  1.00  0.00    -0.268 OA
HETATM   14  H   UNL     1       6.647   7.166  -1.014  1.00  0.00     0.162 HD
BRANCH  12  15
HETATM   15  C   UNL     1       6.904   8.657  -3.119  1.00  0.00     0.032 A 
HETATM   16  C   UNL     1       8.192   8.592  -2.572  1.00  0.00     0.017 A 
HETATM   17  C   UNL     1       9.104   9.625  -2.806  1.00  0.00     0.001 A 
HETATM   18  C   UNL     1       8.736  10.718  -3.591  1.00  0.00     0.000 A 
HETATM   19  C   UNL     1       7.461  10.779  -4.151  1.00  0.00     0.001 A 
HETATM   20  C   UNL     1       6.547   9.749  -3.920  1.00  0.00     0.017 A 
ENDBRANCH  12  15
ENDBRANCH  10  11
ENDBRANCH   9  10
ENDBRANCH   6   9
ENDBRANCH   1   5
BRANCH   2  21
HETATM   21  C   UNL     1      -1.372   3.094  -0.668  1.00  0.00     0.181 A 
HETATM   22  N   UNL     1      -0.897   2.070   0.073  1.00  0.00    -0.159 NA
HETATM   23  N   UNL     1      -1.869   1.117   0.037  1.00  0.00    -0.242 N 
HETATM   24  C   UNL     1      -2.937   1.509  -0.741  1.00  0.00     0.158 A 
HETATM   25  C   UNL     1      -2.640   2.765  -1.192  1.00  0.00     0.119 A 
BRANCH  23  26
HETATM   26  C   UNL     1      -1.716  -0.104   0.757  1.00  0.00     0.058 A 
HETATM   27  C   UNL     1      -0.547  -0.325   1.504  1.00  0.00     0.033 A 
HETATM   28  C   UNL     1      -0.382  -1.511   2.227  1.00  0.00     0.026 A 
HETATM   29  C   UNL     1      -1.382  -2.480   2.206  1.00  0.00     0.034 A 
HETATM   30 CL   UNL     1      -1.182  -3.937   3.097  1.00  0.00    -0.084 Cl
HETATM   31  C   UNL     1      -2.545  -2.274   1.467  1.00  0.00     0.026 A 
HETATM   32  C   UNL     1      -2.716  -1.089   0.742  1.00  0.00     0.033 A 
ENDBRANCH  23  26
BRANCH  25  33
HETATM   33  O   UNL     1      -3.441   3.497  -1.979  1.00  0.00    -0.357 OA
HETATM   34  H   UNL     1      -4.259   3.017  -2.194  1.00  0.00     0.218 HD
ENDBRANCH  25  33
ENDBRANCH   2  21
TORSDOF 8
