REMARK  5 active torsions:
REMARK  status: ('A' for Active; 'I' for Inactive)
REMARK    1  A    between atoms: C_2  and  C_3 
REMARK    2  A    between atoms: C_3  and  O_4 
REMARK    3  A    between atoms: C_3  and  C_5 
REMARK    4  A    between atoms: N_8  and  C_10 
REMARK    5  A    between atoms: C_10  and  C_11 
ROOT
HETATM    1  C   UNL     1       0.071   3.069   0.107  1.00  0.00     0.022 C 
HETATM    2  C   UNL     1      -0.213   1.834   0.978  1.00  0.00     0.035 C 
HETATM    3  C   UNL     1       0.584   0.602   0.576  1.00  0.00     0.235 C 
HETATM    4  N   UNL     1       0.358   0.292  -0.879  1.00  0.00    -0.066 N 
HETATM    5  H   UNL     1      -0.630  -0.003  -0.964  1.00  0.00     0.280 HD
HETATM    6  C   UNL     1       0.624   1.438  -1.803  1.00  0.00     0.235 C 
HETATM    7  C   UNL     1      -0.147   2.677  -1.366  1.00  0.00     0.035 C 
ENDROOT
BRANCH   1   8
HETATM    8  C   UNL     1       1.459   3.726   0.326  1.00  0.00     0.155 C 
BRANCH   8   9
HETATM    9  C   UNL     1       1.644   4.325   1.707  1.00  0.00    -0.029 A 
HETATM   10  C   UNL     1       2.187   3.584   2.771  1.00  0.00     0.011 A 
HETATM   11  C   UNL     1       2.342   4.159   4.035  1.00  0.00     0.024 A 
HETATM   12  C   UNL     1       1.961   5.481   4.247  1.00  0.00     0.034 A 
HETATM   13  C   UNL     1       1.423   6.232   3.205  1.00  0.00     0.024 A 
HETATM   14 CL   UNL     1       2.156   6.188   5.802  1.00  0.00    -0.084 Cl
HETATM   15  C   UNL     1       1.262   5.655   1.942  1.00  0.00     0.011 A 
ENDBRANCH   8   9
BRANCH   8  16
HETATM   16  O   UNL     1       2.509   2.805   0.043  1.00  0.00    -0.391 OA
HETATM   17  H   UNL     1       3.340   3.256   0.294  1.00  0.00     0.210 HD
ENDBRANCH   8  16
ENDBRANCH   1   8
BRANCH   4  18
HETATM   18  C   UNL     1       1.109  -0.961  -1.305  1.00  0.00     0.295 C 
BRANCH  18  19
HETATM   19  C   UNL     1       0.425  -2.201  -0.821  1.00  0.00     0.081 A 
HETATM   20  N   UNL     1      -0.899  -2.176  -0.590  1.00  0.00    -0.178 NA
HETATM   21  N   UNL     1      -1.176  -3.435  -0.182  1.00  0.00    -0.289 N 
HETATM   22  H   UNL     1      -2.137  -3.681   0.041  1.00  0.00     0.188 HD
HETATM   23  C   UNL     1      -0.070  -4.231  -0.120  1.00  0.00     0.111 A 
HETATM   24  C   UNL     1       0.989  -3.462  -0.533  1.00  0.00     0.049 A 
ENDBRANCH  18  19
ENDBRANCH   4  18
TORSDOF 5
