REMARK  4 active torsions:
REMARK  status: ('A' for Active; 'I' for Inactive)
REMARK    1  A    between atoms: C_4  and  N_5 
REMARK    2  A    between atoms: N_5  and  C_6 
REMARK    3  A    between atoms: C_6  and  N_7 
REMARK       I    between atoms: N_7  and  C_8 
REMARK    4  A    between atoms: C_8  and  C_9 
ROOT
HETATM    1  N   UNL     1       3.405   3.494   0.975  1.00  0.00    -0.299 N 
HETATM    2  C   UNL     1       2.797   2.326   1.422  1.00  0.00     0.257 C 
HETATM    3  O   UNL     1       1.600   2.136   1.583  1.00  0.00    -0.267 OA
HETATM    4  H   UNL     1       4.405   3.562   1.149  1.00  0.00     0.171 HD
ENDROOT
BRANCH   1   5
HETATM    5  C   UNL     1       2.920   4.585   0.285  1.00  0.00     0.180 C 
HETATM    6  S   UNL     1       1.366   4.803  -0.286  1.00  0.00    -0.040 SA
BRANCH   5   7
HETATM    7  N   UNL     1       3.830   5.583   0.025  1.00  0.00    -0.318 N 
HETATM    8  H   UNL     1       3.446   6.367  -0.488  1.00  0.00     0.170 HD
BRANCH   7   9
HETATM    9  C   UNL     1       5.181   5.654   0.397  1.00  0.00     0.129 A 
HETATM   10  C   UNL     1       5.905   6.781   0.026  1.00  0.00     0.057 A 
HETATM   11  C   UNL     1       7.249   6.882   0.402  1.00  0.00    -0.057 A 
HETATM   12  C   UNL     1       8.078   8.070   0.016  1.00  0.00     0.048 C 
HETATM   13  C   UNL     1       7.817   5.843   1.138  1.00  0.00     0.026 A 
HETATM   14  C   UNL     1       7.026   4.755   1.460  1.00  0.00     0.119 A 
HETATM   15  N   UNL     1       5.730   4.635   1.098  1.00  0.00    -0.243 NA
ENDBRANCH   7   9
ENDBRANCH   5   7
ENDBRANCH   1   5
BRANCH   2  16
HETATM   16  C   UNL     1       3.770   1.281   1.836  1.00  0.00     0.033 A 
HETATM   17  C   UNL     1       3.567   0.601   3.040  1.00  0.00     0.023 A 
HETATM   18  C   UNL     1       4.498  -0.351   3.471  1.00  0.00    -0.061 A 
HETATM   19  C   UNL     1       4.311  -1.075   4.772  1.00  0.00     0.048 C 
HETATM   20  C   UNL     1       5.612  -0.637   2.666  1.00  0.00     0.013 A 
HETATM   21  C   UNL     1       5.808   0.020   1.444  1.00  0.00    -0.061 A 
HETATM   22  C   UNL     1       6.988  -0.299   0.574  1.00  0.00     0.048 C 
HETATM   23  C   UNL     1       4.881   0.985   1.035  1.00  0.00     0.023 A 
ENDBRANCH   2  16
TORSDOF 4
