REMARK  7 active torsions:
REMARK  status: ('A' for Active; 'I' for Inactive)
REMARK    1  A    between atoms: O_2  and  C_3 
REMARK    2  A    between atoms: C_6  and  C_7 
REMARK    3  A    between atoms: C_11  and  C_12 
REMARK       I    between atoms: C_12  and  N_13 
REMARK    4  A    between atoms: N_13  and  N_14 
REMARK       I    between atoms: N_14  and  C_15 
REMARK    5  A    between atoms: C_15  and  C_16 
REMARK    6  A    between atoms: C_16  and  C_17 
REMARK    7  A    between atoms: C_17  and  C_18 
ROOT
HETATM    1  C   UNL     1       7.650   7.005  -2.016  1.00  0.00     0.288 C 
HETATM    2  N   UNL     1       8.728   6.286  -2.484  1.00  0.00    -0.262 N 
HETATM    3  O   UNL     1       7.614   8.233  -2.083  1.00  0.00    -0.264 OA
HETATM    4  H   UNL     1       8.785   5.270  -2.476  1.00  0.00     0.190 HD
ENDROOT
BRANCH   1   5
HETATM    5  C   UNL     1       6.576   6.228  -1.463  1.00  0.00     0.121 A 
HETATM    6  N   UNL     1       5.456   6.816  -0.949  1.00  0.00    -0.272 N 
HETATM    7  N   UNL     1       4.529   5.951  -0.517  1.00  0.00    -0.174 NA
HETATM    8  H   UNL     1       5.266   7.812  -0.883  1.00  0.00     0.189 HD
HETATM    9  C   UNL     1       5.065   4.740  -0.735  1.00  0.00     0.089 A 
HETATM   10  C   UNL     1       6.357   4.872  -1.318  1.00  0.00     0.071 A 
BRANCH   9  11
HETATM   11  C   UNL     1       4.338   3.507  -0.420  1.00  0.00    -0.005 A 
HETATM   12  C   UNL     1       2.941   3.519  -0.303  1.00  0.00     0.016 A 
HETATM   13  C   UNL     1       2.226   2.342  -0.047  1.00  0.00     0.037 A 
HETATM   14  C   UNL     1       2.901   1.133   0.101  1.00  0.00     0.068 A 
HETATM   15  C   UNL     1       4.295   1.116   0.013  1.00  0.00     0.037 A 
HETATM   16  C   UNL     1       5.010   2.290  -0.249  1.00  0.00     0.016 A 
BRANCH  14  17
HETATM   17  O   UNL     1       2.327  -0.085   0.340  1.00  0.00    -0.356 OA
HETATM   18  C   UNL     1       0.909  -0.149   0.251  1.00  0.00     0.210 C 
ENDBRANCH  14  17
ENDBRANCH   9  11
ENDBRANCH   1   5
BRANCH   2  19
HETATM   19  N   UNL     1       9.781   6.969  -3.099  1.00  0.00    -0.267 N 
HETATM   20  C   UNL     1      10.779   6.228  -3.690  1.00  0.00     0.236 C 
HETATM   21  O   UNL     1      10.829   5.001  -3.620  1.00  0.00    -0.272 OA
HETATM   22  H   UNL     1       9.646   7.966  -3.259  1.00  0.00     0.190 HD
BRANCH  20  23
HETATM   23  C   UNL     1      11.811   7.049  -4.424  1.00  0.00     0.109 C 
BRANCH  23  24
HETATM   24  C   UNL     1      12.684   7.829  -3.446  1.00  0.00     0.048 C 
BRANCH  24  25
HETATM   25  C   UNL     1      13.706   8.679  -4.160  1.00  0.00    -0.058 A 
HETATM   26  C   UNL     1      13.540  10.070  -4.248  1.00  0.00     0.010 A 
HETATM   27  C   UNL     1      14.483  10.851  -4.918  1.00  0.00     0.043 A 
HETATM   28  C   UNL     1      15.588  10.243  -5.502  1.00  0.00     0.116 A 
HETATM   29  F   UNL     1      16.491  10.994  -6.145  1.00  0.00    -0.206 F 
HETATM   30  C   UNL     1      15.769   8.867  -5.428  1.00  0.00     0.043 A 
HETATM   31  C   UNL     1      14.829   8.084  -4.756  1.00  0.00     0.010 A 
ENDBRANCH  24  25
ENDBRANCH  23  24
ENDBRANCH  20  23
ENDBRANCH   2  19
TORSDOF 7
