REMARK  7 active torsions:
REMARK  status: ('A' for Active; 'I' for Inactive)
REMARK    1  A    between atoms: O_2  and  C_3 
REMARK    2  A    between atoms: C_6  and  C_7 
REMARK    3  A    between atoms: N_8  and  N_9 
REMARK       I    between atoms: N_9  and  C_10 
REMARK    4  A    between atoms: C_10  and  C_11 
REMARK       I    between atoms: C_11  and  N_12 
REMARK    5  A    between atoms: N_12  and  C_13 
REMARK    6  A    between atoms: C_14  and  C_15 
REMARK       I    between atoms: C_15  and  N_16 
REMARK    7  A    between atoms: N_16  and  C_17 
ROOT
HETATM    1  C   UNL     1       4.838  -8.682   0.232  1.00  0.00     0.315 C 
HETATM    2  N   UNL     1       3.933  -9.723   0.294  1.00  0.00    -0.318 N 
HETATM    3  O   UNL     1       5.676  -8.436  -0.621  1.00  0.00    -0.262 OA
HETATM    4  H   UNL     1       3.541  -9.844   1.229  1.00  0.00     0.169 HD
ENDROOT
BRANCH   2   5
HETATM    5  C   UNL     1       3.828 -10.801  -0.607  1.00  0.00     0.051 A 
HETATM    6  C   UNL     1       4.065 -10.763  -1.992  1.00  0.00     0.058 A 
HETATM    7  C   UNL     1       4.022 -11.960  -2.735  1.00  0.00     0.019 A 
HETATM    8  C   UNL     1       3.699 -13.173  -2.129  1.00  0.00     0.001 A 
HETATM    9  C   UNL     1       3.400 -13.202  -0.773  1.00  0.00     0.002 A 
HETATM   10  C   UNL     1       3.458 -12.026  -0.021  1.00  0.00     0.030 A 
BRANCH   6  11
HETATM   11  C   UNL     1       4.169  -9.534  -2.826  1.00  0.00     0.254 C 
HETATM   12  N   UNL     1       3.258  -8.534  -2.538  1.00  0.00    -0.352 N 
HETATM   13  H   UNL     1       2.590  -8.704  -1.798  1.00  0.00     0.163 HD
HETATM   14  O   UNL     1       4.914  -9.516  -3.800  1.00  0.00    -0.268 OA
BRANCH  12  15
HETATM   15  C   UNL     1       2.989  -7.462  -3.491  1.00  0.00     0.084 C 
HETATM   16  C   UNL     1       1.650  -6.779  -3.177  1.00  0.00     0.025 C 
HETATM   17  C   UNL     1       1.724  -5.866  -1.954  1.00  0.00     0.002 C 
HETATM   18  C   UNL     1       2.842  -4.839  -2.093  1.00  0.00     0.000 C 
HETATM   19  C   UNL     1       4.185  -5.512  -2.351  1.00  0.00     0.002 C 
HETATM   20  C   UNL     1       4.129  -6.435  -3.567  1.00  0.00     0.025 C 
ENDBRANCH  12  15
ENDBRANCH   6  11
ENDBRANCH   2   5
BRANCH   1  21
HETATM   21  C   UNL     1       4.777  -7.810   1.497  1.00  0.00     0.329 C 
HETATM   22  N   UNL     1       5.654  -6.745   1.457  1.00  0.00    -0.239 N 
HETATM   23  H   UNL     1       6.251  -6.640   0.639  1.00  0.00     0.192 HD
HETATM   24  O   UNL     1       4.006  -8.133   2.394  1.00  0.00    -0.261 OA
BRANCH  22  25
HETATM   25  N   UNL     1       5.760  -5.906   2.524  1.00  0.00    -0.183 NA
HETATM   26  C   UNL     1       6.626  -4.951   2.404  1.00  0.00     0.150 C 
BRANCH  26  27
HETATM   27  C   UNL     1       6.859  -3.976   3.490  1.00  0.00    -0.017 A 
HETATM   28  C   UNL     1       6.156  -4.062   4.694  1.00  0.00     0.016 A 
HETATM   29  C   UNL     1       6.405  -3.134   5.708  1.00  0.00     0.037 A 
HETATM   30  C   UNL     1       7.359  -2.128   5.535  1.00  0.00     0.068 A 
HETATM   31  C   UNL     1       8.049  -2.038   4.324  1.00  0.00     0.037 A 
HETATM   32  C   UNL     1       7.801  -2.962   3.301  1.00  0.00     0.016 A 
BRANCH  30  33
HETATM   33  O   UNL     1       7.512  -1.291   6.606  1.00  0.00    -0.356 OA
HETATM   34  C   UNL     1       8.673  -0.469   6.611  1.00  0.00     0.210 C 
ENDBRANCH  30  33
ENDBRANCH  26  27
ENDBRANCH  22  25
ENDBRANCH   1  21
TORSDOF 7
