REMARK  3 active torsions:
REMARK  status: ('A' for Active; 'I' for Inactive)
REMARK    1  A    between atoms: N_4  and  C_5 
REMARK    2  A    between atoms: C_5  and  C_6 
REMARK       I    between atoms: C_6  and  N_7 
REMARK    3  A    between atoms: N_7  and  C_8 
ROOT
HETATM    1  C   UNL     1       5.521  -2.936   0.108  1.00  0.00     0.257 C 
ENDROOT
BRANCH   1   2
HETATM    2  N   UNL     1       5.255  -1.504   0.200  1.00  0.00    -0.225 N 
HETATM    3  N   UNL     1       5.725  -0.734  -0.837  1.00  0.00    -0.173 NA
HETATM    4  C   UNL     1       5.611   0.557  -0.773  1.00  0.00     0.062 A 
HETATM    5  C   UNL     1       6.156   1.363  -1.928  1.00  0.00     0.073 C 
HETATM    6  C   UNL     1       4.990   1.260   0.367  1.00  0.00     0.006 A 
HETATM    7  C   UNL     1       4.557   0.480   1.433  1.00  0.00     0.046 A 
HETATM    8  C   UNL     1       4.833   2.651   0.412  1.00  0.00     0.014 A 
HETATM    9  C   UNL     1       4.730  -0.982   1.378  1.00  0.00     0.275 A 
HETATM   10  C   UNL     1       3.962   1.080   2.550  1.00  0.00     0.018 A 
HETATM   11  O   UNL     1       4.402  -1.672   2.343  1.00  0.00    -0.266 OA
HETATM   12  C   UNL     1       3.804   2.465   2.594  1.00  0.00     0.001 A 
HETATM   13  C   UNL     1       4.240   3.249   1.527  1.00  0.00     0.001 A 
ENDBRANCH   1   2
BRANCH   1  14
HETATM   14  C   UNL     1       4.235  -3.748  -0.055  1.00  0.00     0.238 C 
HETATM   15  N   UNL     1       3.593  -4.023   1.135  1.00  0.00    -0.351 N 
HETATM   16  H   UNL     1       3.843  -3.443   1.935  1.00  0.00     0.163 HD
HETATM   17  O   UNL     1       3.812  -4.123  -1.146  1.00  0.00    -0.272 OA
BRANCH  15  18
HETATM   18  C   UNL     1       2.347  -4.748   1.178  1.00  0.00     0.118 C 
HETATM   19  C   UNL     1       1.740  -4.789   2.555  1.00  0.00    -0.029 A 
HETATM   20  C   UNL     1       1.251  -6.069   2.844  1.00  0.00    -0.050 A 
HETATM   21  C   UNL     1       1.584  -3.752   3.464  1.00  0.00     0.010 A 
HETATM   22  C   UNL     1       0.616  -6.342   4.045  1.00  0.00     0.007 A 
HETATM   23  C   UNL     1       1.464  -6.997   1.690  1.00  0.00     0.041 C 
HETATM   24  C   UNL     1       0.478  -5.307   4.972  1.00  0.00     0.001 A 
HETATM   25  C   UNL     1       0.956  -4.021   4.683  1.00  0.00     0.001 A 
HETATM   26  C   UNL     1       2.546  -6.254   0.899  1.00  0.00     0.034 C 
ENDBRANCH  15  18
ENDBRANCH   1  14
TORSDOF 3
