REMARK  5 active torsions:
REMARK  status: ('A' for Active; 'I' for Inactive)
REMARK    1  A    between atoms: C_2  and  O_3 
REMARK    2  A    between atoms: C_4  and  C_5 
REMARK    3  A    between atoms: C_5  and  O_6 
REMARK    4  A    between atoms: C_9  and  C_10 
REMARK    5  A    between atoms: C_22  and  O_23 
ROOT
HETATM    1  C   UNL     1       2.172  -0.033   1.722  1.00  0.00     0.047 C 
HETATM    2  C   UNL     1       2.412  -0.025   0.203  1.00  0.00     0.073 C 
HETATM    3  C   UNL     1       2.774   1.403  -0.327  1.00  0.00     0.133 C 
HETATM    4  C   UNL     1       3.279   1.503  -1.798  1.00  0.00     0.074 C 
HETATM    5  C   UNL     1       3.918   0.243  -2.263  1.00  0.00     0.030 A 
HETATM    6  C   UNL     1       3.970  -0.919  -1.525  1.00  0.00     0.042 A 
HETATM    7  N   UNL     1       4.673  -1.829  -2.265  1.00  0.00    -0.279 N 
HETATM    8  H   UNL     1       4.921  -2.785  -2.028  1.00  0.00     0.189 HD
HETATM    9  N   UNL     1       5.091  -1.329  -3.447  1.00  0.00    -0.149 NA
HETATM   10  C   UNL     1       4.650  -0.079  -3.408  1.00  0.00     0.190 A 
HETATM   11  C   UNL     1       3.444  -1.134  -0.155  1.00  0.00     0.097 C 
ENDROOT
BRANCH   4  12
HETATM   12  C   UNL     1       2.177   1.883  -2.786  1.00  0.00    -0.048 A 
HETATM   13  C   UNL     1       1.963   3.254  -3.033  1.00  0.00     0.009 A 
HETATM   14  C   UNL     1       0.969   3.686  -3.915  1.00  0.00     0.019 A 
HETATM   15  C   UNL     1       0.163   2.752  -4.557  1.00  0.00     0.011 A 
HETATM   16 BR   UNL     1      -1.180   3.331  -5.754  1.00  0.00    -0.051 Br
HETATM   17  C   UNL     1       0.347   1.392  -4.327  1.00  0.00     0.019 A 
HETATM   18  C   UNL     1       1.347   0.962  -3.450  1.00  0.00     0.009 A 
ENDBRANCH   4  12
BRANCH   3  19
HETATM   19  C   UNL     1       3.845   2.025   0.545  1.00  0.00     0.266 C 
HETATM   20  O   UNL     1       4.919   1.504   0.813  1.00  0.00    -0.265 OA
BRANCH  19  21
HETATM   21  O   UNL     1       3.439   3.246   0.991  1.00  0.00    -0.326 OA
HETATM   22  C   UNL     1       4.366   3.892   1.865  1.00  0.00     0.213 C 
ENDBRANCH  19  21
ENDBRANCH   3  19
BRANCH   2  23
HETATM   23  O   UNL     1       1.132  -0.397  -0.349  1.00  0.00    -0.389 OA
HETATM   24  H   UNL     1       1.265  -0.646  -1.278  1.00  0.00     0.210 HD
ENDBRANCH   2  23
BRANCH  10  25
HETATM   25  O   UNL     1       4.973   0.673  -4.454  1.00  0.00    -0.343 OA
HETATM   26  H   UNL     1       5.487   0.082  -5.030  1.00  0.00     0.219 HD
ENDBRANCH  10  25
TORSDOF 5
