REMARK  8 active torsions:
REMARK  status: ('A' for Active; 'I' for Inactive)
REMARK    1  A    between atoms: C_2  and  C_3 
REMARK    2  A    between atoms: C_3  and  O_4 
REMARK    3  A    between atoms: O_4  and  C_5 
REMARK    4  A    between atoms: C_6  and  O_7 
REMARK    5  A    between atoms: C_11  and  C_12 
REMARK    6  A    between atoms: C_12  and  N_13 
REMARK    7  A    between atoms: N_13  and  C_14 
REMARK    8  A    between atoms: C_21  and  C_22 
REMARK       I    between atoms: C_22  and  N_23 
ROOT
HETATM    1  N   UNL     1       3.004  -7.530   0.064  1.00  0.00    -0.289 NA
HETATM    2  H   UNL     1       3.934  -7.510  -0.344  1.00  0.00     0.128 HD
ENDROOT
BRANCH   1   3
HETATM    3  C   UNL     1       1.992  -7.017  -0.851  1.00  0.00     0.131 C 
BRANCH   3   4
HETATM    4  C   UNL     1       2.521  -5.771  -1.523  1.00  0.00    -0.042 A 
HETATM    5  C   UNL     1       3.295  -5.854  -2.686  1.00  0.00     0.011 A 
HETATM    6  C   UNL     1       3.779  -4.695  -3.303  1.00  0.00     0.040 A 
HETATM    7  C   UNL     1       3.504  -3.436  -2.760  1.00  0.00     0.101 A 
HETATM    8  C   UNL     1       2.763  -3.350  -1.569  1.00  0.00     0.102 A 
HETATM    9  C   UNL     1       2.265  -4.510  -0.967  1.00  0.00     0.048 A 
BRANCH   7  10
HETATM   10  O   UNL     1       3.936  -2.248  -3.292  1.00  0.00    -0.353 OA
HETATM   11  C   UNL     1       4.452  -2.279  -4.615  1.00  0.00     0.210 C 
ENDBRANCH   7  10
BRANCH   8  12
HETATM   12  O   UNL     1       2.482  -2.095  -1.090  1.00  0.00    -0.344 OA
BRANCH  12  13
HETATM   13  C   UNL     1       2.584  -1.928   0.326  1.00  0.00     0.209 C 
BRANCH  13  14
HETATM   14  C   UNL     1       1.211  -1.754   0.935  1.00  0.00    -0.069 C 
HETATM   15  C   UNL     1       0.342  -0.693   0.319  1.00  0.00     0.044 C 
HETATM   16  C   UNL     1       0.791  -2.488   1.980  1.00  0.00     0.016 C 
ENDBRANCH  13  14
ENDBRANCH  12  13
ENDBRANCH   8  12
ENDBRANCH   3   4
ENDBRANCH   1   3
BRANCH   1  17
HETATM   17  C   UNL     1       2.752  -8.723   0.754  1.00  0.00     0.009 A 
HETATM   18  C   UNL     1       1.460  -9.149   1.099  1.00  0.00     0.039 A 
HETATM   19  C   UNL     1       1.273 -10.316   1.872  1.00  0.00     0.030 A 
HETATM   20  C   UNL     1       2.389 -11.018   2.303  1.00  0.00     0.063 A 
HETATM   21  C   UNL     1       0.156 -11.030   2.398  1.00  0.00     0.156 A 
HETATM   22  N   UNL     1       1.897 -12.074   3.018  1.00  0.00    -0.277 N 
HETATM   23  C   UNL     1       3.693 -10.617   2.016  1.00  0.00     0.034 A 
HETATM   24  H   UNL     1       2.429 -12.800   3.485  1.00  0.00     0.189 HD
HETATM   25  N   UNL     1       0.555 -12.115   3.100  1.00  0.00    -0.168 NA
HETATM   26  C   UNL     1       3.845  -9.450   1.253  1.00  0.00     0.026 A 
BRANCH  21  27
HETATM   27  C   UNL     1      -1.266 -10.695   2.246  1.00  0.00     0.270 C 
HETATM   28  N   UNL     1      -2.115 -11.550   2.893  1.00  0.00    -0.365 N 
HETATM   29  H   UNL     1      -1.719 -12.321   3.419  1.00  0.00     0.159 HD
HETATM   30  H   UNL     1      -3.109 -11.391   2.860  1.00  0.00     0.159 HD
HETATM   31  O   UNL     1      -1.691  -9.738   1.606  1.00  0.00    -0.266 OA
ENDBRANCH  21  27
ENDBRANCH   1  17
TORSDOF 8
