REMARK  5 active torsions:
REMARK  status: ('A' for Active; 'I' for Inactive)
REMARK    1  A    between atoms: C_7  and  C_8 
REMARK    2  A    between atoms: C_16  and  C_17 
REMARK    3  A    between atoms: C_19  and  O_20 
REMARK    4  A    between atoms: C_24  and  C_25 
REMARK       I    between atoms: C_25  and  N_26 
REMARK    5  A    between atoms: N_26  and  C_27 
ROOT
HETATM    1  C   UNL     1       1.014   0.168   0.243  1.00  0.00     0.070 C 
HETATM    2  C   UNL     1       2.502   0.049   0.029  1.00  0.00     0.037 C 
HETATM    3  N   UNL     1       3.180   1.253  -0.173  1.00  0.00    -0.192 N 
HETATM    4  C   UNL     1       4.523   1.344  -0.076  1.00  0.00     0.726 A 
HETATM    5  N   UNL     1       5.265   0.202  -0.073  1.00  0.00    -0.083 N 
HETATM    6  N   UNL     1       6.569   0.449   0.150  1.00  0.00    -0.135 NA
HETATM    7  C   UNL     1       6.560   1.794   0.259  1.00  0.00     0.200 A 
HETATM    8  N   UNL     1       5.315   2.370   0.084  1.00  0.00    -0.041 NA
HETATM    9  C   UNL     1       4.695  -1.138  -0.216  1.00  0.00     0.202 C 
HETATM   10  C   UNL     1       3.190  -1.124   0.041  1.00  0.00     0.062 C 
HETATM   11  H   UNL     1       2.644   2.106  -0.022  1.00  0.00     0.184 HD
ENDROOT
BRANCH  10  12
HETATM   12  C   UNL     1       2.556  -2.386   0.538  1.00  0.00     0.256 C 
HETATM   13  N   UNL     1       2.986  -3.535  -0.089  1.00  0.00    -0.323 N 
HETATM   14  H   UNL     1       3.593  -3.451  -0.893  1.00  0.00     0.169 HD
HETATM   15  O   UNL     1       1.771  -2.327   1.478  1.00  0.00    -0.267 OA
BRANCH  13  16
HETATM   16  C   UNL     1       2.683  -4.868   0.271  1.00  0.00     0.035 A 
HETATM   17  C   UNL     1       1.782  -5.224   1.277  1.00  0.00     0.029 A 
HETATM   18  C   UNL     1       1.557  -6.570   1.584  1.00  0.00     0.002 A 
HETATM   19  C   UNL     1       2.237  -7.571   0.896  1.00  0.00     0.000 A 
HETATM   20  C   UNL     1       3.137  -7.228  -0.109  1.00  0.00     0.002 A 
HETATM   21  C   UNL     1       3.353  -5.883  -0.425  1.00  0.00     0.029 A 
ENDBRANCH  13  16
ENDBRANCH  10  12
BRANCH   9  22
HETATM   22  C   UNL     1       5.080  -1.690  -1.591  1.00  0.00    -0.025 A 
HETATM   23  C   UNL     1       6.219  -2.505  -1.718  1.00  0.00     0.046 A 
HETATM   24  C   UNL     1       6.574  -3.019  -2.962  1.00  0.00     0.066 A 
HETATM   25  C   UNL     1       5.816  -2.743  -4.093  1.00  0.00     0.036 A 
HETATM   26  C   UNL     1       4.699  -1.919  -3.988  1.00  0.00     0.003 A 
HETATM   27  C   UNL     1       4.337  -1.388  -2.749  1.00  0.00     0.010 A 
BRANCH  24  28
HETATM   28  O   UNL     1       7.676  -3.806  -3.117  1.00  0.00    -0.361 OA
HETATM   29  H   UNL     1       8.199  -3.779  -2.298  1.00  0.00     0.217 HD
ENDBRANCH  24  28
ENDBRANCH   9  22
BRANCH   7  30
HETATM   30  C   UNL     1       7.768   2.570   0.511  1.00  0.00     0.036 A 
HETATM   31  C   UNL     1       7.805   3.666   1.387  1.00  0.00     0.048 A 
HETATM   32 CL   UNL     1       6.438   4.193   2.309  1.00  0.00    -0.083 Cl
HETATM   33  C   UNL     1       9.004   4.364   1.591  1.00  0.00     0.025 A 
HETATM   34  C   UNL     1      10.171   3.978   0.932  1.00  0.00     0.002 A 
HETATM   35  C   UNL     1      10.149   2.888   0.068  1.00  0.00     0.001 A 
HETATM   36  C   UNL     1       8.957   2.189  -0.139  1.00  0.00     0.017 A 
ENDBRANCH   7  30
TORSDOF 5
