REMARK  8 active torsions:
REMARK  status: ('A' for Active; 'I' for Inactive)
REMARK    1  A    between atoms: C_1  and  C_15 
REMARK    2  A    between atoms: C_2  and  C_11 
REMARK    3  A    between atoms: C_2  and  N_12 
REMARK    4  A    between atoms: C_5  and  C_6 
REMARK    5  A    between atoms: C_6  and  O_7 
REMARK       I    between atoms: N_10  and  C_11 
REMARK    6  A    between atoms: C_16  and  O_17 
REMARK    7  A    between atoms: C_20  and  O_22 
REMARK    8  A    between atoms: C_25  and  O_26 
ROOT
HETATM    1  C           1       0.386  -2.250   0.477  0.00  0.00     0.231 C 
HETATM    2  N           1       0.063  -1.371  -0.719  0.00  0.00    -0.054 N 
HETATM    3  C           1      -0.300  -3.632   0.340  0.00  0.00     0.055 C 
HETATM    4  C           1      -1.745  -3.670  -0.178  0.00  0.00     0.065 C 
HETATM    5  C           1      -1.920  -2.684  -1.340  0.00  0.00     0.066 C 
HETATM    6  C           1      -1.404  -1.268  -1.079  0.00  0.00     0.239 C 
HETATM    7  C           1      -0.059  -4.552   1.560  0.00  0.00     0.010 C 
HETATM    8  C           1      -1.335  -5.094   2.223  0.00  0.00     0.001 C 
HETATM    9  C           1      -2.402  -4.000   2.297  0.00  0.00     0.003 C 
HETATM   10  C           1      -2.821  -3.510   0.902  0.00  0.00     0.038 C 
HETATM   11  H           1       0.514  -1.849  -1.535  0.00  0.00     0.281 HD
ENDROOT
BRANCH   2  12
HETATM   12  C           1       0.719  -0.008  -0.622  0.00  0.00     0.338 C 
BRANCH  12  13
HETATM   13  C           1       0.804   0.655  -1.988  0.00  0.00     0.248 C 
HETATM   14  N           1       0.769   2.017  -1.935  0.00  0.00    -0.319 N 
HETATM   15  C           1       0.793   2.977  -2.880  0.00  0.00     0.094 A 
HETATM   16  H           1       0.771   2.422  -1.014  0.00  0.00     0.169 HD
HETATM   17  C           1       1.090   4.277  -2.670  0.00  0.00     0.080 A 
HETATM   18  S           1       0.258   2.758  -4.222  0.00  0.00    -0.076 SA
HETATM   19  C           1       0.882   4.961  -3.810  0.00  0.00    -0.030 A 
HETATM   20  C           1       1.111   6.431  -4.051  0.00  0.00     0.050 C 
HETATM   21  C           1       0.415   4.118  -4.746  0.00  0.00    -0.012 A 
HETATM   22  C           1       0.054   4.490  -6.162  0.00  0.00     0.057 C 
HETATM   23  O           1       0.915   0.003  -2.995  0.00  0.00    -0.271 OA
BRANCH  17  24
HETATM   24  C           1       1.546   4.825  -1.500  0.00  0.00     0.296 C 
HETATM   25  O           1       1.716   4.094  -0.544  0.00  0.00    -0.259 OA
BRANCH  24  26
HETATM   26  O           1       1.818   6.161  -1.381  0.00  0.00    -0.322 OA
HETATM   27  C           1       2.296   6.651  -0.151  0.00  0.00     0.213 C 
ENDBRANCH  24  26
ENDBRANCH  17  24
ENDBRANCH  12  13
ENDBRANCH   2  12
BRANCH   1  28
HETATM   28  C           1       0.344  -1.513   1.824  0.00  0.00     0.009 A 
HETATM   29  C           1       1.462  -1.408   2.585  0.00  0.00     0.076 A 
HETATM   30  C           1       1.338  -0.791   3.776  0.00  0.00     0.040 A 
HETATM   31  C           1       0.186  -0.247   4.187  0.00  0.00     0.039 A 
HETATM   32  C           1      -0.926  -0.294   3.435  0.00  0.00     0.069 A 
HETATM   33  C           1      -0.797  -0.958   2.271  0.00  0.00     0.048 A 
BRANCH  29  34
HETATM   34  O           1       2.635  -1.987   2.163  0.00  0.00    -0.355 OA
HETATM   35  C           1       3.612  -2.344   3.112  0.00  0.00     0.210 C 
ENDBRANCH  29  34
BRANCH  32  36
HETATM   36  O           1      -2.083   0.267   3.920  0.00  0.00    -0.356 OA
HETATM   37  C           1      -3.303  -0.030   3.281  0.00  0.00     0.210 C 
ENDBRANCH  32  36
ENDBRANCH   1  28
BRANCH   4  38
HETATM   38  O           1      -1.940  -4.940  -0.769  0.00  0.00    -0.389 OA
HETATM   39  H           1      -1.801  -5.652  -0.146  0.00  0.00     0.210 HD
ENDBRANCH   4  38
TORSDOF 8
