REMARK  5 active torsions:
REMARK  status: ('A' for Active; 'I' for Inactive)
REMARK    1  A    between atoms: C_2  and  O_3 
REMARK    2  A    between atoms: C_4  and  C_5 
REMARK    3  A    between atoms: C_5  and  O_6 
REMARK    4  A    between atoms: C_9  and  C_10 
REMARK    5  A    between atoms: C_22  and  O_23 
ROOT
HETATM    1  C   UNL     1       0.944  -0.240  -0.202  1.00  0.00     0.047 C 
HETATM    2  C   UNL     1       2.341   0.175   0.289  1.00  0.00     0.073 C 
HETATM    3  C   UNL     1       2.766   1.558  -0.307  1.00  0.00     0.133 C 
HETATM    4  C   UNL     1       3.270   1.574  -1.782  1.00  0.00     0.074 C 
HETATM    5  C   UNL     1       3.882   0.274  -2.175  1.00  0.00     0.030 A 
HETATM    6  C   UNL     1       3.902  -0.845  -1.369  1.00  0.00     0.042 A 
HETATM    7  N   UNL     1       4.589  -1.811  -2.048  1.00  0.00    -0.279 N 
HETATM    8  H   UNL     1       4.808  -2.759  -1.755  1.00  0.00     0.189 HD
HETATM    9  N   UNL     1       5.037  -1.388  -3.249  1.00  0.00    -0.149 NA
HETATM   10  C   UNL     1       4.621  -0.128  -3.288  1.00  0.00     0.190 A 
HETATM   11  C   UNL     1       3.358  -0.965   0.003  1.00  0.00     0.097 C 
ENDROOT
BRANCH   4  12
HETATM   12  C   UNL     1       2.174   1.940  -2.782  1.00  0.00    -0.048 A 
HETATM   13  C   UNL     1       1.917   3.311  -2.992  1.00  0.00     0.009 A 
HETATM   14  C   UNL     1       0.927   3.735  -3.882  1.00  0.00     0.024 A 
HETATM   15  C   UNL     1       0.171   2.795  -4.573  1.00  0.00     0.034 A 
HETATM   16 CL   UNL     1      -1.049   3.313  -5.670  1.00  0.00    -0.084 Cl
HETATM   17  C   UNL     1       0.399   1.437  -4.381  1.00  0.00     0.024 A 
HETATM   18  C   UNL     1       1.394   1.013  -3.493  1.00  0.00     0.009 A 
ENDBRANCH   4  12
BRANCH   3  19
HETATM   19  C   UNL     1       3.806   2.215   0.583  1.00  0.00     0.266 C 
HETATM   20  O   UNL     1       3.525   3.101   1.383  1.00  0.00    -0.265 OA
BRANCH  19  21
HETATM   21  O   UNL     1       5.052   1.708   0.398  1.00  0.00    -0.326 OA
HETATM   22  C   UNL     1       6.062   2.308   1.210  1.00  0.00     0.213 C 
ENDBRANCH  19  21
ENDBRANCH   3  19
BRANCH   2  23
HETATM   23  O   UNL     1       2.212   0.274   1.721  1.00  0.00    -0.389 OA
HETATM   24  H   UNL     1       1.620   1.019   1.933  1.00  0.00     0.210 HD
ENDBRANCH   2  23
BRANCH  10  25
HETATM   25  O   UNL     1       4.975   0.556  -4.370  1.00  0.00    -0.343 OA
HETATM   26  H   UNL     1       5.481  -0.079  -4.905  1.00  0.00     0.219 HD
ENDBRANCH  10  25
TORSDOF 5
