REMARK  4 active torsions:
REMARK  status: ('A' for Active; 'I' for Inactive)
REMARK       I    between atoms: C_2  and  N_3 
REMARK    1  A    between atoms: N_3  and  C_4 
REMARK    2  A    between atoms: C_4  and  C_5 
REMARK       I    between atoms: C_5  and  N_6 
REMARK    3  A    between atoms: N_6  and  C_7 
REMARK    4  A    between atoms: C_20  and  C_21 
ROOT
HETATM    1  C   UNL     1       0.746  -2.219  -1.767  1.00  0.00     0.272 C 
HETATM    2  N   UNL     1      -0.068  -1.112  -1.752  1.00  0.00    -0.322 N 
HETATM    3  O   UNL     1       0.346  -3.382  -1.780  1.00  0.00    -0.266 OA
HETATM    4  H   UNL     1       0.300  -0.309  -1.246  1.00  0.00     0.169 HD
ENDROOT
BRANCH   1   5
HETATM    5  C   UNL     1       2.233  -1.924  -1.783  1.00  0.00     0.104 C 
HETATM    6  C   UNL     1       2.982  -2.546  -2.720  1.00  0.00     0.046 C 
BRANCH   5   7
HETATM    7  N   UNL     1       2.881  -1.078  -0.894  1.00  0.00    -0.323 N 
HETATM    8  C   UNL     1       2.348  -0.253   0.071  1.00  0.00     0.218 C 
HETATM    9  C   UNL     1       3.388   0.418   0.934  1.00  0.00     0.117 C 
HETATM   10  O   UNL     1       1.157  -0.002   0.216  1.00  0.00    -0.274 OA
HETATM   11  H   UNL     1       3.890  -1.065  -0.976  1.00  0.00     0.169 HD
ENDBRANCH   5   7
BRANCH   6  12
HETATM   12  C   UNL     1       2.490  -3.431  -3.784  1.00  0.00    -0.034 A 
HETATM   13  C   UNL     1       2.061  -2.894  -5.003  1.00  0.00     0.011 A 
HETATM   14  C   UNL     1       1.573  -3.733  -6.007  1.00  0.00     0.001 A 
HETATM   15  C   UNL     1       1.508  -5.110  -5.796  1.00  0.00     0.000 A 
HETATM   16  C   UNL     1       1.934  -5.650  -4.584  1.00  0.00     0.001 A 
HETATM   17  C   UNL     1       2.429  -4.814  -3.581  1.00  0.00     0.011 A 
ENDBRANCH   6  12
ENDBRANCH   1   5
BRANCH   2  18
HETATM   18  C   UNL     1      -1.439  -1.105  -2.066  1.00  0.00     0.035 A 
HETATM   19  C   UNL     1      -2.010  -2.048  -2.926  1.00  0.00     0.042 A 
HETATM   20  C   UNL     1      -3.367  -1.972  -3.261  1.00  0.00    -0.021 A 
HETATM   21  C   UNL     1      -3.923  -2.907  -4.212  1.00  0.00     0.010 A 
HETATM   22  C   UNL     1      -4.160  -0.960  -2.709  1.00  0.00     0.012 A 
HETATM   23  C   UNL     1      -3.558  -3.178  -5.548  1.00  0.00     0.152 A 
HETATM   24  C   UNL     1      -4.958  -3.777  -3.956  1.00  0.00     0.123 A 
HETATM   25  N   UNL     1      -4.314  -4.132  -6.101  1.00  0.00    -0.187 NA
HETATM   26  N   UNL     1      -5.142  -4.490  -5.104  1.00  0.00    -0.289 N 
HETATM   27  H   UNL     1      -5.808  -5.235  -5.280  1.00  0.00     0.188 HD
HETATM   28  C   UNL     1      -3.592  -0.014  -1.856  1.00  0.00     0.003 A 
HETATM   29  C   UNL     1      -2.230  -0.076  -1.549  1.00  0.00     0.029 A 
ENDBRANCH   2  18
TORSDOF 4
