REMARK  2 active torsions:
REMARK  status: ('A' for Active; 'I' for Inactive)
REMARK    1  A    between atoms: C_3  and  C_4 
REMARK    2  A    between atoms: C_19  and  O_20 
ROOT
HETATM    1  C   UNL     1       1.295   2.686   0.164  1.00  0.00     0.137 C 
HETATM    2  N   UNL     1       1.731   3.024  -1.214  1.00  0.00    -0.278 NA
HETATM    3  C   UNL     1       0.965   3.959  -1.938  1.00  0.00     0.036 A 
HETATM    4  C   UNL     1       0.864   5.317  -1.559  1.00  0.00     0.053 A 
HETATM    5  N   UNL     1       1.442   5.836  -0.373  1.00  0.00    -0.356 N 
HETATM    6  C   UNL     1       1.374   5.180   0.837  1.00  0.00     0.041 A 
HETATM    7  C   UNL     1       1.259   3.863   1.071  1.00  0.00     0.056 A 
HETATM    8  C   UNL     1       0.992   3.721   2.513  1.00  0.00     0.251 A 
HETATM    9  O   UNL     1       0.661   2.706   3.095  1.00  0.00    -0.268 OA
HETATM   10  N   UNL     1       1.111   4.961   3.083  1.00  0.00    -0.351 N 
HETATM   11  C   UNL     1       1.349   5.976   2.114  1.00  0.00     0.180 A 
HETATM   12  C   UNL     1       0.348   3.538  -3.130  1.00  0.00     0.026 A 
HETATM   13  C   UNL     1      -0.371   4.429  -3.928  1.00  0.00     0.002 A 
HETATM   14  C   UNL     1      -0.467   5.764  -3.558  1.00  0.00     0.002 A 
HETATM   15  C   UNL     1       0.151   6.205  -2.387  1.00  0.00     0.031 A 
HETATM   16  H   UNL     1       1.797   2.153  -1.741  1.00  0.00     0.128 HD
HETATM   17  H   UNL     1       1.367   6.846  -0.304  1.00  0.00     0.166 HD
HETATM   18  H   UNL     1       0.928   5.105   4.066  1.00  0.00     0.163 HD
ENDROOT
BRANCH   1  19
HETATM   19  C   UNL     1       2.291   1.629   0.642  1.00  0.00    -0.002 A 
HETATM   20  C   UNL     1       1.822   0.437   1.223  1.00  0.00     0.012 A 
HETATM   21  C   UNL     1       2.716  -0.522   1.707  1.00  0.00     0.001 A 
HETATM   22  C   UNL     1       4.090  -0.304   1.624  1.00  0.00     0.003 A 
HETATM   23  C   UNL     1       4.574   0.868   1.048  1.00  0.00     0.037 A 
HETATM   24  C   UNL     1       3.682   1.816   0.555  1.00  0.00     0.073 A 
BRANCH  24  25
HETATM   25  O   UNL     1       4.226   2.925  -0.038  1.00  0.00    -0.360 OA
HETATM   26  H   UNL     1       3.513   3.358  -0.559  1.00  0.00     0.217 HD
ENDBRANCH  24  25
ENDBRANCH   1  19
TORSDOF 2
