MODEL 1
REMARK VINA RESULT:      -8.9      0.000      0.000
REMARK  4 active torsions:
REMARK  status: ('A' for Active; 'I' for Inactive)
REMARK    1  A    between atoms: C_3  and  C_4 
REMARK       I    between atoms: C_4  and  N_5 
REMARK    2  A    between atoms: N_5  and  N_6 
REMARK    3  A    between atoms: C_21  and  C_22 
REMARK    4  A    between atoms: C_25  and  O_26 
ROOT
HETATM    1  C   UNL     1     -43.106  57.653 -55.896  1.00  0.00     0.290 C 
HETATM    2  N   UNL     1     -42.531  58.040 -57.097  1.00  0.00    -0.241 N 
HETATM    3  O   UNL     1     -44.167  58.099 -55.468  1.00  0.00    -0.264 OA
HETATM    4  H   UNL     1     -41.658  57.636 -57.388  1.00  0.00     0.192 HD
ENDROOT
BRANCH   1   5
HETATM    5  C   UNL     1     -42.325  56.725 -55.110  1.00  0.00     0.127 A 
HETATM    6  C   UNL     1     -42.278  55.343 -54.955  1.00  0.00     0.003 A 
HETATM    7  C   UNL     1     -43.166  54.312 -55.554  1.00  0.00     0.053 C 
HETATM    8  C   UNL     1     -41.205  55.114 -54.026  1.00  0.00     0.095 A 
HETATM    9  N   UNL     1     -40.688  56.274 -53.598  1.00  0.00    -0.173 NA
HETATM   10  N   UNL     1     -41.399  57.212 -54.228  1.00  0.00    -0.272 N 
HETATM   11  H   UNL     1     -41.203  58.191 -54.039  1.00  0.00     0.189 HD
BRANCH   8  12
HETATM   12  C   UNL     1     -40.681  53.844 -53.519  1.00  0.00    -0.005 A 
HETATM   13  C   UNL     1     -40.587  53.626 -52.139  1.00  0.00     0.016 A 
HETATM   14  C   UNL     1     -40.101  52.412 -51.644  1.00  0.00     0.037 A 
HETATM   15  C   UNL     1     -39.700  51.399 -52.516  1.00  0.00     0.068 A 
HETATM   16  C   UNL     1     -39.765  51.618 -53.892  1.00  0.00     0.037 A 
HETATM   17  C   UNL     1     -40.250  52.836 -54.389  1.00  0.00     0.016 A 
BRANCH  15  18
HETATM   18  O   UNL     1     -39.257  50.259 -51.905  1.00  0.00    -0.356 OA
HETATM   19  C   UNL     1     -39.798  49.967 -50.622  1.00  0.00     0.210 C 
ENDBRANCH  15  18
ENDBRANCH   8  12
ENDBRANCH   1   5
BRANCH   2  20
HETATM   20  N   UNL     1     -43.233  58.802 -57.979  1.00  0.00    -0.165 NA
HETATM   21  C   UNL     1     -44.003  58.237 -58.854  1.00  0.00     0.157 A 
HETATM   22  C   UNL     1     -44.946  59.084 -59.737  1.00  0.00     0.277 A 
HETATM   23  C   UNL     1     -44.236  56.840 -59.251  1.00  0.00     0.027 A 
HETATM   24  O   UNL     1     -45.038  60.291 -59.753  1.00  0.00    -0.266 OA
HETATM   25  N   UNL     1     -45.665  58.175 -60.477  1.00  0.00    -0.321 N 
HETATM   26  C   UNL     1     -45.255  56.875 -60.208  1.00  0.00     0.048 A 
HETATM   27  H   UNL     1     -46.361  58.455 -61.152  1.00  0.00     0.169 HD
HETATM   28  C   UNL     1     -45.738  55.732 -60.812  1.00  0.00     0.030 A 
HETATM   29  C   UNL     1     -45.157  54.516 -60.447  1.00  0.00     0.002 A 
HETATM   30  C   UNL     1     -44.106  54.474 -59.511  1.00  0.00     0.001 A 
HETATM   31  C   UNL     1     -43.628  55.645 -58.911  1.00  0.00     0.016 A 
ENDBRANCH   2  20
TORSDOF 4
ENDMDL
MODEL 2
REMARK VINA RESULT:      -8.5      2.336      9.032
REMARK  4 active torsions:
REMARK  status: ('A' for Active; 'I' for Inactive)
REMARK    1  A    between atoms: C_3  and  C_4 
REMARK       I    between atoms: C_4  and  N_5 
REMARK    2  A    between atoms: N_5  and  N_6 
REMARK    3  A    between atoms: C_21  and  C_22 
REMARK    4  A    between atoms: C_25  and  O_26 
ROOT
HETATM    1  C   UNL     1     -42.878  55.570 -54.364  1.00  0.00     0.290 C 
HETATM    2  N   UNL     1     -41.639  55.783 -53.778  1.00  0.00    -0.241 N 
HETATM    3  O   UNL     1     -43.804  54.979 -53.817  1.00  0.00    -0.264 OA
HETATM    4  H   UNL     1     -40.923  56.274 -54.284  1.00  0.00     0.192 HD
ENDROOT
BRANCH   1   5
HETATM    5  C   UNL     1     -42.999  56.026 -55.731  1.00  0.00     0.127 A 
HETATM    6  C   UNL     1     -43.020  57.262 -56.371  1.00  0.00     0.003 A 
HETATM    7  C   UNL     1     -43.005  58.620 -55.766  1.00  0.00     0.053 C 
HETATM    8  C   UNL     1     -43.123  56.948 -57.770  1.00  0.00     0.095 A 
HETATM    9  N   UNL     1     -43.226  55.625 -57.957  1.00  0.00    -0.173 NA
HETATM   10  N   UNL     1     -43.190  55.108 -56.727  1.00  0.00    -0.272 N 
HETATM   11  H   UNL     1     -43.280  54.102 -56.610  1.00  0.00     0.189 HD
BRANCH   8  12
HETATM   12  C   UNL     1     -43.152  57.857 -58.918  1.00  0.00    -0.005 A 
HETATM   13  C   UNL     1     -44.370  58.385 -59.363  1.00  0.00     0.016 A 
HETATM   14  C   UNL     1     -44.407  59.263 -60.449  1.00  0.00     0.037 A 
HETATM   15  C   UNL     1     -43.233  59.629 -61.109  1.00  0.00     0.068 A 
HETATM   16  C   UNL     1     -42.018  59.087 -60.689  1.00  0.00     0.037 A 
HETATM   17  C   UNL     1     -41.980  58.203 -59.601  1.00  0.00     0.016 A 
BRANCH  15  18
HETATM   18  O   UNL     1     -43.406  60.504 -62.146  1.00  0.00    -0.356 OA
HETATM   19  C   UNL     1     -42.290  61.313 -62.495  1.00  0.00     0.210 C 
ENDBRANCH  15  18
ENDBRANCH   8  12
ENDBRANCH   1   5
BRANCH   2  20
HETATM   20  N   UNL     1     -41.452  55.518 -52.457  1.00  0.00    -0.165 NA
HETATM   21  C   UNL     1     -40.925  54.393 -52.091  1.00  0.00     0.157 A 
HETATM   22  C   UNL     1     -40.535  54.149 -50.616  1.00  0.00     0.277 A 
HETATM   23  C   UNL     1     -40.555  53.163 -52.807  1.00  0.00     0.027 A 
HETATM   24  O   UNL     1     -40.707  54.902 -49.684  1.00  0.00    -0.266 OA
HETATM   25  N   UNL     1     -39.937  52.910 -50.598  1.00  0.00    -0.321 N 
HETATM   26  C   UNL     1     -39.952  52.330 -51.860  1.00  0.00     0.048 A 
HETATM   27  H   UNL     1     -39.585  52.491 -49.751  1.00  0.00     0.169 HD
HETATM   28  C   UNL     1     -39.476  51.074 -52.179  1.00  0.00     0.030 A 
HETATM   29  C   UNL     1     -39.633  50.643 -53.498  1.00  0.00     0.002 A 
HETATM   30  C   UNL     1     -40.271  51.459 -54.450  1.00  0.00     0.001 A 
HETATM   31  C   UNL     1     -40.750  52.729 -54.106  1.00  0.00     0.016 A 
ENDBRANCH   2  20
TORSDOF 4
ENDMDL
MODEL 3
REMARK VINA RESULT:      -8.4      2.148      8.571
REMARK  4 active torsions:
REMARK  status: ('A' for Active; 'I' for Inactive)
REMARK    1  A    between atoms: C_3  and  C_4 
REMARK       I    between atoms: C_4  and  N_5 
REMARK    2  A    between atoms: N_5  and  N_6 
REMARK    3  A    between atoms: C_21  and  C_22 
REMARK    4  A    between atoms: C_25  and  O_26 
ROOT
HETATM    1  C   UNL     1     -41.671  56.881 -53.790  1.00  0.00     0.290 C 
HETATM    2  N   UNL     1     -42.328  56.030 -52.914  1.00  0.00    -0.241 N 
HETATM    3  O   UNL     1     -40.650  57.502 -53.507  1.00  0.00    -0.264 OA
HETATM    4  H   UNL     1     -43.162  55.553 -53.209  1.00  0.00     0.192 HD
ENDROOT
BRANCH   1   5
HETATM    5  C   UNL     1     -42.318  57.068 -55.069  1.00  0.00     0.127 A 
HETATM    6  C   UNL     1     -43.082  56.279 -55.924  1.00  0.00     0.003 A 
HETATM    7  C   UNL     1     -43.424  54.838 -55.799  1.00  0.00     0.053 C 
HETATM    8  C   UNL     1     -43.432  57.151 -57.013  1.00  0.00     0.095 A 
HETATM    9  N   UNL     1     -42.864  58.355 -56.862  1.00  0.00    -0.173 NA
HETATM   10  N   UNL     1     -42.178  58.263 -55.720  1.00  0.00    -0.272 N 
HETATM   11  H   UNL     1     -41.633  59.061 -55.405  1.00  0.00     0.189 HD
BRANCH   8  12
HETATM   12  C   UNL     1     -44.256  56.869 -58.190  1.00  0.00    -0.005 A 
HETATM   13  C   UNL     1     -43.886  55.853 -59.078  1.00  0.00     0.016 A 
HETATM   14  C   UNL     1     -44.673  55.567 -60.197  1.00  0.00     0.037 A 
HETATM   15  C   UNL     1     -45.840  56.289 -60.449  1.00  0.00     0.068 A 
HETATM   16  C   UNL     1     -46.202  57.321 -59.583  1.00  0.00     0.037 A 
HETATM   17  C   UNL     1     -45.412  57.611 -58.462  1.00  0.00     0.016 A 
BRANCH  15  18
HETATM   18  O   UNL     1     -46.524  55.902 -61.568  1.00  0.00    -0.356 OA
HETATM   19  C   UNL     1     -47.803  56.489 -61.772  1.00  0.00     0.210 C 
ENDBRANCH  15  18
ENDBRANCH   8  12
ENDBRANCH   1   5
BRANCH   2  20
HETATM   20  N   UNL     1     -41.745  55.675 -51.737  1.00  0.00    -0.165 NA
HETATM   21  C   UNL     1     -41.049  54.586 -51.662  1.00  0.00     0.157 A 
HETATM   22  C   UNL     1     -40.230  54.261 -50.393  1.00  0.00     0.277 A 
HETATM   23  C   UNL     1     -40.809  53.467 -52.585  1.00  0.00     0.027 A 
HETATM   24  O   UNL     1     -40.182  54.910 -49.372  1.00  0.00    -0.266 OA
HETATM   25  N   UNL     1     -39.559  53.096 -50.682  1.00  0.00    -0.321 N 
HETATM   26  C   UNL     1     -39.895  52.626 -51.945  1.00  0.00     0.048 A 
HETATM   27  H   UNL     1     -38.945  52.646 -50.019  1.00  0.00     0.169 HD
HETATM   28  C   UNL     1     -39.436  51.459 -52.522  1.00  0.00     0.030 A 
HETATM   29  C   UNL     1     -39.935  51.126 -53.783  1.00  0.00     0.002 A 
HETATM   30  C   UNL     1     -40.883  51.947 -54.421  1.00  0.00     0.001 A 
HETATM   31  C   UNL     1     -41.338  53.126 -53.817  1.00  0.00     0.016 A 
ENDBRANCH   2  20
TORSDOF 4
ENDMDL
MODEL 4
REMARK VINA RESULT:      -8.2      3.005      8.864
REMARK  4 active torsions:
REMARK  status: ('A' for Active; 'I' for Inactive)
REMARK    1  A    between atoms: C_3  and  C_4 
REMARK       I    between atoms: C_4  and  N_5 
REMARK    2  A    between atoms: N_5  and  N_6 
REMARK    3  A    between atoms: C_21  and  C_22 
REMARK    4  A    between atoms: C_25  and  O_26 
ROOT
HETATM    1  C   UNL     1     -41.497  57.494 -52.326  1.00  0.00     0.290 C 
HETATM    2  N   UNL     1     -42.299  56.406 -52.016  1.00  0.00    -0.241 N 
HETATM    3  O   UNL     1     -40.685  57.991 -51.552  1.00  0.00    -0.264 OA
HETATM    4  H   UNL     1     -42.946  56.049 -52.697  1.00  0.00     0.192 HD
ENDROOT
BRANCH   1   5
HETATM    5  C   UNL     1     -41.734  58.082 -53.625  1.00  0.00     0.127 A 
HETATM    6  C   UNL     1     -42.316  57.663 -54.818  1.00  0.00     0.003 A 
HETATM    7  C   UNL     1     -42.848  56.320 -55.169  1.00  0.00     0.053 C 
HETATM    8  C   UNL     1     -42.243  58.808 -55.684  1.00  0.00     0.095 A 
HETATM    9  N   UNL     1     -41.601  59.820 -55.084  1.00  0.00    -0.173 NA
HETATM   10  N   UNL     1     -41.277  59.347 -53.879  1.00  0.00    -0.272 N 
HETATM   11  H   UNL     1     -40.751  59.937 -53.241  1.00  0.00     0.189 HD
BRANCH   8  12
HETATM   12  C   UNL     1     -42.733  58.959 -57.056  1.00  0.00    -0.005 A 
HETATM   13  C   UNL     1     -41.837  58.897 -58.130  1.00  0.00     0.016 A 
HETATM   14  C   UNL     1     -42.296  59.026 -59.444  1.00  0.00     0.037 A 
HETATM   15  C   UNL     1     -43.653  59.219 -59.708  1.00  0.00     0.068 A 
HETATM   16  C   UNL     1     -44.548  59.308 -58.641  1.00  0.00     0.037 A 
HETATM   17  C   UNL     1     -44.088  59.182 -57.323  1.00  0.00     0.016 A 
BRANCH  15  18
HETATM   18  O   UNL     1     -43.971  59.317 -61.034  1.00  0.00    -0.356 OA
HETATM   19  C   UNL     1     -44.705  60.467 -61.433  1.00  0.00     0.210 C 
ENDBRANCH  15  18
ENDBRANCH   8  12
ENDBRANCH   1   5
BRANCH   2  20
HETATM   20  N   UNL     1     -42.074  55.691 -50.880  1.00  0.00    -0.165 NA
HETATM   21  C   UNL     1     -41.420  54.575 -50.936  1.00  0.00     0.157 A 
HETATM   22  C   UNL     1     -40.995  53.845 -49.643  1.00  0.00     0.277 A 
HETATM   23  C   UNL     1     -40.918  53.745 -52.042  1.00  0.00     0.027 A 
HETATM   24  O   UNL     1     -41.244  54.176 -48.506  1.00  0.00    -0.266 OA
HETATM   25  N   UNL     1     -40.260  52.760 -50.062  1.00  0.00    -0.321 N 
HETATM   26  C   UNL     1     -40.217  52.691 -51.448  1.00  0.00     0.048 A 
HETATM   27  H   UNL     1     -39.857  52.097 -49.417  1.00  0.00     0.169 HD
HETATM   28  C   UNL     1     -39.604  51.702 -52.191  1.00  0.00     0.030 A 
HETATM   29  C   UNL     1     -39.720  51.776 -53.581  1.00  0.00     0.002 A 
HETATM   30  C   UNL     1     -40.453  52.814 -54.187  1.00  0.00     0.001 A 
HETATM   31  C   UNL     1     -41.070  53.806 -53.416  1.00  0.00     0.016 A 
ENDBRANCH   2  20
TORSDOF 4
ENDMDL
MODEL 5
REMARK VINA RESULT:      -7.9      2.753      8.984
REMARK  4 active torsions:
REMARK  status: ('A' for Active; 'I' for Inactive)
REMARK    1  A    between atoms: C_3  and  C_4 
REMARK       I    between atoms: C_4  and  N_5 
REMARK    2  A    between atoms: N_5  and  N_6 
REMARK    3  A    between atoms: C_21  and  C_22 
REMARK    4  A    between atoms: C_25  and  O_26 
ROOT
HETATM    1  C   UNL     1     -43.439  56.788 -53.446  1.00  0.00     0.290 C 
HETATM    2  N   UNL     1     -42.568  55.751 -53.147  1.00  0.00    -0.241 N 
HETATM    3  O   UNL     1     -44.236  57.269 -52.645  1.00  0.00    -0.264 OA
HETATM    4  H   UNL     1     -41.943  55.402 -53.851  1.00  0.00     0.192 HD
ENDROOT
BRANCH   1   5
HETATM    5  C   UNL     1     -43.416  57.233 -54.822  1.00  0.00     0.127 A 
HETATM    6  C   UNL     1     -42.772  58.242 -55.532  1.00  0.00     0.003 A 
HETATM    7  C   UNL     1     -41.889  59.321 -55.015  1.00  0.00     0.053 C 
HETATM    8  C   UNL     1     -43.192  58.058 -56.894  1.00  0.00     0.095 A 
HETATM    9  N   UNL     1     -44.078  57.058 -56.989  1.00  0.00    -0.173 NA
HETATM   10  N   UNL     1     -44.221  56.614 -55.738  1.00  0.00    -0.272 N 
HETATM   11  H   UNL     1     -44.875  55.859 -55.553  1.00  0.00     0.189 HD
BRANCH   8  12
HETATM   12  C   UNL     1     -42.803  58.811 -58.088  1.00  0.00    -0.005 A 
HETATM   13  C   UNL     1     -43.011  60.195 -58.142  1.00  0.00     0.016 A 
HETATM   14  C   UNL     1     -42.631  60.926 -59.271  1.00  0.00     0.037 A 
HETATM   15  C   UNL     1     -42.040  60.290 -60.363  1.00  0.00     0.068 A 
HETATM   16  C   UNL     1     -41.854  58.908 -60.329  1.00  0.00     0.037 A 
HETATM   17  C   UNL     1     -42.237  58.173 -59.197  1.00  0.00     0.016 A 
BRANCH  15  18
HETATM   18  O   UNL     1     -41.705  61.120 -61.397  1.00  0.00    -0.356 OA
HETATM   19  C   UNL     1     -40.919  62.260 -61.075  1.00  0.00     0.210 C 
ENDBRANCH  15  18
ENDBRANCH   8  12
ENDBRANCH   1   5
BRANCH   2  20
HETATM   20  N   UNL     1     -42.408  55.342 -51.859  1.00  0.00    -0.165 NA
HETATM   21  C   UNL     1     -41.650  54.326 -51.592  1.00  0.00     0.157 A 
HETATM   22  C   UNL     1     -41.308  53.962 -50.130  1.00  0.00     0.277 A 
HETATM   23  C   UNL     1     -40.950  53.335 -52.421  1.00  0.00     0.027 A 
HETATM   24  O   UNL     1     -41.716  54.508 -49.130  1.00  0.00    -0.266 OA
HETATM   25  N   UNL     1     -40.432  52.905 -50.214  1.00  0.00    -0.321 N 
HETATM   26  C   UNL     1     -40.226  52.531 -51.536  1.00  0.00     0.048 A 
HETATM   27  H   UNL     1     -40.044  52.456 -49.398  1.00  0.00     0.169 HD
HETATM   28  C   UNL     1     -39.441  51.480 -51.967  1.00  0.00     0.030 A 
HETATM   29  C   UNL     1     -39.405  51.225 -53.339  1.00  0.00     0.002 A 
HETATM   30  C   UNL     1     -40.158  52.005 -54.236  1.00  0.00     0.001 A 
HETATM   31  C   UNL     1     -40.950  53.066 -53.779  1.00  0.00     0.016 A 
ENDBRANCH   2  20
TORSDOF 4
ENDMDL
MODEL 6
REMARK VINA RESULT:      -7.7      1.878      2.290
REMARK  4 active torsions:
REMARK  status: ('A' for Active; 'I' for Inactive)
REMARK    1  A    between atoms: C_3  and  C_4 
REMARK       I    between atoms: C_4  and  N_5 
REMARK    2  A    between atoms: N_5  and  N_6 
REMARK    3  A    between atoms: C_21  and  C_22 
REMARK    4  A    between atoms: C_25  and  O_26 
ROOT
HETATM    1  C   UNL     1     -43.504  57.622 -55.810  1.00  0.00     0.290 C 
HETATM    2  N   UNL     1     -42.605  57.719 -56.861  1.00  0.00    -0.241 N 
HETATM    3  O   UNL     1     -44.479  58.354 -55.671  1.00  0.00    -0.264 OA
HETATM    4  H   UNL     1     -41.824  57.088 -56.913  1.00  0.00     0.192 HD
ENDROOT
BRANCH   1   5
HETATM    5  C   UNL     1     -43.176  56.631 -54.808  1.00  0.00     0.127 A 
HETATM    6  C   UNL     1     -42.246  56.525 -53.779  1.00  0.00     0.003 A 
HETATM    7  C   UNL     1     -41.147  57.460 -53.422  1.00  0.00     0.053 C 
HETATM    8  C   UNL     1     -42.534  55.263 -53.153  1.00  0.00     0.095 A 
HETATM    9  N   UNL     1     -43.519  54.624 -53.799  1.00  0.00    -0.173 NA
HETATM   10  N   UNL     1     -43.852  55.442 -54.800  1.00  0.00    -0.272 N 
HETATM   11  H   UNL     1     -44.574  55.154 -55.454  1.00  0.00     0.189 HD
BRANCH   8  12
HETATM   12  C   UNL     1     -41.893  54.643 -51.992  1.00  0.00    -0.005 A 
HETATM   13  C   UNL     1     -42.184  55.103 -50.702  1.00  0.00     0.016 A 
HETATM   14  C   UNL     1     -41.589  54.509 -49.586  1.00  0.00     0.037 A 
HETATM   15  C   UNL     1     -40.693  53.450 -49.738  1.00  0.00     0.068 A 
HETATM   16  C   UNL     1     -40.377  53.003 -51.021  1.00  0.00     0.037 A 
HETATM   17  C   UNL     1     -40.972  53.600 -52.141  1.00  0.00     0.016 A 
BRANCH  15  18
HETATM   18  O   UNL     1     -40.191  52.951 -48.567  1.00  0.00    -0.356 OA
HETATM   19  C   UNL     1     -40.198  53.824 -47.444  1.00  0.00     0.210 C 
ENDBRANCH  15  18
ENDBRANCH   8  12
ENDBRANCH   1   5
BRANCH   2  20
HETATM   20  N   UNL     1     -42.880  58.520 -57.926  1.00  0.00    -0.165 NA
HETATM   21  C   UNL     1     -43.530  58.047 -58.940  1.00  0.00     0.157 A 
HETATM   22  C   UNL     1     -44.013  58.982 -60.072  1.00  0.00     0.277 A 
HETATM   23  C   UNL     1     -43.983  56.700 -59.319  1.00  0.00     0.027 A 
HETATM   24  O   UNL     1     -43.814  60.172 -60.167  1.00  0.00    -0.266 OA
HETATM   25  N   UNL     1     -44.728  58.177 -60.928  1.00  0.00    -0.321 N 
HETATM   26  C   UNL     1     -44.709  56.855 -60.504  1.00  0.00     0.048 A 
HETATM   27  H   UNL     1     -45.160  58.530 -61.769  1.00  0.00     0.169 HD
HETATM   28  C   UNL     1     -45.289  55.786 -61.158  1.00  0.00     0.030 A 
HETATM   29  C   UNL     1     -45.111  54.518 -60.602  1.00  0.00     0.002 A 
HETATM   30  C   UNL     1     -44.352  54.347 -59.429  1.00  0.00     0.001 A 
HETATM   31  C   UNL     1     -43.770  55.443 -58.781  1.00  0.00     0.016 A 
ENDBRANCH   2  20
TORSDOF 4
ENDMDL
MODEL 7
REMARK VINA RESULT:      -7.7      4.943      6.496
REMARK  4 active torsions:
REMARK  status: ('A' for Active; 'I' for Inactive)
REMARK    1  A    between atoms: C_3  and  C_4 
REMARK       I    between atoms: C_4  and  N_5 
REMARK    2  A    between atoms: N_5  and  N_6 
REMARK    3  A    between atoms: C_21  and  C_22 
REMARK    4  A    between atoms: C_25  and  O_26 
ROOT
HETATM    1  C   UNL     1     -44.448  57.914 -51.020  1.00  0.00     0.290 C 
HETATM    2  N   UNL     1     -43.964  59.127 -50.554  1.00  0.00    -0.241 N 
HETATM    3  O   UNL     1     -45.617  57.554 -50.913  1.00  0.00    -0.264 OA
HETATM    4  H   UNL     1     -42.993  59.358 -50.672  1.00  0.00     0.192 HD
ENDROOT
BRANCH   1   5
HETATM    5  C   UNL     1     -43.453  57.030 -51.585  1.00  0.00     0.127 A 
HETATM    6  C   UNL     1     -43.159  55.673 -51.495  1.00  0.00     0.003 A 
HETATM    7  C   UNL     1     -43.798  54.641 -50.637  1.00  0.00     0.053 C 
HETATM    8  C   UNL     1     -42.042  55.479 -52.379  1.00  0.00     0.095 A 
HETATM    9  N   UNL     1     -41.646  56.644 -52.910  1.00  0.00    -0.173 NA
HETATM   10  N   UNL     1     -42.477  57.551 -52.390  1.00  0.00    -0.272 N 
HETATM   11  H   UNL     1     -42.353  58.531 -52.631  1.00  0.00     0.189 HD
BRANCH   8  12
HETATM   12  C   UNL     1     -41.332  54.242 -52.710  1.00  0.00    -0.005 A 
HETATM   13  C   UNL     1     -40.557  53.598 -51.738  1.00  0.00     0.016 A 
HETATM   14  C   UNL     1     -39.886  52.410 -52.039  1.00  0.00     0.037 A 
HETATM   15  C   UNL     1     -39.976  51.845 -53.312  1.00  0.00     0.068 A 
HETATM   16  C   UNL     1     -40.725  52.495 -54.294  1.00  0.00     0.037 A 
HETATM   17  C   UNL     1     -41.396  53.689 -53.994  1.00  0.00     0.016 A 
BRANCH  15  18
HETATM   18  O   UNL     1     -39.284  50.677 -53.472  1.00  0.00    -0.356 OA
HETATM   19  C   UNL     1     -39.736  49.798 -54.494  1.00  0.00     0.210 C 
ENDBRANCH  15  18
ENDBRANCH   8  12
ENDBRANCH   1   5
BRANCH   2  20
HETATM   20  N   UNL     1     -44.825  60.089 -50.126  1.00  0.00    -0.165 NA
HETATM   21  C   UNL     1     -45.056  61.127 -50.865  1.00  0.00     0.157 A 
HETATM   22  C   UNL     1     -46.164  62.134 -50.485  1.00  0.00     0.277 A 
HETATM   23  C   UNL     1     -44.471  61.635 -52.115  1.00  0.00     0.027 A 
HETATM   24  O   UNL     1     -46.865  62.106 -49.499  1.00  0.00    -0.266 OA
HETATM   25  N   UNL     1     -46.192  63.048 -51.513  1.00  0.00    -0.321 N 
HETATM   26  C   UNL     1     -45.211  62.771 -52.455  1.00  0.00     0.048 A 
HETATM   27  H   UNL     1     -46.828  63.832 -51.523  1.00  0.00     0.169 HD
HETATM   28  C   UNL     1     -44.938  63.518 -53.584  1.00  0.00     0.030 A 
HETATM   29  C   UNL     1     -43.869  63.109 -54.384  1.00  0.00     0.002 A 
HETATM   30  C   UNL     1     -43.096  61.987 -54.031  1.00  0.00     0.001 A 
HETATM   31  C   UNL     1     -43.386  61.244 -52.881  1.00  0.00     0.016 A 
ENDBRANCH   2  20
TORSDOF 4
ENDMDL
MODEL 8
REMARK VINA RESULT:      -7.6      6.469      9.934
REMARK  4 active torsions:
REMARK  status: ('A' for Active; 'I' for Inactive)
REMARK    1  A    between atoms: C_3  and  C_4 
REMARK       I    between atoms: C_4  and  N_5 
REMARK    2  A    between atoms: N_5  and  N_6 
REMARK    3  A    between atoms: C_21  and  C_22 
REMARK    4  A    between atoms: C_25  and  O_26 
ROOT
HETATM    1  C   UNL     1     -43.599  58.116 -52.358  1.00  0.00     0.290 C 
HETATM    2  N   UNL     1     -43.761  56.744 -52.243  1.00  0.00    -0.241 N 
HETATM    3  O   UNL     1     -42.873  58.655 -53.188  1.00  0.00    -0.264 OA
HETATM    4  H   UNL     1     -44.371  56.368 -51.538  1.00  0.00     0.192 HD
ENDROOT
BRANCH   1   5
HETATM    5  C   UNL     1     -44.291  58.904 -51.361  1.00  0.00     0.127 A 
HETATM    6  C   UNL     1     -44.014  60.057 -50.634  1.00  0.00     0.003 A 
HETATM    7  C   UNL     1     -42.761  60.857 -50.605  1.00  0.00     0.053 C 
HETATM    8  C   UNL     1     -45.197  60.290 -49.851  1.00  0.00     0.095 A 
HETATM    9  N   UNL     1     -46.094  59.312 -50.038  1.00  0.00    -0.173 NA
HETATM   10  N   UNL     1     -45.512  58.484 -50.909  1.00  0.00    -0.272 N 
HETATM   11  H   UNL     1     -46.001  57.638 -51.188  1.00  0.00     0.189 HD
BRANCH   8  12
HETATM   12  C   UNL     1     -45.487  61.385 -48.923  1.00  0.00    -0.005 A 
HETATM   13  C   UNL     1     -45.006  61.334 -47.609  1.00  0.00     0.016 A 
HETATM   14  C   UNL     1     -45.265  62.380 -46.718  1.00  0.00     0.037 A 
HETATM   15  C   UNL     1     -46.007  63.491 -47.123  1.00  0.00     0.068 A 
HETATM   16  C   UNL     1     -46.512  63.536 -48.422  1.00  0.00     0.037 A 
HETATM   17  C   UNL     1     -46.256  62.487 -49.315  1.00  0.00     0.016 A 
BRANCH  15  18
HETATM   18  O   UNL     1     -46.178  64.447 -46.160  1.00  0.00    -0.356 OA
HETATM   19  C   UNL     1     -45.420  64.298 -44.967  1.00  0.00     0.210 C 
ENDBRANCH  15  18
ENDBRANCH   8  12
ENDBRANCH   1   5
BRANCH   2  20
HETATM   20  N   UNL     1     -43.268  55.914 -53.201  1.00  0.00    -0.165 NA
HETATM   21  C   UNL     1     -42.361  55.041 -52.898  1.00  0.00     0.157 A 
HETATM   22  C   UNL     1     -41.923  53.971 -53.922  1.00  0.00     0.277 A 
HETATM   23  C   UNL     1     -41.566  54.780 -51.688  1.00  0.00     0.027 A 
HETATM   24  O   UNL     1     -42.309  53.856 -55.063  1.00  0.00    -0.266 OA
HETATM   25  N   UNL     1     -41.025  53.173 -53.253  1.00  0.00    -0.321 N 
HETATM   26  C   UNL     1     -40.807  53.639 -51.963  1.00  0.00     0.048 A 
HETATM   27  H   UNL     1     -40.569  52.385 -53.690  1.00  0.00     0.169 HD
HETATM   28  C   UNL     1     -39.931  53.097 -51.043  1.00  0.00     0.030 A 
HETATM   29  C   UNL     1     -39.809  53.745 -49.812  1.00  0.00     0.002 A 
HETATM   30  C   UNL     1     -40.542  54.914 -49.539  1.00  0.00     0.001 A 
HETATM   31  C   UNL     1     -41.424  55.450 -50.486  1.00  0.00     0.016 A 
ENDBRANCH   2  20
TORSDOF 4
ENDMDL
MODEL 9
REMARK VINA RESULT:      -7.5      4.391      5.260
REMARK  4 active torsions:
REMARK  status: ('A' for Active; 'I' for Inactive)
REMARK    1  A    between atoms: C_3  and  C_4 
REMARK       I    between atoms: C_4  and  N_5 
REMARK    2  A    between atoms: N_5  and  N_6 
REMARK    3  A    between atoms: C_21  and  C_22 
REMARK    4  A    between atoms: C_25  and  O_26 
ROOT
HETATM    1  C   UNL     1     -43.565  58.479 -51.678  1.00  0.00     0.290 C 
HETATM    2  N   UNL     1     -42.552  59.419 -51.791  1.00  0.00    -0.241 N 
HETATM    3  O   UNL     1     -44.730  58.754 -51.405  1.00  0.00    -0.264 OA
HETATM    4  H   UNL     1     -41.617  59.125 -52.015  1.00  0.00     0.192 HD
ENDROOT
BRANCH   1   5
HETATM    5  C   UNL     1     -43.146  57.102 -51.824  1.00  0.00     0.127 A 
HETATM    6  C   UNL     1     -42.088  56.443 -52.442  1.00  0.00     0.003 A 
HETATM    7  C   UNL     1     -41.010  57.012 -53.292  1.00  0.00     0.053 C 
HETATM    8  C   UNL     1     -42.290  55.053 -52.132  1.00  0.00     0.095 A 
HETATM    9  N   UNL     1     -43.424  54.879 -51.438  1.00  0.00    -0.173 NA
HETATM   10  N   UNL     1     -43.929  56.108 -51.305  1.00  0.00    -0.272 N 
HETATM   11  H   UNL     1     -44.818  56.228 -50.827  1.00  0.00     0.189 HD
BRANCH   8  12
HETATM   12  C   UNL     1     -41.465  53.899 -52.493  1.00  0.00    -0.005 A 
HETATM   13  C   UNL     1     -41.550  53.353 -53.779  1.00  0.00     0.016 A 
HETATM   14  C   UNL     1     -40.757  52.259 -54.139  1.00  0.00     0.037 A 
HETATM   15  C   UNL     1     -39.868  51.694 -53.223  1.00  0.00     0.068 A 
HETATM   16  C   UNL     1     -39.797  52.216 -51.931  1.00  0.00     0.037 A 
HETATM   17  C   UNL     1     -40.595  53.310 -51.569  1.00  0.00     0.016 A 
BRANCH  15  18
HETATM   18  O   UNL     1     -39.143  50.639 -53.704  1.00  0.00    -0.356 OA
HETATM   19  C   UNL     1     -39.786  49.802 -54.657  1.00  0.00     0.210 C 
ENDBRANCH  15  18
ENDBRANCH   8  12
ENDBRANCH   1   5
BRANCH   2  20
HETATM   20  N   UNL     1     -42.849  60.747 -51.805  1.00  0.00    -0.165 NA
HETATM   21  C   UNL     1     -42.990  61.367 -52.933  1.00  0.00     0.157 A 
HETATM   22  C   UNL     1     -43.506  62.822 -52.973  1.00  0.00     0.277 A 
HETATM   23  C   UNL     1     -42.769  60.987 -54.337  1.00  0.00     0.027 A 
HETATM   24  O   UNL     1     -43.774  63.525 -52.025  1.00  0.00    -0.266 OA
HETATM   25  N   UNL     1     -43.614  63.134 -54.309  1.00  0.00    -0.321 N 
HETATM   26  C   UNL     1     -43.181  62.080 -55.104  1.00  0.00     0.048 A 
HETATM   27  H   UNL     1     -43.928  64.037 -54.630  1.00  0.00     0.169 HD
HETATM   28  C   UNL     1     -43.115  62.081 -56.483  1.00  0.00     0.030 A 
HETATM   29  C   UNL     1     -42.596  60.942 -57.102  1.00  0.00     0.002 A 
HETATM   30  C   UNL     1     -42.144  59.850 -56.338  1.00  0.00     0.001 A 
HETATM   31  C   UNL     1     -42.218  59.870 -54.940  1.00  0.00     0.016 A 
ENDBRANCH   2  20
TORSDOF 4
ENDMDL
MODEL 10
REMARK VINA RESULT:      -7.4      1.549      2.148
REMARK  4 active torsions:
REMARK  status: ('A' for Active; 'I' for Inactive)
REMARK    1  A    between atoms: C_3  and  C_4 
REMARK       I    between atoms: C_4  and  N_5 
REMARK    2  A    between atoms: N_5  and  N_6 
REMARK    3  A    between atoms: C_21  and  C_22 
REMARK    4  A    between atoms: C_25  and  O_26 
ROOT
HETATM    1  C   UNL     1     -44.078  57.962 -56.132  1.00  0.00     0.290 C 
HETATM    2  N   UNL     1     -43.659  58.417 -57.373  1.00  0.00    -0.241 N 
HETATM    3  O   UNL     1     -44.877  58.560 -55.416  1.00  0.00    -0.264 OA
HETATM    4  H   UNL     1     -43.000  57.879 -57.908  1.00  0.00     0.192 HD
ENDROOT
BRANCH   1   5
HETATM    5  C   UNL     1     -43.443  56.747 -55.675  1.00  0.00     0.127 A 
HETATM    6  C   UNL     1     -42.567  56.405 -54.648  1.00  0.00     0.003 A 
HETATM    7  C   UNL     1     -41.893  57.298 -53.669  1.00  0.00     0.053 C 
HETATM    8  C   UNL     1     -42.396  54.983 -54.770  1.00  0.00     0.095 A 
HETATM    9  N   UNL     1     -43.063  54.511 -55.832  1.00  0.00    -0.173 NA
HETATM   10  N   UNL     1     -43.642  55.586 -56.372  1.00  0.00    -0.272 N 
HETATM   11  H   UNL     1     -44.191  55.479 -57.220  1.00  0.00     0.189 HD
BRANCH   8  12
HETATM   12  C   UNL     1     -41.608  54.075 -53.934  1.00  0.00    -0.005 A 
HETATM   13  C   UNL     1     -40.904  53.017 -54.521  1.00  0.00     0.016 A 
HETATM   14  C   UNL     1     -40.137  52.152 -53.735  1.00  0.00     0.037 A 
HETATM   15  C   UNL     1     -40.061  52.328 -52.352  1.00  0.00     0.068 A 
HETATM   16  C   UNL     1     -40.781  53.364 -51.757  1.00  0.00     0.037 A 
HETATM   17  C   UNL     1     -41.553  54.230 -52.544  1.00  0.00     0.016 A 
BRANCH  15  18
HETATM   18  O   UNL     1     -39.269  51.423 -51.702  1.00  0.00    -0.356 OA
HETATM   19  C   UNL     1     -39.550  50.048 -51.927  1.00  0.00     0.210 C 
ENDBRANCH  15  18
ENDBRANCH   8  12
ENDBRANCH   1   5
BRANCH   2  20
HETATM   20  N   UNL     1     -44.282  59.474 -57.962  1.00  0.00    -0.165 NA
HETATM   21  C   UNL     1     -45.217  59.269 -58.834  1.00  0.00     0.157 A 
HETATM   22  C   UNL     1     -46.061  60.446 -59.374  1.00  0.00     0.277 A 
HETATM   23  C   UNL     1     -45.741  58.068 -59.501  1.00  0.00     0.027 A 
HETATM   24  O   UNL     1     -45.928  61.619 -59.107  1.00  0.00    -0.266 OA
HETATM   25  N   UNL     1     -46.999  59.872 -60.199  1.00  0.00    -0.321 N 
HETATM   26  C   UNL     1     -46.816  58.498 -60.285  1.00  0.00     0.048 A 
HETATM   27  H   UNL     1     -47.688  60.416 -60.697  1.00  0.00     0.169 HD
HETATM   28  C   UNL     1     -47.555  57.629 -61.062  1.00  0.00     0.030 A 
HETATM   29  C   UNL     1     -47.180  56.284 -61.058  1.00  0.00     0.002 A 
HETATM   30  C   UNL     1     -46.077  55.847 -60.301  1.00  0.00     0.001 A 
HETATM   31  C   UNL     1     -45.338  56.744 -59.520  1.00  0.00     0.016 A 
ENDBRANCH   2  20
TORSDOF 4
ENDMDL
