MODEL 1
REMARK VINA RESULT:      -9.3      0.000      0.000
REMARK  4 active torsions:
REMARK  status: ('A' for Active; 'I' for Inactive)
REMARK    1  A    between atoms: C_5  and  C_6 
REMARK    2  A    between atoms: C_7  and  C_8 
REMARK       I    between atoms: C_8  and  N_9 
REMARK    3  A    between atoms: N_9  and  C_10 
REMARK    4  A    between atoms: C_17  and  C_18 
REMARK       I    between atoms: C_18  and  N_19 
ROOT
HETATM    1  C   UNL     1     -43.212  55.971 -54.108  1.00  0.00     0.245 C 
HETATM    2  N   UNL     1     -42.528  55.868 -55.302  1.00  0.00    -0.324 N 
HETATM    3  O   UNL     1     -44.133  56.730 -53.842  1.00  0.00    -0.268 OA
HETATM    4  H   UNL     1     -41.764  55.205 -55.338  1.00  0.00     0.169 HD
ENDROOT
BRANCH   2   5
HETATM    5  C   UNL     1     -42.721  56.639 -56.469  1.00  0.00     0.035 A 
HETATM    6  C   UNL     1     -43.457  56.204 -57.579  1.00  0.00     0.046 A 
HETATM    7  C   UNL     1     -43.616  57.060 -58.692  1.00  0.00     0.030 A 
HETATM    8  C   UNL     1     -43.032  58.320 -58.657  1.00  0.00     0.063 A 
HETATM    9  C   UNL     1     -44.269  56.991 -59.960  1.00  0.00     0.156 A 
HETATM   10  N   UNL     1     -43.361  58.906 -59.847  1.00  0.00    -0.277 N 
HETATM   11  C   UNL     1     -42.283  58.783 -57.575  1.00  0.00     0.034 A 
HETATM   12  H   UNL     1     -43.106  59.834 -60.165  1.00  0.00     0.189 HD
HETATM   13  N   UNL     1     -44.105  58.138 -60.659  1.00  0.00    -0.168 NA
HETATM   14  C   UNL     1     -42.139  57.915 -56.484  1.00  0.00     0.032 A 
BRANCH   9  15
HETATM   15  C   UNL     1     -45.041  55.869 -60.514  1.00  0.00     0.270 C 
HETATM   16  N   UNL     1     -46.237  55.649 -59.886  1.00  0.00    -0.365 N 
HETATM   17  H   UNL     1     -46.496  56.252 -59.114  1.00  0.00     0.159 HD
HETATM   18  H   UNL     1     -46.835  54.902 -60.200  1.00  0.00     0.159 HD
HETATM   19  O   UNL     1     -44.682  55.170 -61.455  1.00  0.00    -0.266 OA
ENDBRANCH   9  15
ENDBRANCH   2   5
BRANCH   1  20
HETATM   20  C   UNL     1     -42.671  55.037 -53.080  1.00  0.00     0.075 C 
HETATM   21  C   UNL     1     -41.556  54.340 -53.349  1.00  0.00     0.018 C 
BRANCH  21  22
HETATM   22  C   UNL     1     -40.946  53.379 -52.412  1.00  0.00    -0.025 A 
HETATM   23  C   UNL     1     -40.457  52.116 -52.853  1.00  0.00    -0.016 A 
HETATM   24  C   UNL     1     -39.947  51.209 -51.888  1.00  0.00    -0.025 A 
HETATM   25  C   UNL     1     -40.442  51.704 -54.207  1.00  0.00     0.013 A 
HETATM   26  C   UNL     1     -39.466  49.951 -52.288  1.00  0.00     0.012 A 
HETATM   27  C   UNL     1     -39.927  51.568 -50.531  1.00  0.00     0.012 A 
HETATM   28  C   UNL     1     -39.476  49.572 -53.629  1.00  0.00     0.001 A 
HETATM   29  C   UNL     1     -39.961  50.450 -54.589  1.00  0.00     0.001 A 
HETATM   30  C   UNL     1     -40.409  52.803 -50.111  1.00  0.00     0.002 A 
HETATM   31  C   UNL     1     -40.921  53.700 -51.044  1.00  0.00     0.012 A 
ENDBRANCH  21  22
ENDBRANCH   1  20
TORSDOF 4
ENDMDL
MODEL 2
REMARK VINA RESULT:      -9.2      1.838      2.914
REMARK  4 active torsions:
REMARK  status: ('A' for Active; 'I' for Inactive)
REMARK    1  A    between atoms: C_5  and  C_6 
REMARK    2  A    between atoms: C_7  and  C_8 
REMARK       I    between atoms: C_8  and  N_9 
REMARK    3  A    between atoms: N_9  and  C_10 
REMARK    4  A    between atoms: C_17  and  C_18 
REMARK       I    between atoms: C_18  and  N_19 
ROOT
HETATM    1  C   UNL     1     -43.315  55.759 -54.740  1.00  0.00     0.245 C 
HETATM    2  N   UNL     1     -42.480  55.756 -55.837  1.00  0.00    -0.324 N 
HETATM    3  O   UNL     1     -44.318  56.439 -54.570  1.00  0.00    -0.268 OA
HETATM    4  H   UNL     1     -41.670  55.151 -55.797  1.00  0.00     0.169 HD
ENDROOT
BRANCH   2   5
HETATM    5  C   UNL     1     -42.581  56.561 -56.994  1.00  0.00     0.035 A 
HETATM    6  C   UNL     1     -42.179  57.903 -57.048  1.00  0.00     0.046 A 
HETATM    7  C   UNL     1     -42.297  58.619 -58.260  1.00  0.00     0.030 A 
HETATM    8  C   UNL     1     -42.815  57.971 -59.374  1.00  0.00     0.063 A 
HETATM    9  C   UNL     1     -42.006  59.944 -58.706  1.00  0.00     0.156 A 
HETATM   10  N   UNL     1     -42.796  58.900 -60.377  1.00  0.00    -0.277 N 
HETATM   11  C   UNL     1     -43.235  56.641 -59.355  1.00  0.00     0.034 A 
HETATM   12  H   UNL     1     -43.099  58.774 -61.335  1.00  0.00     0.189 HD
HETATM   13  N   UNL     1     -42.317  60.100 -60.014  1.00  0.00    -0.168 NA
HETATM   14  C   UNL     1     -43.109  55.952 -58.142  1.00  0.00     0.032 A 
BRANCH   9  15
HETATM   15  C   UNL     1     -41.443  61.053 -57.923  1.00  0.00     0.270 C 
HETATM   16  N   UNL     1     -42.228  61.452 -56.875  1.00  0.00    -0.365 N 
HETATM   17  H   UNL     1     -43.107  60.975 -56.719  1.00  0.00     0.159 HD
HETATM   18  H   UNL     1     -41.920  62.205 -56.280  1.00  0.00     0.159 HD
HETATM   19  O   UNL     1     -40.368  61.597 -58.152  1.00  0.00    -0.266 OA
ENDBRANCH   9  15
ENDBRANCH   2   5
BRANCH   1  20
HETATM   20  C   UNL     1     -42.840  54.823 -53.682  1.00  0.00     0.075 C 
HETATM   21  C   UNL     1     -41.522  54.631 -53.520  1.00  0.00     0.018 C 
BRANCH  21  22
HETATM   22  C   UNL     1     -40.946  53.717 -52.517  1.00  0.00    -0.025 A 
HETATM   23  C   UNL     1     -40.487  52.415 -52.871  1.00  0.00    -0.016 A 
HETATM   24  C   UNL     1     -40.009  51.559 -51.845  1.00  0.00    -0.025 A 
HETATM   25  C   UNL     1     -40.472  51.917 -54.196  1.00  0.00     0.013 A 
HETATM   26  C   UNL     1     -39.560  50.266 -52.159  1.00  0.00     0.012 A 
HETATM   27  C   UNL     1     -39.991  52.004 -50.514  1.00  0.00     0.012 A 
HETATM   28  C   UNL     1     -39.568  49.802 -53.473  1.00  0.00     0.001 A 
HETATM   29  C   UNL     1     -40.022  50.628 -54.492  1.00  0.00     0.001 A 
HETATM   30  C   UNL     1     -40.443  53.277 -50.179  1.00  0.00     0.002 A 
HETATM   31  C   UNL     1     -40.923  54.125 -51.173  1.00  0.00     0.012 A 
ENDBRANCH  21  22
ENDBRANCH   1  20
TORSDOF 4
ENDMDL
MODEL 3
REMARK VINA RESULT:      -8.9      2.062      2.462
REMARK  4 active torsions:
REMARK  status: ('A' for Active; 'I' for Inactive)
REMARK    1  A    between atoms: C_5  and  C_6 
REMARK    2  A    between atoms: C_7  and  C_8 
REMARK       I    between atoms: C_8  and  N_9 
REMARK    3  A    between atoms: N_9  and  C_10 
REMARK    4  A    between atoms: C_17  and  C_18 
REMARK       I    between atoms: C_18  and  N_19 
ROOT
HETATM    1  C   UNL     1     -41.912  56.798 -55.385  1.00  0.00     0.245 C 
HETATM    2  N   UNL     1     -42.418  56.001 -56.391  1.00  0.00    -0.324 N 
HETATM    3  O   UNL     1     -42.029  58.010 -55.266  1.00  0.00    -0.268 OA
HETATM    4  H   UNL     1     -42.195  55.015 -56.352  1.00  0.00     0.169 HD
ENDROOT
BRANCH   2   5
HETATM    5  C   UNL     1     -43.156  56.414 -57.522  1.00  0.00     0.035 A 
HETATM    6  C   UNL     1     -44.214  57.332 -57.470  1.00  0.00     0.046 A 
HETATM    7  C   UNL     1     -44.877  57.704 -58.662  1.00  0.00     0.030 A 
HETATM    8  C   UNL     1     -44.461  57.143 -59.862  1.00  0.00     0.063 A 
HETATM    9  C   UNL     1     -45.952  58.574 -59.014  1.00  0.00     0.156 A 
HETATM   10  N   UNL     1     -45.268  57.691 -60.819  1.00  0.00    -0.277 N 
HETATM   11  C   UNL     1     -43.420  56.218 -59.951  1.00  0.00     0.034 A 
HETATM   12  H   UNL     1     -45.246  57.513 -61.816  1.00  0.00     0.189 HD
HETATM   13  N   UNL     1     -46.179  58.557 -60.348  1.00  0.00    -0.168 NA
HETATM   14  C   UNL     1     -42.779  55.865 -58.756  1.00  0.00     0.032 A 
BRANCH   9  15
HETATM   15  C   UNL     1     -46.759  59.415 -58.118  1.00  0.00     0.270 C 
HETATM   16  N   UNL     1     -47.687  58.723 -57.387  1.00  0.00    -0.365 N 
HETATM   17  H   UNL     1     -47.750  57.720 -57.511  1.00  0.00     0.159 HD
HETATM   18  H   UNL     1     -48.284  59.217 -56.744  1.00  0.00     0.159 HD
HETATM   19  O   UNL     1     -46.640  60.630 -58.003  1.00  0.00    -0.266 OA
ENDBRANCH   9  15
ENDBRANCH   2   5
BRANCH   1  20
HETATM   20  C   UNL     1     -41.119  56.008 -54.402  1.00  0.00     0.075 C 
HETATM   21  C   UNL     1     -41.746  55.115 -53.619  1.00  0.00     0.018 C 
BRANCH  21  22
HETATM   22  C   UNL     1     -41.061  54.294 -52.604  1.00  0.00    -0.025 A 
HETATM   23  C   UNL     1     -40.594  52.981 -52.899  1.00  0.00    -0.016 A 
HETATM   24  C   UNL     1     -40.008  52.217 -51.856  1.00  0.00    -0.025 A 
HETATM   25  C   UNL     1     -40.672  52.384 -54.180  1.00  0.00     0.013 A 
HETATM   26  C   UNL     1     -39.546  50.915 -52.110  1.00  0.00     0.012 A 
HETATM   27  C   UNL     1     -39.894  52.762 -50.567  1.00  0.00     0.012 A 
HETATM   28  C   UNL     1     -39.647  50.353 -53.381  1.00  0.00     0.001 A 
HETATM   29  C   UNL     1     -40.208  51.088 -54.417  1.00  0.00     0.001 A 
HETATM   30  C   UNL     1     -40.357  54.045 -50.290  1.00  0.00     0.002 A 
HETATM   31  C   UNL     1     -40.942  54.803 -51.300  1.00  0.00     0.012 A 
ENDBRANCH  21  22
ENDBRANCH   1  20
TORSDOF 4
ENDMDL
MODEL 4
REMARK VINA RESULT:      -8.8      2.066      3.932
REMARK  4 active torsions:
REMARK  status: ('A' for Active; 'I' for Inactive)
REMARK    1  A    between atoms: C_5  and  C_6 
REMARK    2  A    between atoms: C_7  and  C_8 
REMARK       I    between atoms: C_8  and  N_9 
REMARK    3  A    between atoms: N_9  and  C_10 
REMARK    4  A    between atoms: C_17  and  C_18 
REMARK       I    between atoms: C_18  and  N_19 
ROOT
HETATM    1  C   UNL     1     -42.960  55.755 -56.059  1.00  0.00     0.245 C 
HETATM    2  N   UNL     1     -42.510  55.800 -57.362  1.00  0.00    -0.324 N 
HETATM    3  O   UNL     1     -43.686  56.562 -55.494  1.00  0.00    -0.268 OA
HETATM    4  H   UNL     1     -41.885  55.063 -57.659  1.00  0.00     0.169 HD
ENDROOT
BRANCH   2   5
HETATM    5  C   UNL     1     -42.763  56.806 -58.321  1.00  0.00     0.035 A 
HETATM    6  C   UNL     1     -42.192  58.085 -58.279  1.00  0.00     0.046 A 
HETATM    7  C   UNL     1     -42.486  59.017 -59.300  1.00  0.00     0.030 A 
HETATM    8  C   UNL     1     -43.343  58.638 -60.326  1.00  0.00     0.063 A 
HETATM    9  C   UNL     1     -42.117  60.362 -59.606  1.00  0.00     0.156 A 
HETATM   10  N   UNL     1     -43.426  59.725 -61.150  1.00  0.00    -0.277 N 
HETATM   11  C   UNL     1     -43.938  57.378 -60.395  1.00  0.00     0.034 A 
HETATM   12  H   UNL     1     -43.963  59.806 -62.006  1.00  0.00     0.189 HD
HETATM   13  N   UNL     1     -42.703  60.783 -60.751  1.00  0.00    -0.168 NA
HETATM   14  C   UNL     1     -43.632  56.473 -59.371  1.00  0.00     0.032 A 
BRANCH   9  15
HETATM   15  C   UNL     1     -41.227  61.245 -58.840  1.00  0.00     0.270 C 
HETATM   16  N   UNL     1     -40.692  62.270 -59.573  1.00  0.00    -0.365 N 
HETATM   17  H   UNL     1     -40.938  62.345 -60.552  1.00  0.00     0.159 HD
HETATM   18  H   UNL     1     -40.071  62.929 -59.130  1.00  0.00     0.159 HD
HETATM   19  O   UNL     1     -40.963  61.113 -57.650  1.00  0.00    -0.266 OA
ENDBRANCH   9  15
ENDBRANCH   2   5
BRANCH   1  20
HETATM   20  C   UNL     1     -42.420  54.573 -55.330  1.00  0.00     0.075 C 
HETATM   21  C   UNL     1     -41.527  54.761 -54.347  1.00  0.00     0.018 C 
BRANCH  21  22
HETATM   22  C   UNL     1     -40.917  53.663 -53.574  1.00  0.00    -0.025 A 
HETATM   23  C   UNL     1     -40.865  53.693 -52.150  1.00  0.00    -0.016 A 
HETATM   24  C   UNL     1     -40.201  52.639 -51.471  1.00  0.00    -0.025 A 
HETATM   25  C   UNL     1     -41.444  54.716 -51.360  1.00  0.00     0.013 A 
HETATM   26  C   UNL     1     -40.122  52.644 -50.068  1.00  0.00     0.012 A 
HETATM   27  C   UNL     1     -39.618  51.593 -52.202  1.00  0.00     0.012 A 
HETATM   28  C   UNL     1     -40.694  53.672 -49.320  1.00  0.00     0.001 A 
HETATM   29  C   UNL     1     -41.357  54.706 -49.966  1.00  0.00     0.001 A 
HETATM   30  C   UNL     1     -39.673  51.574 -53.592  1.00  0.00     0.002 A 
HETATM   31  C   UNL     1     -40.313  52.606 -54.273  1.00  0.00     0.012 A 
ENDBRANCH  21  22
ENDBRANCH   1  20
TORSDOF 4
ENDMDL
MODEL 5
REMARK VINA RESULT:      -8.6      2.196      3.416
REMARK  4 active torsions:
REMARK  status: ('A' for Active; 'I' for Inactive)
REMARK    1  A    between atoms: C_5  and  C_6 
REMARK    2  A    between atoms: C_7  and  C_8 
REMARK       I    between atoms: C_8  and  N_9 
REMARK    3  A    between atoms: N_9  and  C_10 
REMARK    4  A    between atoms: C_17  and  C_18 
REMARK       I    between atoms: C_18  and  N_19 
ROOT
HETATM    1  C   UNL     1     -42.451  55.895 -55.922  1.00  0.00     0.245 C 
HETATM    2  N   UNL     1     -43.218  55.580 -57.025  1.00  0.00    -0.324 N 
HETATM    3  O   UNL     1     -42.011  56.994 -55.611  1.00  0.00    -0.268 OA
HETATM    4  H   UNL     1     -43.468  54.608 -57.147  1.00  0.00     0.169 HD
ENDROOT
BRANCH   2   5
HETATM    5  C   UNL     1     -43.637  56.452 -58.054  1.00  0.00     0.035 A 
HETATM    6  C   UNL     1     -44.545  57.502 -57.865  1.00  0.00     0.046 A 
HETATM    7  C   UNL     1     -44.884  58.338 -58.953  1.00  0.00     0.030 A 
HETATM    8  C   UNL     1     -44.306  58.092 -60.192  1.00  0.00     0.063 A 
HETATM    9  C   UNL     1     -45.731  59.469 -59.159  1.00  0.00     0.156 A 
HETATM   10  N   UNL     1     -44.810  59.051 -61.025  1.00  0.00    -0.277 N 
HETATM   11  C   UNL     1     -43.407  57.050 -60.420  1.00  0.00     0.034 A 
HETATM   12  H   UNL     1     -44.603  59.180 -62.009  1.00  0.00     0.189 HD
HETATM   13  N   UNL     1     -45.672  59.899 -60.441  1.00  0.00    -0.168 NA
HETATM   14  C   UNL     1     -43.088  56.235 -59.326  1.00  0.00     0.032 A 
BRANCH   9  15
HETATM   15  C   UNL     1     -46.584  60.145 -58.171  1.00  0.00     0.270 C 
HETATM   16  N   UNL     1     -47.597  59.365 -57.681  1.00  0.00    -0.365 N 
HETATM   17  H   UNL     1     -47.684  58.414 -58.021  1.00  0.00     0.159 HD
HETATM   18  H   UNL     1     -48.231  59.744 -56.997  1.00  0.00     0.159 HD
HETATM   19  O   UNL     1     -46.434  61.301 -57.790  1.00  0.00    -0.266 OA
ENDBRANCH   9  15
ENDBRANCH   2   5
BRANCH   1  20
HETATM   20  C   UNL     1     -42.148  54.691 -55.099  1.00  0.00     0.075 C 
HETATM   21  C   UNL     1     -40.952  54.591 -54.498  1.00  0.00     0.018 C 
BRANCH  21  22
HETATM   22  C   UNL     1     -40.543  53.438 -53.675  1.00  0.00    -0.025 A 
HETATM   23  C   UNL     1     -40.596  53.481 -52.252  1.00  0.00    -0.016 A 
HETATM   24  C   UNL     1     -40.120  52.362 -51.519  1.00  0.00    -0.025 A 
HETATM   25  C   UNL     1     -41.103  54.577 -51.514  1.00  0.00     0.013 A 
HETATM   26  C   UNL     1     -40.149  52.377 -50.115  1.00  0.00     0.012 A 
HETATM   27  C   UNL     1     -39.616  51.243 -52.199  1.00  0.00     0.012 A 
HETATM   28  C   UNL     1     -40.645  53.477 -49.418  1.00  0.00     0.001 A 
HETATM   29  C   UNL     1     -41.125  54.576 -50.117  1.00  0.00     0.001 A 
HETATM   30  C   UNL     1     -39.567  51.213 -53.589  1.00  0.00     0.002 A 
HETATM   31  C   UNL     1     -40.022  52.305 -54.321  1.00  0.00     0.012 A 
ENDBRANCH  21  22
ENDBRANCH   1  20
TORSDOF 4
ENDMDL
MODEL 6
REMARK VINA RESULT:      -8.5      1.343      2.672
REMARK  4 active torsions:
REMARK  status: ('A' for Active; 'I' for Inactive)
REMARK    1  A    between atoms: C_5  and  C_6 
REMARK    2  A    between atoms: C_7  and  C_8 
REMARK       I    between atoms: C_8  and  N_9 
REMARK    3  A    between atoms: N_9  and  C_10 
REMARK    4  A    between atoms: C_17  and  C_18 
REMARK       I    between atoms: C_18  and  N_19 
ROOT
HETATM    1  C   UNL     1     -42.258  56.611 -55.357  1.00  0.00     0.245 C 
HETATM    2  N   UNL     1     -42.062  56.495 -56.718  1.00  0.00    -0.324 N 
HETATM    3  O   UNL     1     -43.006  57.386 -54.777  1.00  0.00    -0.268 OA
HETATM    4  H   UNL     1     -41.375  55.820 -57.027  1.00  0.00     0.169 HD
ENDROOT
BRANCH   2   5
HETATM    5  C   UNL     1     -42.660  57.267 -57.739  1.00  0.00     0.035 A 
HETATM    6  C   UNL     1     -43.818  56.885 -58.430  1.00  0.00     0.046 A 
HETATM    7  C   UNL     1     -44.356  57.739 -59.419  1.00  0.00     0.030 A 
HETATM    8  C   UNL     1     -43.716  58.944 -59.684  1.00  0.00     0.063 A 
HETATM    9  C   UNL     1     -45.475  57.713 -60.305  1.00  0.00     0.156 A 
HETATM   10  N   UNL     1     -44.461  59.543 -60.661  1.00  0.00    -0.277 N 
HETATM   11  C   UNL     1     -42.557  59.352 -59.024  1.00  0.00     0.034 A 
HETATM   12  H   UNL     1     -44.290  60.442 -61.097  1.00  0.00     0.189 HD
HETATM   13  N   UNL     1     -45.527  58.834 -61.061  1.00  0.00    -0.168 NA
HETATM   14  C   UNL     1     -42.042  58.488 -58.049  1.00  0.00     0.032 A 
BRANCH   9  15
HETATM   15  C   UNL     1     -46.487  56.656 -60.443  1.00  0.00     0.270 C 
HETATM   16  N   UNL     1     -47.183  56.395 -59.294  1.00  0.00    -0.365 N 
HETATM   17  H   UNL     1     -46.961  56.928 -58.461  1.00  0.00     0.159 HD
HETATM   18  H   UNL     1     -47.900  55.687 -59.295  1.00  0.00     0.159 HD
HETATM   19  O   UNL     1     -46.720  56.041 -61.478  1.00  0.00    -0.266 OA
ENDBRANCH   9  15
ENDBRANCH   2   5
BRANCH   1  20
HETATM   20  C   UNL     1     -41.391  55.671 -54.593  1.00  0.00     0.075 C 
HETATM   21  C   UNL     1     -41.931  54.563 -54.063  1.00  0.00     0.018 C 
BRANCH  21  22
HETATM   22  C   UNL     1     -41.169  53.576 -53.277  1.00  0.00    -0.025 A 
HETATM   23  C   UNL     1     -41.094  53.652 -51.856  1.00  0.00    -0.016 A 
HETATM   24  C   UNL     1     -40.285  52.713 -51.166  1.00  0.00    -0.025 A 
HETATM   25  C   UNL     1     -41.786  54.613 -51.079  1.00  0.00     0.013 A 
HETATM   26  C   UNL     1     -40.181  52.767 -49.766  1.00  0.00     0.012 A 
HETATM   27  C   UNL     1     -39.584  51.731 -51.883  1.00  0.00     0.012 A 
HETATM   28  C   UNL     1     -40.867  53.732 -49.031  1.00  0.00     0.001 A 
HETATM   29  C   UNL     1     -41.672  54.654 -49.688  1.00  0.00     0.001 A 
HETATM   30  C   UNL     1     -39.663  51.667 -53.271  1.00  0.00     0.002 A 
HETATM   31  C   UNL     1     -40.445  52.587 -53.963  1.00  0.00     0.012 A 
ENDBRANCH  21  22
ENDBRANCH   1  20
TORSDOF 4
ENDMDL
MODEL 7
REMARK VINA RESULT:      -8.2      2.068      2.457
REMARK  4 active torsions:
REMARK  status: ('A' for Active; 'I' for Inactive)
REMARK    1  A    between atoms: C_5  and  C_6 
REMARK    2  A    between atoms: C_7  and  C_8 
REMARK       I    between atoms: C_8  and  N_9 
REMARK    3  A    between atoms: N_9  and  C_10 
REMARK    4  A    between atoms: C_17  and  C_18 
REMARK       I    between atoms: C_18  and  N_19 
ROOT
HETATM    1  C   UNL     1     -42.811  56.041 -56.623  1.00  0.00     0.245 C 
HETATM    2  N   UNL     1     -42.764  57.415 -56.740  1.00  0.00    -0.324 N 
HETATM    3  O   UNL     1     -43.053  55.227 -57.503  1.00  0.00    -0.268 OA
HETATM    4  H   UNL     1     -42.582  57.943 -55.897  1.00  0.00     0.169 HD
ENDROOT
BRANCH   2   5
HETATM    5  C   UNL     1     -43.017  58.185 -57.898  1.00  0.00     0.035 A 
HETATM    6  C   UNL     1     -44.263  58.249 -58.535  1.00  0.00     0.046 A 
HETATM    7  C   UNL     1     -44.424  59.069 -59.675  1.00  0.00     0.030 A 
HETATM    8  C   UNL     1     -43.333  59.793 -60.139  1.00  0.00     0.063 A 
HETATM    9  C   UNL     1     -45.490  59.395 -60.567  1.00  0.00     0.156 A 
HETATM   10  N   UNL     1     -43.791  60.484 -61.225  1.00  0.00    -0.277 N 
HETATM   11  C   UNL     1     -42.075  59.745 -59.537  1.00  0.00     0.034 A 
HETATM   12  H   UNL     1     -43.266  61.121 -61.813  1.00  0.00     0.189 HD
HETATM   13  N   UNL     1     -45.084  60.271 -61.516  1.00  0.00    -0.168 NA
HETATM   14  C   UNL     1     -41.941  58.925 -58.410  1.00  0.00     0.032 A 
BRANCH   9  15
HETATM   15  C   UNL     1     -46.873  58.898 -60.535  1.00  0.00     0.270 C 
HETATM   16  N   UNL     1     -47.033  57.656 -61.087  1.00  0.00    -0.365 N 
HETATM   17  H   UNL     1     -46.219  57.185 -61.464  1.00  0.00     0.159 HD
HETATM   18  H   UNL     1     -47.947  57.233 -61.107  1.00  0.00     0.159 HD
HETATM   19  O   UNL     1     -47.826  59.509 -60.063  1.00  0.00    -0.266 OA
ENDBRANCH   9  15
ENDBRANCH   2   5
BRANCH   1  20
HETATM   20  C   UNL     1     -42.561  55.599 -55.222  1.00  0.00     0.075 C 
HETATM   21  C   UNL     1     -41.369  55.071 -54.903  1.00  0.00     0.018 C 
BRANCH  21  22
HETATM   22  C   UNL     1     -41.022  54.588 -53.554  1.00  0.00    -0.025 A 
HETATM   23  C   UNL     1     -40.528  53.269 -53.339  1.00  0.00    -0.016 A 
HETATM   24  C   UNL     1     -40.281  52.843 -52.008  1.00  0.00    -0.025 A 
HETATM   25  C   UNL     1     -40.259  52.347 -54.380  1.00  0.00     0.013 A 
HETATM   26  C   UNL     1     -39.803  51.545 -51.761  1.00  0.00     0.012 A 
HETATM   27  C   UNL     1     -40.520  53.718 -50.937  1.00  0.00     0.012 A 
HETATM   28  C   UNL     1     -39.559  50.658 -52.808  1.00  0.00     0.001 A 
HETATM   29  C   UNL     1     -39.784  51.060 -54.118  1.00  0.00     0.001 A 
HETATM   30  C   UNL     1     -41.005  55.003 -51.159  1.00  0.00     0.002 A 
HETATM   31  C   UNL     1     -41.260  55.432 -52.458  1.00  0.00     0.012 A 
ENDBRANCH  21  22
ENDBRANCH   1  20
TORSDOF 4
ENDMDL
MODEL 8
REMARK VINA RESULT:      -8.2      6.312      8.325
REMARK  4 active torsions:
REMARK  status: ('A' for Active; 'I' for Inactive)
REMARK    1  A    between atoms: C_5  and  C_6 
REMARK    2  A    between atoms: C_7  and  C_8 
REMARK       I    between atoms: C_8  and  N_9 
REMARK    3  A    between atoms: N_9  and  C_10 
REMARK    4  A    between atoms: C_17  and  C_18 
REMARK       I    between atoms: C_18  and  N_19 
ROOT
HETATM    1  C   UNL     1     -44.277  57.888 -50.966  1.00  0.00     0.245 C 
HETATM    2  N   UNL     1     -43.966  59.221 -50.796  1.00  0.00    -0.324 N 
HETATM    3  O   UNL     1     -45.390  57.379 -50.980  1.00  0.00    -0.268 OA
HETATM    4  H   UNL     1     -42.985  59.465 -50.777  1.00  0.00     0.169 HD
ENDROOT
BRANCH   2   5
HETATM    5  C   UNL     1     -44.864  60.288 -50.567  1.00  0.00     0.035 A 
HETATM    6  C   UNL     1     -45.317  60.667 -49.297  1.00  0.00     0.046 A 
HETATM    7  C   UNL     1     -46.196  61.766 -49.168  1.00  0.00     0.030 A 
HETATM    8  C   UNL     1     -46.592  62.445 -50.313  1.00  0.00     0.063 A 
HETATM    9  C   UNL     1     -46.853  62.440 -48.094  1.00  0.00     0.156 A 
HETATM   10  N   UNL     1     -47.417  63.444 -49.877  1.00  0.00    -0.277 N 
HETATM   11  C   UNL     1     -46.170  62.090 -51.594  1.00  0.00     0.034 A 
HETATM   12  H   UNL     1     -47.888  64.141 -50.441  1.00  0.00     0.189 HD
HETATM   13  N   UNL     1     -47.599  63.474 -48.547  1.00  0.00    -0.168 NA
HETATM   14  C   UNL     1     -45.300  60.997 -51.696  1.00  0.00     0.032 A 
BRANCH   9  15
HETATM   15  C   UNL     1     -46.784  62.126 -46.660  1.00  0.00     0.270 C 
HETATM   16  N   UNL     1     -47.694  62.804 -45.894  1.00  0.00    -0.365 N 
HETATM   17  H   UNL     1     -48.326  63.449 -46.352  1.00  0.00     0.159 HD
HETATM   18  H   UNL     1     -47.722  62.650 -44.899  1.00  0.00     0.159 HD
HETATM   19  O   UNL     1     -45.998  61.331 -46.154  1.00  0.00    -0.266 OA
ENDBRANCH   9  15
ENDBRANCH   2   5
BRANCH   1  20
HETATM   20  C   UNL     1     -43.054  57.049 -51.105  1.00  0.00     0.075 C 
HETATM   21  C   UNL     1     -43.119  55.740 -50.821  1.00  0.00     0.018 C 
BRANCH  21  22
HETATM   22  C   UNL     1     -41.967  54.824 -50.909  1.00  0.00    -0.025 A 
HETATM   23  C   UNL     1     -41.647  54.144 -52.120  1.00  0.00    -0.016 A 
HETATM   24  C   UNL     1     -40.568  53.222 -52.117  1.00  0.00    -0.025 A 
HETATM   25  C   UNL     1     -42.339  54.335 -53.339  1.00  0.00     0.013 A 
HETATM   26  C   UNL     1     -40.232  52.527 -53.291  1.00  0.00     0.012 A 
HETATM   27  C   UNL     1     -39.839  53.000 -50.938  1.00  0.00     0.012 A 
HETATM   28  C   UNL     1     -40.941  52.730 -54.473  1.00  0.00     0.001 A 
HETATM   29  C   UNL     1     -41.993  53.636 -54.499  1.00  0.00     0.001 A 
HETATM   30  C   UNL     1     -40.162  53.668 -49.761  1.00  0.00     0.002 A 
HETATM   31  C   UNL     1     -41.223  54.569 -49.746  1.00  0.00     0.012 A 
ENDBRANCH  21  22
ENDBRANCH   1  20
TORSDOF 4
ENDMDL
MODEL 9
REMARK VINA RESULT:      -8.0      2.313      2.367
REMARK  4 active torsions:
REMARK  status: ('A' for Active; 'I' for Inactive)
REMARK    1  A    between atoms: C_5  and  C_6 
REMARK    2  A    between atoms: C_7  and  C_8 
REMARK       I    between atoms: C_8  and  N_9 
REMARK    3  A    between atoms: N_9  and  C_10 
REMARK    4  A    between atoms: C_17  and  C_18 
REMARK       I    between atoms: C_18  and  N_19 
ROOT
HETATM    1  C   UNL     1     -41.991  56.296 -55.193  1.00  0.00     0.245 C 
HETATM    2  N   UNL     1     -42.871  57.151 -54.563  1.00  0.00    -0.324 N 
HETATM    3  O   UNL     1     -41.865  56.112 -56.396  1.00  0.00    -0.268 OA
HETATM    4  H   UNL     1     -42.865  57.153 -53.551  1.00  0.00     0.169 HD
ENDROOT
BRANCH   2   5
HETATM    5  C   UNL     1     -43.843  57.979 -55.167  1.00  0.00     0.035 A 
HETATM    6  C   UNL     1     -44.406  57.730 -56.426  1.00  0.00     0.046 A 
HETATM    7  C   UNL     1     -45.392  58.604 -56.937  1.00  0.00     0.030 A 
HETATM    8  C   UNL     1     -45.777  59.699 -56.173  1.00  0.00     0.063 A 
HETATM    9  C   UNL     1     -46.177  58.690 -58.126  1.00  0.00     0.156 A 
HETATM   10  N   UNL     1     -46.732  60.339 -56.911  1.00  0.00    -0.277 N 
HETATM   11  C   UNL     1     -45.231  59.984 -54.921  1.00  0.00     0.034 A 
HETATM   12  H   UNL     1     -47.241  61.179 -56.660  1.00  0.00     0.189 HD
HETATM   13  N   UNL     1     -47.001  59.763 -58.093  1.00  0.00    -0.168 NA
HETATM   14  C   UNL     1     -44.255  59.103 -54.437  1.00  0.00     0.032 A 
BRANCH   9  15
HETATM   15  C   UNL     1     -46.163  57.779 -59.280  1.00  0.00     0.270 C 
HETATM   16  N   UNL     1     -46.943  56.665 -59.122  1.00  0.00    -0.365 N 
HETATM   17  H   UNL     1     -47.455  56.551 -58.256  1.00  0.00     0.159 HD
HETATM   18  H   UNL     1     -46.997  55.986 -59.864  1.00  0.00     0.159 HD
HETATM   19  O   UNL     1     -45.526  57.965 -60.311  1.00  0.00    -0.266 OA
ENDBRANCH   9  15
ENDBRANCH   2   5
BRANCH   1  20
HETATM   20  C   UNL     1     -41.171  55.529 -54.215  1.00  0.00     0.075 C 
HETATM   21  C   UNL     1     -41.697  54.446 -53.622  1.00  0.00     0.018 C 
BRANCH  21  22
HETATM   22  C   UNL     1     -40.980  53.626 -52.629  1.00  0.00    -0.025 A 
HETATM   23  C   UNL     1     -40.504  52.321 -52.944  1.00  0.00    -0.016 A 
HETATM   24  C   UNL     1     -39.885  51.557 -51.920  1.00  0.00    -0.025 A 
HETATM   25  C   UNL     1     -40.604  51.732 -54.227  1.00  0.00     0.013 A 
HETATM   26  C   UNL     1     -39.413  50.262 -52.195  1.00  0.00     0.012 A 
HETATM   27  C   UNL     1     -39.748  52.094 -50.631  1.00  0.00     0.012 A 
HETATM   28  C   UNL     1     -39.537  49.708 -53.467  1.00  0.00     0.001 A 
HETATM   29  C   UNL     1     -40.130  50.444 -54.485  1.00  0.00     0.001 A 
HETATM   30  C   UNL     1     -40.219  53.369 -50.334  1.00  0.00     0.002 A 
HETATM   31  C   UNL     1     -40.837  54.127 -51.324  1.00  0.00     0.012 A 
ENDBRANCH  21  22
ENDBRANCH   1  20
TORSDOF 4
ENDMDL
MODEL 10
REMARK VINA RESULT:      -7.9     14.850     18.413
REMARK  4 active torsions:
REMARK  status: ('A' for Active; 'I' for Inactive)
REMARK    1  A    between atoms: C_5  and  C_6 
REMARK    2  A    between atoms: C_7  and  C_8 
REMARK       I    between atoms: C_8  and  N_9 
REMARK    3  A    between atoms: N_9  and  C_10 
REMARK    4  A    between atoms: C_17  and  C_18 
REMARK       I    between atoms: C_18  and  N_19 
ROOT
HETATM    1  C   UNL     1     -36.113  41.892 -53.890  1.00  0.00     0.245 C 
HETATM    2  N   UNL     1     -36.169  40.563 -53.524  1.00  0.00    -0.324 N 
HETATM    3  O   UNL     1     -35.914  42.856 -53.164  1.00  0.00    -0.268 OA
HETATM    4  H   UNL     1     -36.378  39.894 -54.253  1.00  0.00     0.169 HD
ENDROOT
BRANCH   2   5
HETATM    5  C   UNL     1     -36.042  40.027 -52.223  1.00  0.00     0.035 A 
HETATM    6  C   UNL     1     -34.813  39.820 -51.582  1.00  0.00     0.046 A 
HETATM    7  C   UNL     1     -34.789  39.301 -50.267  1.00  0.00     0.030 A 
HETATM    8  C   UNL     1     -35.993  39.006 -49.642  1.00  0.00     0.063 A 
HETATM    9  C   UNL     1     -33.784  38.964 -49.311  1.00  0.00     0.156 A 
HETATM   10  N   UNL     1     -35.655  38.540 -48.402  1.00  0.00    -0.277 N 
HETATM   11  C   UNL     1     -37.234  39.189 -50.252  1.00  0.00     0.034 A 
HETATM   12  H   UNL     1     -36.284  38.232 -47.669  1.00  0.00     0.189 HD
HETATM   13  N   UNL     1     -34.334  38.499 -48.165  1.00  0.00    -0.168 NA
HETATM   14  C   UNL     1     -37.232  39.703 -51.555  1.00  0.00     0.032 A 
BRANCH   9  15
HETATM   15  C   UNL     1     -32.326  39.077 -49.461  1.00  0.00     0.270 C 
HETATM   16  N   UNL     1     -31.754  40.027 -48.659  1.00  0.00    -0.365 N 
HETATM   17  H   UNL     1     -32.351  40.564 -48.042  1.00  0.00     0.159 HD
HETATM   18  H   UNL     1     -30.757  40.173 -48.693  1.00  0.00     0.159 HD
HETATM   19  O   UNL     1     -31.646  38.398 -50.223  1.00  0.00    -0.266 OA
ENDBRANCH   9  15
ENDBRANCH   2   5
BRANCH   1  20
HETATM   20  C   UNL     1     -36.369  42.074 -55.346  1.00  0.00     0.075 C 
HETATM   21  C   UNL     1     -36.899  41.062 -56.051  1.00  0.00     0.018 C 
BRANCH  21  22
HETATM   22  C   UNL     1     -37.178  41.129 -57.497  1.00  0.00    -0.025 A 
HETATM   23  C   UNL     1     -37.589  39.979 -58.231  1.00  0.00    -0.016 A 
HETATM   24  C   UNL     1     -37.772  40.096 -59.634  1.00  0.00    -0.025 A 
HETATM   25  C   UNL     1     -37.835  38.714 -57.645  1.00  0.00     0.013 A 
HETATM   26  C   UNL     1     -38.167  38.979 -60.388  1.00  0.00     0.012 A 
HETATM   27  C   UNL     1     -37.554  41.329 -60.267  1.00  0.00     0.012 A 
HETATM   28  C   UNL     1     -38.390  37.744 -59.781  1.00  0.00     0.001 A 
HETATM   29  C   UNL     1     -38.227  37.613 -58.409  1.00  0.00     0.001 A 
HETATM   30  C   UNL     1     -37.150  42.445 -59.541  1.00  0.00     0.002 A 
HETATM   31  C   UNL     1     -36.958  42.344 -58.167  1.00  0.00     0.012 A 
ENDBRANCH  21  22
ENDBRANCH   1  20
TORSDOF 4
ENDMDL
