MODEL 1
REMARK VINA RESULT:      -8.8      0.000      0.000
REMARK  8 active torsions:
REMARK  status: ('A' for Active; 'I' for Inactive)
REMARK    1  A    between atoms: N_2  and  C_4 
REMARK    2  A    between atoms: N_2  and  C_32 
REMARK    3  A    between atoms: C_4  and  C_5 
REMARK    4  A    between atoms: N_8  and  C_9 
REMARK    5  A    between atoms: C_12  and  N_13 
REMARK    6  A    between atoms: N_13  and  C_16 
REMARK    7  A    between atoms: C_16  and  C_17 
REMARK    8  A    between atoms: C_32  and  C_33 
ROOT
HETATM    1  C   UNL     1     -42.242  58.301 -52.937  1.00  0.00     0.161 C 
HETATM    2  C   UNL     1     -42.792  57.756 -54.246  1.00  0.00     0.179 C 
HETATM    3  C   UNL     1     -42.313  58.768 -55.280  1.00  0.00     0.185 C 
HETATM    4  C   UNL     1     -43.563  59.588 -55.582  1.00  0.00     0.241 C 
HETATM    5  C   UNL     1     -44.653  58.546 -55.402  1.00  0.00     0.204 C 
HETATM    6  O   UNL     1     -44.229  57.752 -54.279  1.00  0.00    -0.379 OA
HETATM    7  O   UNL     1     -41.302  59.587 -54.688  1.00  0.00    -0.379 OA
HETATM    8  C   UNL     1     -40.971  58.998 -53.409  1.00  0.00     0.198 C 
ENDROOT
BRANCH   1   9
HETATM    9  N   UNL     1     -42.073  57.295 -51.920  1.00  0.00    -0.274 N 
HETATM   10  N   UNL     1     -41.444  57.561 -50.765  1.00  0.00     0.005 NA
HETATM   11  N   UNL     1     -41.430  56.451 -50.041  1.00  0.00    -0.161 NA
HETATM   12  C   UNL     1     -42.057  55.467 -50.759  1.00  0.00     0.095 A 
HETATM   13  C   UNL     1     -42.483  55.991 -51.960  1.00  0.00     0.139 A 
BRANCH  12  14
HETATM   14  C   UNL     1     -42.199  54.100 -50.190  1.00  0.00     0.296 C 
BRANCH  14  15
HETATM   15  N   UNL     1     -40.885  53.382 -49.972  1.00  0.00    -0.066 N 
HETATM   16  C   UNL     1     -40.263  53.754 -48.657  1.00  0.00     0.270 C 
HETATM   17  H   UNL     1     -41.117  52.380 -49.932  1.00  0.00     0.280 HD
BRANCH  15  18
HETATM   18  C   UNL     1     -39.941  53.544 -51.145  1.00  0.00     0.273 C 
BRANCH  18  19
HETATM   19  C   UNL     1     -39.956  52.393 -52.112  1.00  0.00    -0.033 A 
HETATM   20  C   UNL     1     -39.578  51.105 -51.700  1.00  0.00     0.009 A 
HETATM   21  C   UNL     1     -39.574  50.048 -52.612  1.00  0.00     0.001 A 
HETATM   22  C   UNL     1     -39.953  50.263 -53.936  1.00  0.00     0.000 A 
HETATM   23  C   UNL     1     -40.342  51.534 -54.351  1.00  0.00     0.001 A 
HETATM   24  C   UNL     1     -40.343  52.595 -53.446  1.00  0.00     0.009 A 
ENDBRANCH  18  19
ENDBRANCH  15  18
ENDBRANCH  14  15
ENDBRANCH  12  14
ENDBRANCH   1   9
BRANCH   4  25
HETATM   25  N   UNL     1     -43.509  60.201 -56.936  1.00  0.00    -0.062 N 
HETATM   26  H   UNL     1     -44.440  60.135 -57.378  1.00  0.00     0.278 HD
HETATM   27  H   UNL     1     -43.307  61.211 -56.908  1.00  0.00     0.278 HD
BRANCH  25  28
HETATM   28  C   UNL     1     -42.544  59.566 -57.884  1.00  0.00     0.273 C 
BRANCH  28  29
HETATM   29  C   UNL     1     -43.289  58.875 -58.960  1.00  0.00    -0.005 A 
HETATM   30  C   UNL     1     -43.525  57.465 -59.054  1.00  0.00    -0.000 A 
HETATM   31  C   UNL     1     -44.247  57.244 -60.226  1.00  0.00     0.043 A 
HETATM   32  C   UNL     1     -43.193  56.354 -58.249  1.00  0.00     0.014 A 
HETATM   33  C   UNL     1     -44.651  55.969 -60.638  1.00  0.00     0.030 A 
HETATM   34  N   UNL     1     -44.462  58.467 -60.816  1.00  0.00    -0.365 N 
HETATM   35  C   UNL     1     -44.306  54.886 -59.827  1.00  0.00     0.002 A 
HETATM   36  C   UNL     1     -43.588  55.072 -58.649  1.00  0.00     0.001 A 
HETATM   37  H   UNL     1     -44.986  58.604 -61.673  1.00  0.00     0.165 HD
HETATM   38  C   UNL     1     -43.871  59.457 -60.071  1.00  0.00     0.098 A 
ENDBRANCH  28  29
ENDBRANCH  25  28
ENDBRANCH   4  25
TORSDOF 8
ENDMDL
MODEL 2
REMARK VINA RESULT:      -8.8      2.786      4.133
REMARK  8 active torsions:
REMARK  status: ('A' for Active; 'I' for Inactive)
REMARK    1  A    between atoms: N_2  and  C_4 
REMARK    2  A    between atoms: N_2  and  C_32 
REMARK    3  A    between atoms: C_4  and  C_5 
REMARK    4  A    between atoms: N_8  and  C_9 
REMARK    5  A    between atoms: C_12  and  N_13 
REMARK    6  A    between atoms: N_13  and  C_16 
REMARK    7  A    between atoms: C_16  and  C_17 
REMARK    8  A    between atoms: C_32  and  C_33 
ROOT
HETATM    1  C   UNL     1     -42.277  55.991 -55.560  1.00  0.00     0.161 C 
HETATM    2  C   UNL     1     -43.046  57.283 -55.794  1.00  0.00     0.179 C 
HETATM    3  C   UNL     1     -43.277  57.291 -57.299  1.00  0.00     0.185 C 
HETATM    4  C   UNL     1     -42.256  58.300 -57.812  1.00  0.00     0.241 C 
HETATM    5  C   UNL     1     -42.187  59.272 -56.648  1.00  0.00     0.204 C 
HETATM    6  O   UNL     1     -42.272  58.450 -55.470  1.00  0.00    -0.379 OA
HETATM    7  O   UNL     1     -43.002  55.986 -57.814  1.00  0.00    -0.379 OA
HETATM    8  C   UNL     1     -42.821  55.109 -56.678  1.00  0.00     0.198 C 
ENDROOT
BRANCH   1   9
HETATM    9  N   UNL     1     -42.409  55.475 -54.223  1.00  0.00    -0.274 N 
HETATM   10  N   UNL     1     -43.429  54.674 -53.875  1.00  0.00     0.005 NA
HETATM   11  N   UNL     1     -43.294  54.374 -52.592  1.00  0.00    -0.161 NA
HETATM   12  C   UNL     1     -42.171  55.003 -52.122  1.00  0.00     0.095 A 
HETATM   13  C   UNL     1     -41.588  55.705 -53.154  1.00  0.00     0.139 A 
BRANCH  12  14
HETATM   14  C   UNL     1     -41.761  54.841 -50.702  1.00  0.00     0.296 C 
BRANCH  14  15
HETATM   15  N   UNL     1     -41.004  53.562 -50.420  1.00  0.00    -0.066 N 
HETATM   16  C   UNL     1     -40.657  53.434 -48.964  1.00  0.00     0.270 C 
HETATM   17  H   UNL     1     -41.652  52.797 -50.651  1.00  0.00     0.280 HD
BRANCH  15  18
HETATM   18  C   UNL     1     -39.809  53.388 -51.334  1.00  0.00     0.273 C 
BRANCH  18  19
HETATM   19  C   UNL     1     -39.863  52.153 -52.190  1.00  0.00    -0.033 A 
HETATM   20  C   UNL     1     -39.610  50.886 -51.640  1.00  0.00     0.009 A 
HETATM   21  C   UNL     1     -39.640  49.749 -52.449  1.00  0.00     0.001 A 
HETATM   22  C   UNL     1     -39.931  49.863 -53.807  1.00  0.00     0.000 A 
HETATM   23  C   UNL     1     -40.196  51.113 -54.360  1.00  0.00     0.001 A 
HETATM   24  C   UNL     1     -40.162  52.254 -53.557  1.00  0.00     0.009 A 
ENDBRANCH  18  19
ENDBRANCH  15  18
ENDBRANCH  14  15
ENDBRANCH  12  14
ENDBRANCH   1   9
BRANCH   4  25
HETATM   25  N   UNL     1     -42.676  58.907 -59.103  1.00  0.00    -0.062 N 
HETATM   26  H   UNL     1     -41.978  58.684 -59.830  1.00  0.00     0.278 HD
HETATM   27  H   UNL     1     -43.558  58.512 -59.461  1.00  0.00     0.278 HD
BRANCH  25  28
HETATM   28  C   UNL     1     -42.813  60.396 -59.090  1.00  0.00     0.273 C 
BRANCH  28  29
HETATM   29  C   UNL     1     -42.122  60.967 -60.268  1.00  0.00    -0.005 A 
HETATM   30  C   UNL     1     -41.043  61.909 -60.241  1.00  0.00    -0.000 A 
HETATM   31  C   UNL     1     -40.707  62.190 -61.565  1.00  0.00     0.043 A 
HETATM   32  C   UNL     1     -40.318  62.548 -59.213  1.00  0.00     0.014 A 
HETATM   33  C   UNL     1     -39.686  63.081 -61.914  1.00  0.00     0.030 A 
HETATM   34  N   UNL     1     -41.531  61.438 -62.369  1.00  0.00    -0.365 N 
HETATM   35  C   UNL     1     -38.987  63.706 -60.879  1.00  0.00     0.002 A 
HETATM   36  C   UNL     1     -39.296  63.444 -59.546  1.00  0.00     0.001 A 
HETATM   37  H   UNL     1     -41.487  61.429 -63.382  1.00  0.00     0.165 HD
HETATM   38  C   UNL     1     -42.402  60.710 -61.598  1.00  0.00     0.098 A 
ENDBRANCH  28  29
ENDBRANCH  25  28
ENDBRANCH   4  25
TORSDOF 8
ENDMDL
MODEL 3
REMARK VINA RESULT:      -8.6      3.009      4.694
REMARK  8 active torsions:
REMARK  status: ('A' for Active; 'I' for Inactive)
REMARK    1  A    between atoms: N_2  and  C_4 
REMARK    2  A    between atoms: N_2  and  C_32 
REMARK    3  A    between atoms: C_4  and  C_5 
REMARK    4  A    between atoms: N_8  and  C_9 
REMARK    5  A    between atoms: C_12  and  N_13 
REMARK    6  A    between atoms: N_13  and  C_16 
REMARK    7  A    between atoms: C_16  and  C_17 
REMARK    8  A    between atoms: C_32  and  C_33 
ROOT
HETATM    1  C   UNL     1     -43.303  57.016 -56.947  1.00  0.00     0.161 C 
HETATM    2  C   UNL     1     -43.060  56.531 -58.368  1.00  0.00     0.179 C 
HETATM    3  C   UNL     1     -42.632  57.793 -59.106  1.00  0.00     0.185 C 
HETATM    4  C   UNL     1     -43.874  58.181 -59.900  1.00  0.00     0.241 C 
HETATM    5  C   UNL     1     -44.478  56.819 -60.192  1.00  0.00     0.204 C 
HETATM    6  O   UNL     1     -44.259  56.048 -58.997  1.00  0.00    -0.379 OA
HETATM    7  O   UNL     1     -42.310  58.801 -58.144  1.00  0.00    -0.379 OA
HETATM    8  C   UNL     1     -42.307  58.165 -56.845  1.00  0.00     0.198 C 
ENDROOT
BRANCH   1   9
HETATM    9  N   UNL     1     -43.181  55.980 -55.954  1.00  0.00    -0.274 N 
HETATM   10  N   UNL     1     -43.037  54.691 -56.297  1.00  0.00     0.005 NA
HETATM   11  N   UNL     1     -42.964  53.976 -55.184  1.00  0.00    -0.161 NA
HETATM   12  C   UNL     1     -43.071  54.833 -54.120  1.00  0.00     0.095 A 
HETATM   13  C   UNL     1     -43.202  56.120 -54.594  1.00  0.00     0.139 A 
BRANCH  12  14
HETATM   14  C   UNL     1     -43.016  54.311 -52.729  1.00  0.00     0.296 C 
BRANCH  14  15
HETATM   15  N   UNL     1     -41.627  54.303 -52.127  1.00  0.00    -0.066 N 
HETATM   16  C   UNL     1     -41.308  55.607 -51.455  1.00  0.00     0.270 C 
HETATM   17  H   UNL     1     -41.643  53.575 -51.400  1.00  0.00     0.280 HD
BRANCH  15  18
HETATM   18  C   UNL     1     -40.572  53.873 -53.125  1.00  0.00     0.273 C 
BRANCH  18  19
HETATM   19  C   UNL     1     -40.216  52.414 -53.055  1.00  0.00    -0.033 A 
HETATM   20  C   UNL     1     -40.278  51.604 -54.200  1.00  0.00     0.009 A 
HETATM   21  C   UNL     1     -39.968  50.245 -54.118  1.00  0.00     0.001 A 
HETATM   22  C   UNL     1     -39.587  49.686 -52.900  1.00  0.00     0.000 A 
HETATM   23  C   UNL     1     -39.510  50.483 -51.760  1.00  0.00     0.001 A 
HETATM   24  C   UNL     1     -39.823  51.840 -51.835  1.00  0.00     0.009 A 
ENDBRANCH  18  19
ENDBRANCH  15  18
ENDBRANCH  14  15
ENDBRANCH  12  14
ENDBRANCH   1   9
BRANCH   4  25
HETATM   25  N   UNL     1     -43.534  58.981 -61.107  1.00  0.00    -0.062 N 
HETATM   26  H   UNL     1     -42.529  58.870 -61.317  1.00  0.00     0.278 HD
HETATM   27  H   UNL     1     -44.015  58.647 -61.954  1.00  0.00     0.278 HD
BRANCH  25  28
HETATM   28  C   UNL     1     -43.782  60.450 -60.986  1.00  0.00     0.273 C 
BRANCH  28  29
HETATM   29  C   UNL     1     -42.622  61.194 -61.525  1.00  0.00    -0.005 A 
HETATM   30  C   UNL     1     -41.568  61.788 -60.757  1.00  0.00    -0.000 A 
HETATM   31  C   UNL     1     -40.696  62.401 -61.657  1.00  0.00     0.043 A 
HETATM   32  C   UNL     1     -41.272  61.859 -59.379  1.00  0.00     0.014 A 
HETATM   33  C   UNL     1     -39.546  63.085 -61.250  1.00  0.00     0.030 A 
HETATM   34  N   UNL     1     -41.184  62.176 -62.923  1.00  0.00    -0.365 N 
HETATM   35  C   UNL     1     -39.278  63.147 -59.881  1.00  0.00     0.002 A 
HETATM   36  C   UNL     1     -40.126  62.542 -58.957  1.00  0.00     0.001 A 
HETATM   37  H   UNL     1     -40.731  62.491 -63.773  1.00  0.00     0.165 HD
HETATM   38  C   UNL     1     -42.356  61.466 -62.854  1.00  0.00     0.098 A 
ENDBRANCH  28  29
ENDBRANCH  25  28
ENDBRANCH   4  25
TORSDOF 8
ENDMDL
MODEL 4
REMARK VINA RESULT:      -8.6      1.391      8.487
REMARK  8 active torsions:
REMARK  status: ('A' for Active; 'I' for Inactive)
REMARK    1  A    between atoms: N_2  and  C_4 
REMARK    2  A    between atoms: N_2  and  C_32 
REMARK    3  A    between atoms: C_4  and  C_5 
REMARK    4  A    between atoms: N_8  and  C_9 
REMARK    5  A    between atoms: C_12  and  N_13 
REMARK    6  A    between atoms: N_13  and  C_16 
REMARK    7  A    between atoms: C_16  and  C_17 
REMARK    8  A    between atoms: C_32  and  C_33 
ROOT
HETATM    1  C   UNL     1     -43.271  59.009 -54.307  1.00  0.00     0.161 C 
HETATM    2  C   UNL     1     -42.308  57.934 -53.827  1.00  0.00     0.179 C 
HETATM    3  C   UNL     1     -43.154  57.097 -52.877  1.00  0.00     0.185 C 
HETATM    4  C   UNL     1     -42.685  57.540 -51.496  1.00  0.00     0.241 C 
HETATM    5  C   UNL     1     -41.226  57.862 -51.766  1.00  0.00     0.204 C 
HETATM    6  O   UNL     1     -41.214  58.475 -53.068  1.00  0.00    -0.379 OA
HETATM    7  O   UNL     1     -44.531  57.428 -53.074  1.00  0.00    -0.379 OA
HETATM    8  C   UNL     1     -44.603  58.269 -54.249  1.00  0.00     0.198 C 
ENDROOT
BRANCH   1   9
HETATM    9  N   UNL     1     -42.915  59.576 -55.582  1.00  0.00    -0.274 N 
HETATM   10  N   UNL     1     -41.647  59.899 -55.879  1.00  0.00     0.005 NA
HETATM   11  N   UNL     1     -41.630  60.406 -57.103  1.00  0.00    -0.161 NA
HETATM   12  C   UNL     1     -42.914  60.407 -57.582  1.00  0.00     0.095 A 
HETATM   13  C   UNL     1     -43.748  59.872 -56.625  1.00  0.00     0.139 A 
BRANCH  12  14
HETATM   14  C   UNL     1     -43.203  60.919 -58.948  1.00  0.00     0.296 C 
BRANCH  14  15
HETATM   15  N   UNL     1     -42.708  60.020 -60.061  1.00  0.00    -0.066 N 
HETATM   16  C   UNL     1     -41.859  60.774 -61.043  1.00  0.00     0.270 C 
HETATM   17  H   UNL     1     -42.107  59.319 -59.607  1.00  0.00     0.280 HD
BRANCH  15  18
HETATM   18  C   UNL     1     -43.832  59.246 -60.717  1.00  0.00     0.273 C 
BRANCH  18  19
HETATM   19  C   UNL     1     -43.900  57.799 -60.314  1.00  0.00    -0.033 A 
HETATM   20  C   UNL     1     -42.742  57.107 -59.926  1.00  0.00     0.009 A 
HETATM   21  C   UNL     1     -42.812  55.757 -59.577  1.00  0.00     0.001 A 
HETATM   22  C   UNL     1     -44.036  55.090 -59.602  1.00  0.00     0.000 A 
HETATM   23  C   UNL     1     -45.193  55.771 -59.973  1.00  0.00     0.001 A 
HETATM   24  C   UNL     1     -45.127  57.118 -60.328  1.00  0.00     0.009 A 
ENDBRANCH  18  19
ENDBRANCH  15  18
ENDBRANCH  14  15
ENDBRANCH  12  14
ENDBRANCH   1   9
BRANCH   4  25
HETATM   25  N   UNL     1     -42.908  56.487 -50.470  1.00  0.00    -0.062 N 
HETATM   26  H   UNL     1     -42.051  56.374 -49.905  1.00  0.00     0.278 HD
HETATM   27  H   UNL     1     -43.636  56.744 -49.788  1.00  0.00     0.278 HD
BRANCH  25  28
HETATM   28  C   UNL     1     -43.241  55.134 -51.010  1.00  0.00     0.273 C 
BRANCH  28  29
HETATM   29  C   UNL     1     -42.058  54.251 -50.899  1.00  0.00    -0.005 A 
HETATM   30  C   UNL     1     -41.433  53.537 -51.972  1.00  0.00    -0.000 A 
HETATM   31  C   UNL     1     -40.370  52.818 -51.426  1.00  0.00     0.043 A 
HETATM   32  C   UNL     1     -41.670  53.436 -53.360  1.00  0.00     0.014 A 
HETATM   33  C   UNL     1     -39.535  52.000 -52.194  1.00  0.00     0.030 A 
HETATM   34  N   UNL     1     -40.333  53.095 -50.079  1.00  0.00    -0.365 N 
HETATM   35  C   UNL     1     -39.793  51.913 -53.564  1.00  0.00     0.002 A 
HETATM   36  C   UNL     1     -40.844  52.620 -54.141  1.00  0.00     0.001 A 
HETATM   37  H   UNL     1     -39.641  52.723 -49.439  1.00  0.00     0.165 HD
HETATM   38  C   UNL     1     -41.359  53.943 -49.747  1.00  0.00     0.098 A 
ENDBRANCH  28  29
ENDBRANCH  25  28
ENDBRANCH   4  25
TORSDOF 8
ENDMDL
MODEL 5
REMARK VINA RESULT:      -8.5      2.346      3.860
REMARK  8 active torsions:
REMARK  status: ('A' for Active; 'I' for Inactive)
REMARK    1  A    between atoms: N_2  and  C_4 
REMARK    2  A    between atoms: N_2  and  C_32 
REMARK    3  A    between atoms: C_4  and  C_5 
REMARK    4  A    between atoms: N_8  and  C_9 
REMARK    5  A    between atoms: C_12  and  N_13 
REMARK    6  A    between atoms: N_13  and  C_16 
REMARK    7  A    between atoms: C_16  and  C_17 
REMARK    8  A    between atoms: C_32  and  C_33 
ROOT
HETATM    1  C   UNL     1     -42.947  56.837 -54.458  1.00  0.00     0.161 C 
HETATM    2  C   UNL     1     -42.197  56.340 -55.685  1.00  0.00     0.179 C 
HETATM    3  C   UNL     1     -41.948  57.611 -56.487  1.00  0.00     0.185 C 
HETATM    4  C   UNL     1     -42.980  57.535 -57.607  1.00  0.00     0.241 C 
HETATM    5  C   UNL     1     -43.080  56.035 -57.819  1.00  0.00     0.204 C 
HETATM    6  O   UNL     1     -42.995  55.465 -56.500  1.00  0.00    -0.379 OA
HETATM    7  O   UNL     1     -42.195  58.741 -55.647  1.00  0.00    -0.379 OA
HETATM    8  C   UNL     1     -42.375  58.241 -54.302  1.00  0.00     0.198 C 
ENDROOT
BRANCH   1   9
HETATM    9  N   UNL     1     -42.822  55.969 -53.316  1.00  0.00    -0.274 N 
HETATM   10  N   UNL     1     -43.488  54.807 -53.238  1.00  0.00     0.005 NA
HETATM   11  N   UNL     1     -43.188  54.240 -52.079  1.00  0.00    -0.161 NA
HETATM   12  C   UNL     1     -42.321  55.065 -51.412  1.00  0.00     0.095 A 
HETATM   13  C   UNL     1     -42.069  56.172 -52.193  1.00  0.00     0.139 A 
BRANCH  12  14
HETATM   14  C   UNL     1     -41.802  54.681 -50.073  1.00  0.00     0.296 C 
BRANCH  14  15
HETATM   15  N   UNL     1     -41.001  53.397 -50.066  1.00  0.00    -0.066 N 
HETATM   16  C   UNL     1     -40.567  53.024 -48.678  1.00  0.00     0.270 C 
HETATM   17  H   UNL     1     -41.645  52.665 -50.396  1.00  0.00     0.280 HD
BRANCH  15  18
HETATM   18  C   UNL     1     -39.859  53.427 -51.060  1.00  0.00     0.273 C 
BRANCH  18  19
HETATM   19  C   UNL     1     -39.898  52.319 -52.076  1.00  0.00    -0.033 A 
HETATM   20  C   UNL     1     -40.324  52.565 -53.391  1.00  0.00     0.009 A 
HETATM   21  C   UNL     1     -40.378  51.523 -54.319  1.00  0.00     0.001 A 
HETATM   22  C   UNL     1     -40.002  50.234 -53.948  1.00  0.00     0.000 A 
HETATM   23  C   UNL     1     -39.566  49.982 -52.650  1.00  0.00     0.001 A 
HETATM   24  C   UNL     1     -39.515  51.017 -51.717  1.00  0.00     0.009 A 
ENDBRANCH  18  19
ENDBRANCH  15  18
ENDBRANCH  14  15
ENDBRANCH  12  14
ENDBRANCH   1   9
BRANCH   4  25
HETATM   25  N   UNL     1     -42.555  58.304 -58.807  1.00  0.00    -0.062 N 
HETATM   26  H   UNL     1     -41.536  58.469 -58.763  1.00  0.00     0.278 HD
HETATM   27  H   UNL     1     -42.697  57.783 -59.684  1.00  0.00     0.278 HD
BRANCH  25  28
HETATM   28  C   UNL     1     -43.195  59.647 -58.961  1.00  0.00     0.273 C 
BRANCH  28  29
HETATM   29  C   UNL     1     -42.166  60.703 -58.834  1.00  0.00    -0.005 A 
HETATM   30  C   UNL     1     -41.522  61.391 -59.913  1.00  0.00    -0.000 A 
HETATM   31  C   UNL     1     -40.615  62.287 -59.349  1.00  0.00     0.043 A 
HETATM   32  C   UNL     1     -41.628  61.336 -61.320  1.00  0.00     0.014 A 
HETATM   33  C   UNL     1     -39.804  63.128 -60.119  1.00  0.00     0.030 A 
HETATM   34  N   UNL     1     -40.712  62.168 -57.983  1.00  0.00    -0.365 N 
HETATM   35  C   UNL     1     -39.923  63.051 -61.508  1.00  0.00     0.002 A 
HETATM   36  C   UNL     1     -40.822  62.169 -62.103  1.00  0.00     0.001 A 
HETATM   37  H   UNL     1     -40.180  62.723 -57.322  1.00  0.00     0.165 HD
HETATM   38  C   UNL     1     -41.631  61.202 -57.660  1.00  0.00     0.098 A 
ENDBRANCH  28  29
ENDBRANCH  25  28
ENDBRANCH   4  25
TORSDOF 8
ENDMDL
MODEL 6
REMARK VINA RESULT:      -8.5      2.254      3.690
REMARK  8 active torsions:
REMARK  status: ('A' for Active; 'I' for Inactive)
REMARK    1  A    between atoms: N_2  and  C_4 
REMARK    2  A    between atoms: N_2  and  C_32 
REMARK    3  A    between atoms: C_4  and  C_5 
REMARK    4  A    between atoms: N_8  and  C_9 
REMARK    5  A    between atoms: C_12  and  N_13 
REMARK    6  A    between atoms: N_13  and  C_16 
REMARK    7  A    between atoms: C_16  and  C_17 
REMARK    8  A    between atoms: C_32  and  C_33 
ROOT
HETATM    1  C   UNL     1     -43.647  57.165 -55.332  1.00  0.00     0.161 C 
HETATM    2  C   UNL     1     -42.604  56.743 -56.356  1.00  0.00     0.179 C 
HETATM    3  C   UNL     1     -42.606  57.890 -57.358  1.00  0.00     0.185 C 
HETATM    4  C   UNL     1     -43.384  57.328 -58.542  1.00  0.00     0.241 C 
HETATM    5  C   UNL     1     -43.017  55.857 -58.469  1.00  0.00     0.204 C 
HETATM    6  O   UNL     1     -42.980  55.550 -57.064  1.00  0.00    -0.379 OA
HETATM    7  O   UNL     1     -43.294  59.003 -56.782  1.00  0.00    -0.379 OA
HETATM    8  C   UNL     1     -43.532  58.684 -55.391  1.00  0.00     0.198 C 
ENDROOT
BRANCH   1   9
HETATM    9  N   UNL     1     -43.460  56.565 -54.037  1.00  0.00    -0.274 N 
HETATM   10  N   UNL     1     -43.236  57.308 -52.942  1.00  0.00     0.005 NA
HETATM   11  N   UNL     1     -43.091  56.488 -51.912  1.00  0.00    -0.161 NA
HETATM   12  C   UNL     1     -43.220  55.202 -52.370  1.00  0.00     0.095 A 
HETATM   13  C   UNL     1     -43.465  55.233 -53.725  1.00  0.00     0.139 A 
BRANCH  12  14
HETATM   14  C   UNL     1     -43.110  54.057 -51.428  1.00  0.00     0.296 C 
BRANCH  14  15
HETATM   15  N   UNL     1     -41.719  53.848 -50.870  1.00  0.00    -0.066 N 
HETATM   16  C   UNL     1     -41.435  54.783 -49.729  1.00  0.00     0.270 C 
HETATM   17  H   UNL     1     -41.710  52.890 -50.494  1.00  0.00     0.280 HD
BRANCH  15  18
HETATM   18  C   UNL     1     -40.656  53.884 -51.948  1.00  0.00     0.273 C 
BRANCH  18  19
HETATM   19  C   UNL     1     -40.316  52.536 -52.522  1.00  0.00    -0.033 A 
HETATM   20  C   UNL     1     -39.778  51.525 -51.710  1.00  0.00     0.009 A 
HETATM   21  C   UNL     1     -39.444  50.286 -52.258  1.00  0.00     0.001 A 
HETATM   22  C   UNL     1     -39.650  50.042 -53.614  1.00  0.00     0.000 A 
HETATM   23  C   UNL     1     -40.194  51.033 -54.427  1.00  0.00     0.001 A 
HETATM   24  C   UNL     1     -40.525  52.276 -53.885  1.00  0.00     0.009 A 
ENDBRANCH  18  19
ENDBRANCH  15  18
ENDBRANCH  14  15
ENDBRANCH  12  14
ENDBRANCH   1   9
BRANCH   4  25
HETATM   25  N   UNL     1     -43.013  57.998 -59.818  1.00  0.00    -0.062 N 
HETATM   26  H   UNL     1     -42.003  58.212 -59.810  1.00  0.00     0.278 HD
HETATM   27  H   UNL     1     -43.142  57.389 -60.639  1.00  0.00     0.278 HD
BRANCH  25  28
HETATM   28  C   UNL     1     -43.719  59.288 -60.087  1.00  0.00     0.273 C 
BRANCH  28  29
HETATM   29  C   UNL     1     -42.796  60.225 -60.765  1.00  0.00    -0.005 A 
HETATM   30  C   UNL     1     -41.817  61.056 -60.129  1.00  0.00    -0.000 A 
HETATM   31  C   UNL     1     -41.183  61.789 -61.132  1.00  0.00     0.043 A 
HETATM   32  C   UNL     1     -41.409  61.253 -58.793  1.00  0.00     0.014 A 
HETATM   33  C   UNL     1     -40.165  62.712 -60.868  1.00  0.00     0.030 A 
HETATM   34  N   UNL     1     -41.735  61.409 -62.333  1.00  0.00    -0.365 N 
HETATM   35  C   UNL     1     -39.783  62.892 -59.536  1.00  0.00     0.002 A 
HETATM   36  C   UNL     1     -40.394  62.174 -58.512  1.00  0.00     0.001 A 
HETATM   37  H   UNL     1     -41.443  61.768 -63.235  1.00  0.00     0.165 HD
HETATM   38  C   UNL     1     -42.723  60.480 -62.122  1.00  0.00     0.098 A 
ENDBRANCH  28  29
ENDBRANCH  25  28
ENDBRANCH   4  25
TORSDOF 8
ENDMDL
MODEL 7
REMARK VINA RESULT:      -8.4      1.560      2.294
REMARK  8 active torsions:
REMARK  status: ('A' for Active; 'I' for Inactive)
REMARK    1  A    between atoms: N_2  and  C_4 
REMARK    2  A    between atoms: N_2  and  C_32 
REMARK    3  A    between atoms: C_4  and  C_5 
REMARK    4  A    between atoms: N_8  and  C_9 
REMARK    5  A    between atoms: C_12  and  N_13 
REMARK    6  A    between atoms: N_13  and  C_16 
REMARK    7  A    between atoms: C_16  and  C_17 
REMARK    8  A    between atoms: C_32  and  C_33 
ROOT
HETATM    1  C   UNL     1     -42.528  56.689 -54.938  1.00  0.00     0.161 C 
HETATM    2  C   UNL     1     -43.064  58.107 -54.811  1.00  0.00     0.179 C 
HETATM    3  C   UNL     1     -43.698  58.370 -56.170  1.00  0.00     0.185 C 
HETATM    4  C   UNL     1     -42.683  59.266 -56.871  1.00  0.00     0.241 C 
HETATM    5  C   UNL     1     -42.104  60.035 -55.696  1.00  0.00     0.204 C 
HETATM    6  O   UNL     1     -42.018  59.075 -54.628  1.00  0.00    -0.379 OA
HETATM    7  O   UNL     1     -43.838  57.126 -56.861  1.00  0.00    -0.379 OA
HETATM    8  C   UNL     1     -43.523  56.076 -55.917  1.00  0.00     0.198 C 
ENDROOT
BRANCH   1   9
HETATM    9  N   UNL     1     -42.382  56.012 -53.675  1.00  0.00    -0.274 N 
HETATM   10  N   UNL     1     -43.287  55.118 -53.247  1.00  0.00     0.005 NA
HETATM   11  N   UNL     1     -42.898  54.677 -52.060  1.00  0.00    -0.161 NA
HETATM   12  C   UNL     1     -41.728  55.311 -51.733  1.00  0.00     0.095 A 
HETATM   13  C   UNL     1     -41.379  56.162 -52.759  1.00  0.00     0.139 A 
BRANCH  12  14
HETATM   14  C   UNL     1     -41.046  55.008 -50.447  1.00  0.00     0.296 C 
BRANCH  14  15
HETATM   15  N   UNL     1     -40.713  53.544 -50.255  1.00  0.00    -0.066 N 
HETATM   16  C   UNL     1     -40.665  53.175 -48.800  1.00  0.00     0.270 C 
HETATM   17  H   UNL     1     -41.492  53.023 -50.680  1.00  0.00     0.280 HD
BRANCH  15  18
HETATM   18  C   UNL     1     -39.470  53.133 -51.015  1.00  0.00     0.273 C 
BRANCH  18  19
HETATM   19  C   UNL     1     -39.716  52.111 -52.090  1.00  0.00    -0.033 A 
HETATM   20  C   UNL     1     -40.207  52.495 -53.348  1.00  0.00     0.009 A 
HETATM   21  C   UNL     1     -40.454  51.535 -54.331  1.00  0.00     0.001 A 
HETATM   22  C   UNL     1     -40.206  50.188 -54.071  1.00  0.00     0.000 A 
HETATM   23  C   UNL     1     -39.706  49.797 -52.832  1.00  0.00     0.001 A 
HETATM   24  C   UNL     1     -39.463  50.752 -51.844  1.00  0.00     0.009 A 
ENDBRANCH  18  19
ENDBRANCH  15  18
ENDBRANCH  14  15
ENDBRANCH  12  14
ENDBRANCH   1   9
BRANCH   4  25
HETATM   25  N   UNL     1     -43.318  60.114 -57.915  1.00  0.00    -0.062 N 
HETATM   26  H   UNL     1     -44.315  59.859 -58.002  1.00  0.00     0.278 HD
HETATM   27  H   UNL     1     -43.327  61.113 -57.665  1.00  0.00     0.278 HD
BRANCH  25  28
HETATM   28  C   UNL     1     -42.728  59.987 -59.282  1.00  0.00     0.273 C 
BRANCH  28  29
HETATM   29  C   UNL     1     -42.798  58.576 -59.723  1.00  0.00    -0.005 A 
HETATM   30  C   UNL     1     -43.993  57.834 -59.998  1.00  0.00    -0.000 A 
HETATM   31  C   UNL     1     -43.605  56.546 -60.365  1.00  0.00     0.043 A 
HETATM   32  C   UNL     1     -45.371  58.140 -59.971  1.00  0.00     0.014 A 
HETATM   33  C   UNL     1     -44.523  55.546 -60.702  1.00  0.00     0.030 A 
HETATM   34  N   UNL     1     -42.231  56.505 -60.336  1.00  0.00    -0.365 N 
HETATM   35  C   UNL     1     -45.881  55.871 -60.662  1.00  0.00     0.002 A 
HETATM   36  C   UNL     1     -46.301  57.149 -60.303  1.00  0.00     0.001 A 
HETATM   37  H   UNL     1     -41.679  55.692 -60.583  1.00  0.00     0.165 HD
HETATM   38  C   UNL     1     -41.734  57.718 -59.931  1.00  0.00     0.098 A 
ENDBRANCH  28  29
ENDBRANCH  25  28
ENDBRANCH   4  25
TORSDOF 8
ENDMDL
MODEL 8
REMARK VINA RESULT:      -8.4      2.499      3.408
REMARK  8 active torsions:
REMARK  status: ('A' for Active; 'I' for Inactive)
REMARK    1  A    between atoms: N_2  and  C_4 
REMARK    2  A    between atoms: N_2  and  C_32 
REMARK    3  A    between atoms: C_4  and  C_5 
REMARK    4  A    between atoms: N_8  and  C_9 
REMARK    5  A    between atoms: C_12  and  N_13 
REMARK    6  A    between atoms: N_13  and  C_16 
REMARK    7  A    between atoms: C_16  and  C_17 
REMARK    8  A    between atoms: C_32  and  C_33 
ROOT
HETATM    1  C   UNL     1     -42.487  56.167 -55.382  1.00  0.00     0.161 C 
HETATM    2  C   UNL     1     -43.737  57.005 -55.605  1.00  0.00     0.179 C 
HETATM    3  C   UNL     1     -43.947  56.933 -57.112  1.00  0.00     0.185 C 
HETATM    4  C   UNL     1     -43.459  58.290 -57.606  1.00  0.00     0.241 C 
HETATM    5  C   UNL     1     -43.816  59.181 -56.430  1.00  0.00     0.204 C 
HETATM    6  O   UNL     1     -43.540  58.387 -55.262  1.00  0.00    -0.379 OA
HETATM    7  O   UNL     1     -43.137  55.880 -57.640  1.00  0.00    -0.379 OA
HETATM    8  C   UNL     1     -42.597  55.151 -56.513  1.00  0.00     0.198 C 
ENDROOT
BRANCH   1   9
HETATM    9  N   UNL     1     -42.385  55.626 -54.051  1.00  0.00    -0.274 N 
HETATM   10  N   UNL     1     -43.297  54.768 -53.569  1.00  0.00     0.005 NA
HETATM   11  N   UNL     1     -42.952  54.457 -52.328  1.00  0.00    -0.161 NA
HETATM   12  C   UNL     1     -41.802  55.138 -52.023  1.00  0.00     0.095 A 
HETATM   13  C   UNL     1     -41.421  55.884 -53.116  1.00  0.00     0.139 A 
BRANCH  12  14
HETATM   14  C   UNL     1     -41.170  54.979 -50.686  1.00  0.00     0.296 C 
BRANCH  14  15
HETATM   15  N   UNL     1     -40.765  53.558 -50.360  1.00  0.00    -0.066 N 
HETATM   16  C   UNL     1     -40.707  53.326 -48.878  1.00  0.00     0.270 C 
HETATM   17  H   UNL     1     -41.514  52.961 -50.737  1.00  0.00     0.280 HD
BRANCH  15  18
HETATM   18  C   UNL     1     -39.498  53.143 -51.078  1.00  0.00     0.273 C 
BRANCH  18  19
HETATM   19  C   UNL     1     -39.691  52.036 -52.078  1.00  0.00    -0.033 A 
HETATM   20  C   UNL     1     -40.082  52.319 -53.396  1.00  0.00     0.009 A 
HETATM   21  C   UNL     1     -40.281  51.282 -54.309  1.00  0.00     0.001 A 
HETATM   22  C   UNL     1     -40.085  49.959 -53.919  1.00  0.00     0.000 A 
HETATM   23  C   UNL     1     -39.685  49.667 -52.617  1.00  0.00     0.001 A 
HETATM   24  C   UNL     1     -39.490  50.699 -51.699  1.00  0.00     0.009 A 
ENDBRANCH  18  19
ENDBRANCH  15  18
ENDBRANCH  14  15
ENDBRANCH  12  14
ENDBRANCH   1   9
BRANCH   4  25
HETATM   25  N   UNL     1     -44.100  58.675 -58.892  1.00  0.00    -0.062 N 
HETATM   26  H   UNL     1     -43.725  59.586 -59.201  1.00  0.00     0.278 HD
HETATM   27  H   UNL     1     -43.871  58.027 -59.660  1.00  0.00     0.278 HD
BRANCH  25  28
HETATM   28  C   UNL     1     -45.586  58.823 -58.843  1.00  0.00     0.273 C 
BRANCH  28  29
HETATM   29  C   UNL     1     -46.212  57.849 -59.766  1.00  0.00    -0.005 A 
HETATM   30  C   UNL     1     -47.286  58.117 -60.676  1.00  0.00    -0.000 A 
HETATM   31  C   UNL     1     -47.575  56.923 -61.336  1.00  0.00     0.043 A 
HETATM   32  C   UNL     1     -48.040  59.265 -61.001  1.00  0.00     0.014 A 
HETATM   33  C   UNL     1     -48.582  56.816 -62.301  1.00  0.00     0.030 A 
HETATM   34  N   UNL     1     -46.703  55.969 -60.866  1.00  0.00    -0.365 N 
HETATM   35  C   UNL     1     -49.317  57.965 -62.602  1.00  0.00     0.002 A 
HETATM   36  C   UNL     1     -49.052  59.173 -61.963  1.00  0.00     0.001 A 
HETATM   37  H   UNL     1     -46.674  55.011 -61.194  1.00  0.00     0.165 HD
HETATM   38  C   UNL     1     -45.888  56.512 -59.904  1.00  0.00     0.098 A 
ENDBRANCH  28  29
ENDBRANCH  25  28
ENDBRANCH   4  25
TORSDOF 8
ENDMDL
MODEL 9
REMARK VINA RESULT:      -8.4      3.079      4.376
REMARK  8 active torsions:
REMARK  status: ('A' for Active; 'I' for Inactive)
REMARK    1  A    between atoms: N_2  and  C_4 
REMARK    2  A    between atoms: N_2  and  C_32 
REMARK    3  A    between atoms: C_4  and  C_5 
REMARK    4  A    between atoms: N_8  and  C_9 
REMARK    5  A    between atoms: C_12  and  N_13 
REMARK    6  A    between atoms: N_13  and  C_16 
REMARK    7  A    between atoms: C_16  and  C_17 
REMARK    8  A    between atoms: C_32  and  C_33 
ROOT
HETATM    1  C   UNL     1     -42.973  58.123 -54.651  1.00  0.00     0.161 C 
HETATM    2  C   UNL     1     -42.732  58.144 -56.153  1.00  0.00     0.179 C 
HETATM    3  C   UNL     1     -42.103  59.510 -56.392  1.00  0.00     0.185 C 
HETATM    4  C   UNL     1     -43.242  60.330 -56.987  1.00  0.00     0.241 C 
HETATM    5  C   UNL     1     -44.013  59.263 -57.744  1.00  0.00     0.204 C 
HETATM    6  O   UNL     1     -43.956  58.095 -56.905  1.00  0.00    -0.379 OA
HETATM    7  O   UNL     1     -41.691  60.054 -55.136  1.00  0.00    -0.379 OA
HETATM    8  C   UNL     1     -41.834  59.005 -54.150  1.00  0.00     0.198 C 
ENDROOT
BRANCH   1   9
HETATM    9  N   UNL     1     -43.038  56.796 -54.095  1.00  0.00    -0.274 N 
HETATM   10  N   UNL     1     -43.201  55.715 -54.874  1.00  0.00     0.005 NA
HETATM   11  N   UNL     1     -43.239  54.648 -54.090  1.00  0.00    -0.161 NA
HETATM   12  C   UNL     1     -43.103  55.067 -52.792  1.00  0.00     0.095 A 
HETATM   13  C   UNL     1     -42.965  56.438 -52.778  1.00  0.00     0.139 A 
BRANCH  12  14
HETATM   14  C   UNL     1     -43.102  54.079 -51.682  1.00  0.00     0.296 C 
BRANCH  14  15
HETATM   15  N   UNL     1     -41.739  53.840 -51.069  1.00  0.00    -0.066 N 
HETATM   16  C   UNL     1     -41.469  54.788 -49.936  1.00  0.00     0.270 C 
HETATM   17  H   UNL     1     -41.773  52.890 -50.675  1.00  0.00     0.280 HD
BRANCH  15  18
HETATM   18  C   UNL     1     -40.637  53.823 -52.108  1.00  0.00     0.273 C 
BRANCH  18  19
HETATM   19  C   UNL     1     -40.271  52.448 -52.594  1.00  0.00    -0.033 A 
HETATM   20  C   UNL     1     -40.430  52.097 -53.943  1.00  0.00     0.009 A 
HETATM   21  C   UNL     1     -40.108  50.810 -54.379  1.00  0.00     0.001 A 
HETATM   22  C   UNL     1     -39.619  49.868 -53.476  1.00  0.00     0.000 A 
HETATM   23  C   UNL     1     -39.445  50.209 -52.137  1.00  0.00     0.001 A 
HETATM   24  C   UNL     1     -39.770  51.492 -51.696  1.00  0.00     0.009 A 
ENDBRANCH  18  19
ENDBRANCH  15  18
ENDBRANCH  14  15
ENDBRANCH  12  14
ENDBRANCH   1   9
BRANCH   4  25
HETATM   25  N   UNL     1     -42.740  61.448 -57.830  1.00  0.00    -0.062 N 
HETATM   26  H   UNL     1     -43.212  61.422 -58.748  1.00  0.00     0.278 HD
HETATM   27  H   UNL     1     -42.975  62.374 -57.444  1.00  0.00     0.278 HD
BRANCH  25  28
HETATM   28  C   UNL     1     -41.271  61.425 -58.107  1.00  0.00     0.273 C 
BRANCH  28  29
HETATM   29  C   UNL     1     -41.034  61.690 -59.543  1.00  0.00    -0.005 A 
HETATM   30  C   UNL     1     -40.094  62.625 -60.087  1.00  0.00    -0.000 A 
HETATM   31  C   UNL     1     -40.210  62.568 -61.475  1.00  0.00     0.043 A 
HETATM   32  C   UNL     1     -39.153  63.515 -59.526  1.00  0.00     0.014 A 
HETATM   33  C   UNL     1     -39.436  63.357 -62.333  1.00  0.00     0.030 A 
HETATM   34  N   UNL     1     -41.165  61.624 -61.771  1.00  0.00    -0.365 N 
HETATM   35  C   UNL     1     -38.516  64.234 -61.754  1.00  0.00     0.002 A 
HETATM   36  C   UNL     1     -38.373  64.313 -60.371  1.00  0.00     0.001 A 
HETATM   37  H   UNL     1     -41.434  61.360 -62.712  1.00  0.00     0.165 HD
HETATM   38  C   UNL     1     -41.683  61.102 -60.613  1.00  0.00     0.098 A 
ENDBRANCH  28  29
ENDBRANCH  25  28
ENDBRANCH   4  25
TORSDOF 8
ENDMDL
MODEL 10
REMARK VINA RESULT:      -8.4      2.685      9.866
REMARK  8 active torsions:
REMARK  status: ('A' for Active; 'I' for Inactive)
REMARK    1  A    between atoms: N_2  and  C_4 
REMARK    2  A    between atoms: N_2  and  C_32 
REMARK    3  A    between atoms: C_4  and  C_5 
REMARK    4  A    between atoms: N_8  and  C_9 
REMARK    5  A    between atoms: C_12  and  N_13 
REMARK    6  A    between atoms: N_13  and  C_16 
REMARK    7  A    between atoms: C_16  and  C_17 
REMARK    8  A    between atoms: C_32  and  C_33 
ROOT
HETATM    1  C   UNL     1     -42.772  56.493 -55.867  1.00  0.00     0.161 C 
HETATM    2  C   UNL     1     -41.766  56.659 -54.738  1.00  0.00     0.179 C 
HETATM    3  C   UNL     1     -41.723  55.279 -54.095  1.00  0.00     0.185 C 
HETATM    4  C   UNL     1     -42.545  55.452 -52.823  1.00  0.00     0.241 C 
HETATM    5  C   UNL     1     -42.252  56.900 -52.473  1.00  0.00     0.204 C 
HETATM    6  O   UNL     1     -42.211  57.589 -53.736  1.00  0.00    -0.379 OA
HETATM    7  O   UNL     1     -42.346  54.341 -54.976  1.00  0.00    -0.379 OA
HETATM    8  C   UNL     1     -42.580  55.025 -56.229  1.00  0.00     0.198 C 
ENDROOT
BRANCH   1   9
HETATM    9  N   UNL     1     -42.598  57.439 -56.938  1.00  0.00    -0.274 N 
HETATM   10  N   UNL     1     -42.452  58.752 -56.701  1.00  0.00     0.005 NA
HETATM   11  N   UNL     1     -42.327  59.368 -57.868  1.00  0.00    -0.161 NA
HETATM   12  C   UNL     1     -42.402  58.423 -58.858  1.00  0.00     0.095 A 
HETATM   13  C   UNL     1     -42.567  57.183 -58.281  1.00  0.00     0.139 A 
BRANCH  12  14
HETATM   14  C   UNL     1     -42.286  58.824 -60.285  1.00  0.00     0.296 C 
BRANCH  14  15
HETATM   15  N   UNL     1     -42.801  60.217 -60.580  1.00  0.00    -0.066 N 
HETATM   16  C   UNL     1     -44.266  60.206 -60.908  1.00  0.00     0.270 C 
HETATM   17  H   UNL     1     -42.684  60.747 -59.706  1.00  0.00     0.280 HD
BRANCH  15  18
HETATM   18  C   UNL     1     -41.962  60.931 -61.618  1.00  0.00     0.273 C 
BRANCH  18  19
HETATM   19  C   UNL     1     -40.957  61.891 -61.043  1.00  0.00    -0.033 A 
HETATM   20  C   UNL     1     -40.866  62.091 -59.657  1.00  0.00     0.009 A 
HETATM   21  C   UNL     1     -39.945  63.002 -59.136  1.00  0.00     0.001 A 
HETATM   22  C   UNL     1     -39.104  63.712 -59.990  1.00  0.00     0.000 A 
HETATM   23  C   UNL     1     -39.177  63.513 -61.367  1.00  0.00     0.001 A 
HETATM   24  C   UNL     1     -40.099  62.607 -61.893  1.00  0.00     0.009 A 
ENDBRANCH  18  19
ENDBRANCH  15  18
ENDBRANCH  14  15
ENDBRANCH  12  14
ENDBRANCH   1   9
BRANCH   4  25
HETATM   25  N   UNL     1     -42.158  54.470 -51.775  1.00  0.00    -0.062 N 
HETATM   26  H   UNL     1     -42.540  54.774 -50.864  1.00  0.00     0.278 HD
HETATM   27  H   UNL     1     -42.570  53.539 -51.930  1.00  0.00     0.278 HD
BRANCH  25  28
HETATM   28  C   UNL     1     -40.687  54.295 -51.580  1.00  0.00     0.273 C 
BRANCH  28  29
HETATM   29  C   UNL     1     -40.378  52.858 -51.405  1.00  0.00    -0.005 A 
HETATM   30  C   UNL     1     -40.093  51.921 -52.451  1.00  0.00    -0.000 A 
HETATM   31  C   UNL     1     -39.878  50.682 -51.849  1.00  0.00     0.043 A 
HETATM   32  C   UNL     1     -39.996  52.011 -53.857  1.00  0.00     0.014 A 
HETATM   33  C   UNL     1     -39.575  49.527 -52.578  1.00  0.00     0.030 A 
HETATM   34  N   UNL     1     -40.005  50.855 -50.491  1.00  0.00    -0.365 N 
HETATM   35  C   UNL     1     -39.491  49.641 -53.968  1.00  0.00     0.002 A 
HETATM   36  C   UNL     1     -39.697  50.864 -54.600  1.00  0.00     0.001 A 
HETATM   37  H   UNL     1     -39.875  50.119 -49.806  1.00  0.00     0.165 HD
HETATM   38  C   UNL     1     -40.326  52.160 -50.213  1.00  0.00     0.098 A 
ENDBRANCH  28  29
ENDBRANCH  25  28
ENDBRANCH   4  25
TORSDOF 8
ENDMDL
