MODEL 1
REMARK VINA RESULT:      -9.6      0.000      0.000
REMARK  3 active torsions:
REMARK  status: ('A' for Active; 'I' for Inactive)
REMARK    1  A    between atoms: C_8  and  C_9 
REMARK       I    between atoms: C_9  and  N_10 
REMARK    2  A    between atoms: N_10  and  N_11 
REMARK    3  A    between atoms: N_11  and  C_12 
ROOT
HETATM    1  C   UNL     1     -41.005  55.633 -54.427  1.00  0.00     0.276 C 
HETATM    2  N   UNL     1     -41.554  55.458 -55.674  1.00  0.00    -0.264 N 
HETATM    3  O   UNL     1     -40.763  56.756 -53.979  1.00  0.00    -0.266 OA
HETATM    4  H   UNL     1     -41.744  54.550 -56.112  1.00  0.00     0.190 HD
ENDROOT
BRANCH   2   5
HETATM    5  N   UNL     1     -41.846  56.606 -56.419  1.00  0.00    -0.275 N 
HETATM    6  H   UNL     1     -41.024  57.187 -56.604  1.00  0.00     0.189 HD
BRANCH   5   7
HETATM    7  C   UNL     1     -42.879  56.647 -57.291  1.00  0.00     0.187 A 
HETATM    8  S   UNL     1     -43.981  57.966 -57.256  1.00  0.00    -0.048 SA
HETATM    9  C   UNL     1     -44.879  57.263 -58.543  1.00  0.00     0.043 A 
HETATM   10  C   UNL     1     -44.272  56.061 -58.917  1.00  0.00     0.115 A 
HETATM   11  C   UNL     1     -46.039  57.742 -59.174  1.00  0.00     0.063 A 
HETATM   12  N   UNL     1     -43.131  55.733 -58.199  1.00  0.00    -0.219 NA
HETATM   13  C   UNL     1     -44.866  55.320 -59.963  1.00  0.00     0.149 A 
HETATM   14  C   UNL     1     -46.019  55.776 -60.600  1.00  0.00     0.087 A 
HETATM   15  F   UNL     1     -44.329  54.158 -60.363  1.00  0.00    -0.203 F 
HETATM   16  C   UNL     1     -46.586  56.973 -60.200  1.00  0.00     0.120 A 
HETATM   17  F   UNL     1     -47.693  57.408 -60.815  1.00  0.00    -0.206 F 
ENDBRANCH   5   7
ENDBRANCH   2   5
BRANCH   1  18
HETATM   18  C   UNL     1     -40.718  54.394 -53.645  1.00  0.00     0.110 A 
HETATM   19  C   UNL     1     -40.704  54.364 -52.166  1.00  0.00     0.304 A 
HETATM   20  O   UNL     1     -40.422  53.147 -51.551  1.00  0.00    -0.274 OA
HETATM   21  O   UNL     1     -40.932  55.368 -51.496  1.00  0.00    -0.259 OA
HETATM   22  C   UNL     1     -40.147  51.990 -52.301  1.00  0.00     0.089 A 
HETATM   23  C   UNL     1     -40.157  52.028 -53.690  1.00  0.00    -0.001 A 
HETATM   24  C   UNL     1     -39.864  50.819 -51.602  1.00  0.00     0.038 A 
HETATM   25  C   UNL     1     -39.875  50.859 -54.400  1.00  0.00     0.014 A 
HETATM   26  C   UNL     1     -40.459  53.283 -54.355  1.00  0.00     0.037 A 
HETATM   27  C   UNL     1     -39.587  49.675 -53.713  1.00  0.00     0.001 A 
HETATM   28  C   UNL     1     -39.583  49.656 -52.316  1.00  0.00     0.003 A 
ENDBRANCH   1  18
TORSDOF 3
ENDMDL
MODEL 2
REMARK VINA RESULT:      -9.4      2.026      2.380
REMARK  3 active torsions:
REMARK  status: ('A' for Active; 'I' for Inactive)
REMARK    1  A    between atoms: C_8  and  C_9 
REMARK       I    between atoms: C_9  and  N_10 
REMARK    2  A    between atoms: N_10  and  N_11 
REMARK    3  A    between atoms: N_11  and  C_12 
ROOT
HETATM    1  C   UNL     1     -41.388  55.644 -53.672  1.00  0.00     0.276 C 
HETATM    2  N   UNL     1     -42.713  55.705 -54.032  1.00  0.00    -0.264 N 
HETATM    3  O   UNL     1     -40.634  56.608 -53.818  1.00  0.00    -0.266 OA
HETATM    4  H   UNL     1     -43.378  54.926 -53.967  1.00  0.00     0.190 HD
ENDROOT
BRANCH   2   5
HETATM    5  N   UNL     1     -43.185  56.911 -54.560  1.00  0.00    -0.275 N 
HETATM    6  H   UNL     1     -43.317  57.638 -53.852  1.00  0.00     0.189 HD
BRANCH   5   7
HETATM    7  C   UNL     1     -42.919  57.285 -55.832  1.00  0.00     0.187 A 
HETATM    8  S   UNL     1     -42.466  58.907 -56.175  1.00  0.00    -0.048 SA
HETATM    9  C   UNL     1     -42.352  58.533 -57.849  1.00  0.00     0.043 A 
HETATM   10  C   UNL     1     -42.668  57.185 -58.036  1.00  0.00     0.115 A 
HETATM   11  C   UNL     1     -42.010  59.375 -58.921  1.00  0.00     0.063 A 
HETATM   12  N   UNL     1     -42.979  56.490 -56.875  1.00  0.00    -0.219 NA
HETATM   13  C   UNL     1     -42.640  56.677 -59.354  1.00  0.00     0.149 A 
HETATM   14  C   UNL     1     -42.307  57.497 -60.432  1.00  0.00     0.087 A 
HETATM   15  F   UNL     1     -42.937  55.392 -59.594  1.00  0.00    -0.203 F 
HETATM   16  C   UNL     1     -41.997  58.826 -60.201  1.00  0.00     0.120 A 
HETATM   17  F   UNL     1     -41.676  59.610 -61.239  1.00  0.00    -0.206 F 
ENDBRANCH   5   7
ENDBRANCH   2   5
BRANCH   1  18
HETATM   18  C   UNL     1     -40.913  54.351 -53.096  1.00  0.00     0.110 A 
HETATM   19  C   UNL     1     -40.612  54.176 -51.659  1.00  0.00     0.304 A 
HETATM   20  O   UNL     1     -40.174  52.921 -51.243  1.00  0.00    -0.274 OA
HETATM   21  O   UNL     1     -40.740  55.094 -50.854  1.00  0.00    -0.259 OA
HETATM   22  C   UNL     1     -40.009  51.861 -52.151  1.00  0.00     0.089 A 
HETATM   23  C   UNL     1     -40.289  52.035 -53.501  1.00  0.00    -0.001 A 
HETATM   24  C   UNL     1     -39.557  50.643 -51.648  1.00  0.00     0.038 A 
HETATM   25  C   UNL     1     -40.110  50.959 -54.373  1.00  0.00     0.014 A 
HETATM   26  C   UNL     1     -40.758  53.331 -53.958  1.00  0.00     0.037 A 
HETATM   27  C   UNL     1     -39.654  49.731 -53.884  1.00  0.00     0.001 A 
HETATM   28  C   UNL     1     -39.378  49.574 -52.523  1.00  0.00     0.003 A 
ENDBRANCH   1  18
TORSDOF 3
ENDMDL
MODEL 3
REMARK VINA RESULT:      -8.8      5.274      6.394
REMARK  3 active torsions:
REMARK  status: ('A' for Active; 'I' for Inactive)
REMARK    1  A    between atoms: C_8  and  C_9 
REMARK       I    between atoms: C_9  and  N_10 
REMARK    2  A    between atoms: N_10  and  N_11 
REMARK    3  A    between atoms: N_11  and  C_12 
ROOT
HETATM    1  C   UNL     1     -41.331  55.589 -53.566  1.00  0.00     0.276 C 
HETATM    2  N   UNL     1     -42.400  56.172 -52.928  1.00  0.00    -0.264 N 
HETATM    3  O   UNL     1     -40.784  56.125 -54.532  1.00  0.00    -0.266 OA
HETATM    4  H   UNL     1     -42.916  55.758 -52.144  1.00  0.00     0.190 HD
ENDROOT
BRANCH   2   5
HETATM    5  N   UNL     1     -42.841  57.410 -53.407  1.00  0.00    -0.275 N 
HETATM    6  H   UNL     1     -43.223  57.364 -54.355  1.00  0.00     0.189 HD
BRANCH   5   7
HETATM    7  C   UNL     1     -43.286  58.379 -52.574  1.00  0.00     0.187 A 
HETATM    8  S   UNL     1     -42.189  59.172 -51.515  1.00  0.00    -0.048 SA
HETATM    9  C   UNL     1     -43.471  60.128 -50.885  1.00  0.00     0.043 A 
HETATM   10  C   UNL     1     -44.659  59.778 -51.532  1.00  0.00     0.115 A 
HETATM   11  C   UNL     1     -43.428  61.117 -49.888  1.00  0.00     0.063 A 
HETATM   12  N   UNL     1     -44.531  58.787 -52.495  1.00  0.00    -0.219 NA
HETATM   13  C   UNL     1     -45.842  60.450 -51.149  1.00  0.00     0.149 A 
HETATM   14  C   UNL     1     -45.821  61.431 -50.160  1.00  0.00     0.087 A 
HETATM   15  F   UNL     1     -47.012  60.153 -51.733  1.00  0.00    -0.203 F 
HETATM   16  C   UNL     1     -44.622  61.750 -49.547  1.00  0.00     0.120 A 
HETATM   17  F   UNL     1     -44.606  62.695 -48.598  1.00  0.00    -0.206 F 
ENDBRANCH   5   7
ENDBRANCH   2   5
BRANCH   1  18
HETATM   18  C   UNL     1     -40.868  54.276 -53.027  1.00  0.00     0.110 A 
HETATM   19  C   UNL     1     -40.579  54.054 -51.593  1.00  0.00     0.304 A 
HETATM   20  O   UNL     1     -40.152  52.784 -51.213  1.00  0.00    -0.274 OA
HETATM   21  O   UNL     1     -40.706  54.948 -50.761  1.00  0.00    -0.259 OA
HETATM   22  C   UNL     1     -39.989  51.751 -52.153  1.00  0.00     0.089 A 
HETATM   23  C   UNL     1     -40.258  51.969 -53.499  1.00  0.00    -0.001 A 
HETATM   24  C   UNL     1     -39.548  50.516 -51.685  1.00  0.00     0.038 A 
HETATM   25  C   UNL     1     -40.080  50.919 -54.402  1.00  0.00     0.014 A 
HETATM   26  C   UNL     1     -40.714  53.282 -53.918  1.00  0.00     0.037 A 
HETATM   27  C   UNL     1     -39.636  49.673 -53.948  1.00  0.00     0.001 A 
HETATM   28  C   UNL     1     -39.371  49.472 -52.591  1.00  0.00     0.003 A 
ENDBRANCH   1  18
TORSDOF 3
ENDMDL
MODEL 4
REMARK VINA RESULT:      -8.7      3.096      3.659
REMARK  3 active torsions:
REMARK  status: ('A' for Active; 'I' for Inactive)
REMARK    1  A    between atoms: C_8  and  C_9 
REMARK       I    between atoms: C_9  and  N_10 
REMARK    2  A    between atoms: N_10  and  N_11 
REMARK    3  A    between atoms: N_11  and  C_12 
ROOT
HETATM    1  C   UNL     1     -42.274  55.999 -53.490  1.00  0.00     0.276 C 
HETATM    2  N   UNL     1     -41.517  57.089 -53.850  1.00  0.00    -0.264 N 
HETATM    3  O   UNL     1     -43.505  56.020 -53.548  1.00  0.00    -0.266 OA
HETATM    4  H   UNL     1     -40.495  57.142 -53.789  1.00  0.00     0.190 HD
ENDROOT
BRANCH   2   5
HETATM    5  N   UNL     1     -42.195  58.225 -54.304  1.00  0.00    -0.275 N 
HETATM    6  H   UNL     1     -42.309  58.943 -53.583  1.00  0.00     0.189 HD
BRANCH   5   7
HETATM    7  C   UNL     1     -42.158  58.608 -55.601  1.00  0.00     0.187 A 
HETATM    8  S   UNL     1     -42.534  57.479 -56.841  1.00  0.00    -0.048 SA
HETATM    9  C   UNL     1     -42.245  58.682 -58.036  1.00  0.00     0.043 A 
HETATM   10  C   UNL     1     -41.881  59.873 -57.404  1.00  0.00     0.115 A 
HETATM   11  C   UNL     1     -42.334  58.575 -59.435  1.00  0.00     0.063 A 
HETATM   12  N   UNL     1     -41.845  59.813 -56.018  1.00  0.00    -0.219 NA
HETATM   13  C   UNL     1     -41.592  60.991 -58.218  1.00  0.00     0.149 A 
HETATM   14  C   UNL     1     -41.671  60.905 -59.608  1.00  0.00     0.087 A 
HETATM   15  F   UNL     1     -41.234  62.160 -57.667  1.00  0.00    -0.203 F 
HETATM   16  C   UNL     1     -42.039  59.707 -60.193  1.00  0.00     0.120 A 
HETATM   17  F   UNL     1     -42.114  59.629 -61.528  1.00  0.00    -0.206 F 
ENDBRANCH   5   7
ENDBRANCH   2   5
BRANCH   1  18
HETATM   18  C   UNL     1     -41.527  54.793 -53.024  1.00  0.00     0.110 A 
HETATM   19  C   UNL     1     -40.888  54.710 -51.693  1.00  0.00     0.304 A 
HETATM   20  O   UNL     1     -40.218  53.531 -51.375  1.00  0.00    -0.274 OA
HETATM   21  O   UNL     1     -40.939  55.637 -50.891  1.00  0.00    -0.259 OA
HETATM   22  C   UNL     1     -40.138  52.462 -52.285  1.00  0.00     0.089 A 
HETATM   23  C   UNL     1     -40.737  52.550 -53.536  1.00  0.00    -0.001 A 
HETATM   24  C   UNL     1     -39.439  51.325 -51.886  1.00  0.00     0.038 A 
HETATM   25  C   UNL     1     -40.632  51.469 -54.413  1.00  0.00     0.014 A 
HETATM   26  C   UNL     1     -41.450  53.765 -53.887  1.00  0.00     0.037 A 
HETATM   27  C   UNL     1     -39.932  50.321 -54.029  1.00  0.00     0.001 A 
HETATM   28  C   UNL     1     -39.337  50.250 -52.767  1.00  0.00     0.003 A 
ENDBRANCH   1  18
TORSDOF 3
ENDMDL
MODEL 5
REMARK VINA RESULT:      -8.6      3.026      3.796
REMARK  3 active torsions:
REMARK  status: ('A' for Active; 'I' for Inactive)
REMARK    1  A    between atoms: C_8  and  C_9 
REMARK       I    between atoms: C_9  and  N_10 
REMARK    2  A    between atoms: N_10  and  N_11 
REMARK    3  A    between atoms: N_11  and  C_12 
ROOT
HETATM    1  C   UNL     1     -41.295  55.754 -53.579  1.00  0.00     0.276 C 
HETATM    2  N   UNL     1     -42.093  55.950 -54.681  1.00  0.00    -0.264 N 
HETATM    3  O   UNL     1     -41.006  56.680 -52.818  1.00  0.00    -0.266 OA
HETATM    4  H   UNL     1     -42.338  55.228 -55.366  1.00  0.00     0.190 HD
ENDROOT
BRANCH   2   5
HETATM    5  N   UNL     1     -42.582  57.242 -54.904  1.00  0.00    -0.275 N 
HETATM    6  H   UNL     1     -42.602  57.818 -54.058  1.00  0.00     0.189 HD
BRANCH   5   7
HETATM    7  C   UNL     1     -42.457  57.854 -56.103  1.00  0.00     0.187 A 
HETATM    8  S   UNL     1     -42.745  56.974 -57.552  1.00  0.00    -0.048 SA
HETATM    9  C   UNL     1     -42.379  58.371 -58.485  1.00  0.00     0.043 A 
HETATM   10  C   UNL     1     -42.061  59.424 -57.623  1.00  0.00     0.115 A 
HETATM   11  C   UNL     1     -42.372  58.522 -59.882  1.00  0.00     0.063 A 
HETATM   12  N   UNL     1     -42.119  59.111 -56.272  1.00  0.00    -0.219 NA
HETATM   13  C   UNL     1     -41.720  60.668 -58.199  1.00  0.00     0.149 A 
HETATM   14  C   UNL     1     -41.704  60.838 -59.582  1.00  0.00     0.087 A 
HETATM   15  F   UNL     1     -41.403  61.713 -57.420  1.00  0.00    -0.203 F 
HETATM   16  C   UNL     1     -42.029  59.769 -60.400  1.00  0.00     0.120 A 
HETATM   17  F   UNL     1     -42.014  59.937 -61.729  1.00  0.00    -0.206 F 
ENDBRANCH   5   7
ENDBRANCH   2   5
BRANCH   1  18
HETATM   18  C   UNL     1     -40.799  54.364 -53.353  1.00  0.00     0.110 A 
HETATM   19  C   UNL     1     -40.267  53.516 -54.441  1.00  0.00     0.304 A 
HETATM   20  O   UNL     1     -39.836  52.235 -54.104  1.00  0.00    -0.274 OA
HETATM   21  O   UNL     1     -40.203  53.915 -55.601  1.00  0.00    -0.259 OA
HETATM   22  C   UNL     1     -39.912  51.756 -52.785  1.00  0.00     0.089 A 
HETATM   23  C   UNL     1     -40.418  52.558 -51.769  1.00  0.00    -0.001 A 
HETATM   24  C   UNL     1     -39.468  50.459 -52.542  1.00  0.00     0.038 A 
HETATM   25  C   UNL     1     -40.482  52.045 -50.472  1.00  0.00     0.014 A 
HETATM   26  C   UNL     1     -40.865  53.901 -52.093  1.00  0.00     0.037 A 
HETATM   27  C   UNL     1     -40.041  50.744 -50.211  1.00  0.00     0.001 A 
HETATM   28  C   UNL     1     -39.535  49.953 -51.245  1.00  0.00     0.003 A 
ENDBRANCH   1  18
TORSDOF 3
ENDMDL
MODEL 6
REMARK VINA RESULT:      -8.6      4.261      5.017
REMARK  3 active torsions:
REMARK  status: ('A' for Active; 'I' for Inactive)
REMARK    1  A    between atoms: C_8  and  C_9 
REMARK       I    between atoms: C_9  and  N_10 
REMARK    2  A    between atoms: N_10  and  N_11 
REMARK    3  A    between atoms: N_11  and  C_12 
ROOT
HETATM    1  C   UNL     1     -41.325  55.367 -50.703  1.00  0.00     0.276 C 
HETATM    2  N   UNL     1     -42.644  55.653 -50.962  1.00  0.00    -0.264 N 
HETATM    3  O   UNL     1     -40.561  56.212 -50.232  1.00  0.00    -0.266 OA
HETATM    4  H   UNL     1     -43.315  55.003 -51.385  1.00  0.00     0.190 HD
ENDROOT
BRANCH   2   5
HETATM    5  N   UNL     1     -43.098  56.940 -50.657  1.00  0.00    -0.275 N 
HETATM    6  H   UNL     1     -42.903  57.220 -49.692  1.00  0.00     0.189 HD
BRANCH   5   7
HETATM    7  C   UNL     1     -43.203  57.902 -51.602  1.00  0.00     0.187 A 
HETATM    8  S   UNL     1     -42.200  59.296 -51.526  1.00  0.00    -0.048 SA
HETATM    9  C   UNL     1     -42.940  59.919 -52.947  1.00  0.00     0.043 A 
HETATM   10  C   UNL     1     -43.909  59.015 -53.389  1.00  0.00     0.115 A 
HETATM   11  C   UNL     1     -42.683  61.126 -53.621  1.00  0.00     0.063 A 
HETATM   12  N   UNL     1     -44.037  57.870 -52.615  1.00  0.00    -0.219 NA
HETATM   13  C   UNL     1     -44.643  59.348 -54.550  1.00  0.00     0.149 A 
HETATM   14  C   UNL     1     -44.405  60.541 -55.230  1.00  0.00     0.087 A 
HETATM   15  F   UNL     1     -45.587  58.519 -55.019  1.00  0.00    -0.203 F 
HETATM   16  C   UNL     1     -43.433  61.408 -54.760  1.00  0.00     0.120 A 
HETATM   17  F   UNL     1     -43.207  62.552 -55.418  1.00  0.00    -0.206 F 
ENDBRANCH   5   7
ENDBRANCH   2   5
BRANCH   1  18
HETATM   18  C   UNL     1     -40.868  53.981 -51.022  1.00  0.00     0.110 A 
HETATM   19  C   UNL     1     -40.484  53.004 -49.981  1.00  0.00     0.304 A 
HETATM   20  O   UNL     1     -40.074  51.743 -50.405  1.00  0.00    -0.274 OA
HETATM   21  O   UNL     1     -40.523  53.282 -48.786  1.00  0.00    -0.259 OA
HETATM   22  C   UNL     1     -40.011  51.409 -51.769  1.00  0.00     0.089 A 
HETATM   23  C   UNL     1     -40.369  52.335 -52.741  1.00  0.00    -0.001 A 
HETATM   24  C   UNL     1     -39.579  50.127 -52.102  1.00  0.00     0.038 A 
HETATM   25  C   UNL     1     -40.290  51.967 -54.086  1.00  0.00     0.014 A 
HETATM   26  C   UNL     1     -40.810  53.654 -52.324  1.00  0.00     0.037 A 
HETATM   27  C   UNL     1     -39.856  50.685 -54.436  1.00  0.00     0.001 A 
HETATM   28  C   UNL     1     -39.501  49.767 -53.445  1.00  0.00     0.003 A 
ENDBRANCH   1  18
TORSDOF 3
ENDMDL
MODEL 7
REMARK VINA RESULT:      -8.6     14.702     16.415
REMARK  3 active torsions:
REMARK  status: ('A' for Active; 'I' for Inactive)
REMARK    1  A    between atoms: C_8  and  C_9 
REMARK       I    between atoms: C_9  and  N_10 
REMARK    2  A    between atoms: N_10  and  N_11 
REMARK    3  A    between atoms: N_11  and  C_12 
ROOT
HETATM    1  C   UNL     1     -35.133  41.502 -52.815  1.00  0.00     0.276 C 
HETATM    2  N   UNL     1     -34.378  41.256 -53.936  1.00  0.00    -0.264 N 
HETATM    3  O   UNL     1     -35.985  42.393 -52.792  1.00  0.00    -0.266 OA
HETATM    4  H   UNL     1     -33.633  40.554 -54.002  1.00  0.00     0.190 HD
ENDROOT
BRANCH   2   5
HETATM    5  N   UNL     1     -34.618  42.047 -55.064  1.00  0.00    -0.275 N 
HETATM    6  H   UNL     1     -33.986  42.848 -55.138  1.00  0.00     0.189 HD
BRANCH   5   7
HETATM    7  C   UNL     1     -35.150  41.532 -56.196  1.00  0.00     0.187 A 
HETATM    8  S   UNL     1     -34.909  39.875 -56.582  1.00  0.00    -0.048 SA
HETATM    9  C   UNL     1     -35.811  40.070 -58.032  1.00  0.00     0.043 A 
HETATM   10  C   UNL     1     -36.241  41.397 -58.125  1.00  0.00     0.115 A 
HETATM   11  C   UNL     1     -36.114  39.117 -59.019  1.00  0.00     0.063 A 
HETATM   12  N   UNL     1     -35.861  42.210 -57.066  1.00  0.00    -0.219 NA
HETATM   13  C   UNL     1     -36.998  41.767 -59.259  1.00  0.00     0.149 A 
HETATM   14  C   UNL     1     -37.307  40.837 -60.250  1.00  0.00     0.087 A 
HETATM   15  F   UNL     1     -37.435  43.027 -59.402  1.00  0.00    -0.203 F 
HETATM   16  C   UNL     1     -36.864  39.532 -60.117  1.00  0.00     0.120 A 
HETATM   17  F   UNL     1     -37.164  38.642 -61.071  1.00  0.00    -0.206 F 
ENDBRANCH   5   7
ENDBRANCH   2   5
BRANCH   1  18
HETATM   18  C   UNL     1     -34.869  40.633 -51.629  1.00  0.00     0.110 A 
HETATM   19  C   UNL     1     -35.878  39.705 -51.074  1.00  0.00     0.304 A 
HETATM   20  O   UNL     1     -35.512  38.949 -49.963  1.00  0.00    -0.274 OA
HETATM   21  O   UNL     1     -36.998  39.597 -51.565  1.00  0.00    -0.259 OA
HETATM   22  C   UNL     1     -34.239  39.067 -49.380  1.00  0.00     0.089 A 
HETATM   23  C   UNL     1     -33.298  39.945 -49.904  1.00  0.00    -0.001 A 
HETATM   24  C   UNL     1     -33.963  38.279 -48.265  1.00  0.00     0.038 A 
HETATM   25  C   UNL     1     -32.045  40.038 -49.294  1.00  0.00     0.014 A 
HETATM   26  C   UNL     1     -33.652  40.738 -51.068  1.00  0.00     0.037 A 
HETATM   27  C   UNL     1     -31.754  39.254 -48.173  1.00  0.00     0.001 A 
HETATM   28  C   UNL     1     -32.711  38.376 -47.660  1.00  0.00     0.003 A 
ENDBRANCH   1  18
TORSDOF 3
ENDMDL
MODEL 8
REMARK VINA RESULT:      -8.6      4.472      9.176
REMARK  3 active torsions:
REMARK  status: ('A' for Active; 'I' for Inactive)
REMARK    1  A    between atoms: C_8  and  C_9 
REMARK       I    between atoms: C_9  and  N_10 
REMARK    2  A    between atoms: N_10  and  N_11 
REMARK    3  A    between atoms: N_11  and  C_12 
ROOT
HETATM    1  C   UNL     1     -42.746  57.139 -57.379  1.00  0.00     0.276 C 
HETATM    2  N   UNL     1     -41.873  56.390 -56.626  1.00  0.00    -0.264 N 
HETATM    3  O   UNL     1     -43.859  56.712 -57.693  1.00  0.00    -0.266 OA
HETATM    4  H   UNL     1     -40.924  56.678 -56.365  1.00  0.00     0.190 HD
ENDROOT
BRANCH   2   5
HETATM    5  N   UNL     1     -42.298  55.123 -56.213  1.00  0.00    -0.275 N 
HETATM    6  H   UNL     1     -42.541  54.505 -56.992  1.00  0.00     0.189 HD
BRANCH   5   7
HETATM    7  C   UNL     1     -41.873  54.571 -55.054  1.00  0.00     0.187 A 
HETATM    8  S   UNL     1     -42.420  55.200 -53.551  1.00  0.00    -0.048 SA
HETATM    9  C   UNL     1     -41.470  54.042 -52.708  1.00  0.00     0.043 A 
HETATM   10  C   UNL     1     -40.795  53.245 -53.637  1.00  0.00     0.115 A 
HETATM   11  C   UNL     1     -41.330  53.855 -51.322  1.00  0.00     0.063 A 
HETATM   12  N   UNL     1     -41.045  53.557 -54.966  1.00  0.00    -0.219 NA
HETATM   13  C   UNL     1     -39.947  52.229 -53.142  1.00  0.00     0.149 A 
HETATM   14  C   UNL     1     -39.792  52.029 -51.771  1.00  0.00     0.087 A 
HETATM   15  F   UNL     1     -39.273  51.435 -53.987  1.00  0.00    -0.203 F 
HETATM   16  C   UNL     1     -40.482  52.839 -50.886  1.00  0.00     0.120 A 
HETATM   17  F   UNL     1     -40.331  52.642 -49.570  1.00  0.00    -0.206 F 
ENDBRANCH   5   7
ENDBRANCH   2   5
BRANCH   1  18
HETATM   18  C   UNL     1     -42.276  58.494 -57.794  1.00  0.00     0.110 A 
HETATM   19  C   UNL     1     -41.825  59.518 -56.826  1.00  0.00     0.304 A 
HETATM   20  O   UNL     1     -41.411  60.745 -57.337  1.00  0.00    -0.274 OA
HETATM   21  O   UNL     1     -41.813  59.305 -55.617  1.00  0.00    -0.259 OA
HETATM   22  C   UNL     1     -41.430  61.013 -58.716  1.00  0.00     0.089 A 
HETATM   23  C   UNL     1     -41.859  60.047 -59.619  1.00  0.00    -0.001 A 
HETATM   24  C   UNL     1     -41.007  62.271 -59.137  1.00  0.00     0.038 A 
HETATM   25  C   UNL     1     -41.868  60.351 -60.982  1.00  0.00     0.014 A 
HETATM   26  C   UNL     1     -42.287  58.755 -59.112  1.00  0.00     0.037 A 
HETATM   27  C   UNL     1     -41.448  61.612 -61.419  1.00  0.00     0.001 A 
HETATM   28  C   UNL     1     -41.019  62.570 -60.498  1.00  0.00     0.003 A 
ENDBRANCH   1  18
TORSDOF 3
ENDMDL
MODEL 9
REMARK VINA RESULT:      -8.5      5.126      6.087
REMARK  3 active torsions:
REMARK  status: ('A' for Active; 'I' for Inactive)
REMARK    1  A    between atoms: C_8  and  C_9 
REMARK       I    between atoms: C_9  and  N_10 
REMARK    2  A    between atoms: N_10  and  N_11 
REMARK    3  A    between atoms: N_11  and  C_12 
ROOT
HETATM    1  C   UNL     1     -41.518  55.643 -53.751  1.00  0.00     0.276 C 
HETATM    2  N   UNL     1     -41.101  56.806 -53.149  1.00  0.00    -0.264 N 
HETATM    3  O   UNL     1     -42.271  55.654 -54.727  1.00  0.00    -0.266 OA
HETATM    4  H   UNL     1     -40.505  56.856 -52.316  1.00  0.00     0.190 HD
ENDROOT
BRANCH   2   5
HETATM    5  N   UNL     1     -41.552  58.013 -53.694  1.00  0.00    -0.275 N 
HETATM    6  H   UNL     1     -41.539  58.025 -54.717  1.00  0.00     0.189 HD
BRANCH   5   7
HETATM    7  C   UNL     1     -42.443  58.798 -53.047  1.00  0.00     0.187 A 
HETATM    8  S   UNL     1     -44.129  58.574 -53.300  1.00  0.00    -0.048 SA
HETATM    9  C   UNL     1     -44.473  59.866 -52.219  1.00  0.00     0.043 A 
HETATM   10  C   UNL     1     -43.270  60.385 -51.732  1.00  0.00     0.115 A 
HETATM   11  C   UNL     1     -45.721  60.385 -51.833  1.00  0.00     0.063 A 
HETATM   12  N   UNL     1     -42.127  59.757 -52.208  1.00  0.00    -0.219 NA
HETATM   13  C   UNL     1     -43.337  61.468 -50.828  1.00  0.00     0.149 A 
HETATM   14  C   UNL     1     -44.564  61.999 -50.434  1.00  0.00     0.087 A 
HETATM   15  F   UNL     1     -42.215  62.008 -50.330  1.00  0.00    -0.203 F 
HETATM   16  C   UNL     1     -45.732  61.454 -50.939  1.00  0.00     0.120 A 
HETATM   17  F   UNL     1     -46.909  61.967 -50.557  1.00  0.00    -0.206 F 
ENDBRANCH   5   7
ENDBRANCH   2   5
BRANCH   1  18
HETATM   18  C   UNL     1     -41.010  54.368 -53.162  1.00  0.00     0.110 A 
HETATM   19  C   UNL     1     -40.695  54.218 -51.725  1.00  0.00     0.304 A 
HETATM   20  O   UNL     1     -40.227  52.978 -51.296  1.00  0.00    -0.274 OA
HETATM   21  O   UNL     1     -40.836  55.144 -50.931  1.00  0.00    -0.259 OA
HETATM   22  C   UNL     1     -40.048  51.910 -52.192  1.00  0.00     0.089 A 
HETATM   23  C   UNL     1     -40.342  52.060 -53.542  1.00  0.00    -0.001 A 
HETATM   24  C   UNL     1     -39.566  50.709 -51.677  1.00  0.00     0.038 A 
HETATM   25  C   UNL     1     -40.146  50.976 -54.401  1.00  0.00     0.014 A 
HETATM   26  C   UNL     1     -40.841  53.340 -54.012  1.00  0.00     0.037 A 
HETATM   27  C   UNL     1     -39.661  49.765 -53.899  1.00  0.00     0.001 A 
HETATM   28  C   UNL     1     -39.372  49.632 -52.539  1.00  0.00     0.003 A 
ENDBRANCH   1  18
TORSDOF 3
ENDMDL
MODEL 10
REMARK VINA RESULT:      -8.5      1.991      2.844
REMARK  3 active torsions:
REMARK  status: ('A' for Active; 'I' for Inactive)
REMARK    1  A    between atoms: C_8  and  C_9 
REMARK       I    between atoms: C_9  and  N_10 
REMARK    2  A    between atoms: N_10  and  N_11 
REMARK    3  A    between atoms: N_11  and  C_12 
ROOT
HETATM    1  C   UNL     1     -42.590  54.864 -55.470  1.00  0.00     0.276 C 
HETATM    2  N   UNL     1     -42.110  55.783 -56.372  1.00  0.00    -0.264 N 
HETATM    3  O   UNL     1     -43.334  53.944 -55.818  1.00  0.00    -0.266 OA
HETATM    4  H   UNL     1     -41.518  56.587 -56.135  1.00  0.00     0.190 HD
ENDROOT
BRANCH   2   5
HETATM    5  N   UNL     1     -42.485  55.632 -57.711  1.00  0.00    -0.275 N 
HETATM    6  H   UNL     1     -42.235  54.719 -58.100  1.00  0.00     0.189 HD
BRANCH   5   7
HETATM    7  C   UNL     1     -43.543  56.293 -58.234  1.00  0.00     0.187 A 
HETATM    8  S   UNL     1     -44.045  57.789 -57.551  1.00  0.00    -0.048 SA
HETATM    9  C   UNL     1     -45.322  57.896 -58.698  1.00  0.00     0.043 A 
HETATM   10  C   UNL     1     -45.278  56.776 -59.533  1.00  0.00     0.115 A 
HETATM   11  C   UNL     1     -46.294  58.899 -58.845  1.00  0.00     0.063 A 
HETATM   12  N   UNL     1     -44.253  55.881 -59.258  1.00  0.00    -0.219 NA
HETATM   13  C   UNL     1     -46.256  56.670 -60.547  1.00  0.00     0.149 A 
HETATM   14  C   UNL     1     -47.231  57.653 -60.708  1.00  0.00     0.087 A 
HETATM   15  F   UNL     1     -46.264  55.616 -61.376  1.00  0.00    -0.203 F 
HETATM   16  C   UNL     1     -47.236  58.748 -59.861  1.00  0.00     0.120 A 
HETATM   17  F   UNL     1     -48.174  59.690 -60.020  1.00  0.00    -0.206 F 
ENDBRANCH   5   7
ENDBRANCH   2   5
BRANCH   1  18
HETATM   18  C   UNL     1     -42.163  55.037 -54.049  1.00  0.00     0.110 A 
HETATM   19  C   UNL     1     -42.459  56.255 -53.265  1.00  0.00     0.304 A 
HETATM   20  O   UNL     1     -42.006  56.297 -51.949  1.00  0.00    -0.274 OA
HETATM   21  O   UNL     1     -43.080  57.199 -53.746  1.00  0.00    -0.259 OA
HETATM   22  C   UNL     1     -41.283  55.232 -51.385  1.00  0.00     0.089 A 
HETATM   23  C   UNL     1     -41.004  54.093 -52.130  1.00  0.00    -0.001 A 
HETATM   24  C   UNL     1     -40.860  55.365 -50.065  1.00  0.00     0.038 A 
HETATM   25  C   UNL     1     -40.280  53.057 -51.536  1.00  0.00     0.014 A 
HETATM   26  C   UNL     1     -41.475  54.020 -53.502  1.00  0.00     0.037 A 
HETATM   27  C   UNL     1     -39.847  53.177 -50.212  1.00  0.00     0.001 A 
HETATM   28  C   UNL     1     -40.137  54.329 -49.478  1.00  0.00     0.003 A 
ENDBRANCH   1  18
TORSDOF 3
ENDMDL
