MODEL 1
REMARK VINA RESULT:      -8.2      0.000      0.000
REMARK  11 active torsions:
REMARK  status: ('A' for Active; 'I' for Inactive)
REMARK    1  A    between atoms: C_3  and  O_4 
REMARK    2  A    between atoms: O_4  and  C_5 
REMARK    3  A    between atoms: C_10  and  C_11 
REMARK    4  A    between atoms: C_11  and  C_12 
REMARK    5  A    between atoms: C_13  and  C_14 
REMARK    6  A    between atoms: C_17  and  O_18 
REMARK    7  A    between atoms: N_21  and  C_22 
REMARK    8  A    between atoms: C_22  and  C_23 
REMARK    9  A    between atoms: C_23  and  C_24 
REMARK   10  A    between atoms: C_24  and  N_25 
REMARK   11  A    between atoms: C_34  and  O_35 
ROOT
HETATM    1  C   UNL     1     -43.694  57.530 -51.944  1.00  0.00     0.059 A 
HETATM    2  C   UNL     1     -43.899  57.297 -53.420  1.00  0.00     0.161 A 
HETATM    3  N   UNL     1     -43.848  58.662 -53.921  1.00  0.00    -0.333 N 
HETATM    4  C   UNL     1     -43.501  59.556 -52.940  1.00  0.00     0.278 A 
HETATM    5  O   UNL     1     -43.380  60.762 -53.097  1.00  0.00    -0.265 OA
HETATM    6  C   UNL     1     -43.464  58.821 -51.652  1.00  0.00     0.146 A 
ENDROOT
BRANCH   1   7
HETATM    7  C   UNL     1     -43.945  56.377 -51.049  1.00  0.00     0.193 C 
HETATM    8  O   UNL     1     -44.915  56.397 -50.299  1.00  0.00    -0.287 OA
BRANCH   7   9
HETATM    9  C   UNL     1     -42.979  55.261 -50.974  1.00  0.00     0.015 A 
HETATM   10  C   UNL     1     -43.170  54.059 -51.663  1.00  0.00     0.018 A 
HETATM   11  C   UNL     1     -42.159  53.096 -51.661  1.00  0.00     0.038 A 
HETATM   12  C   UNL     1     -40.970  53.328 -50.963  1.00  0.00     0.075 A 
HETATM   13  C   UNL     1     -40.814  54.485 -50.186  1.00  0.00    -0.028 A 
HETATM   14  C   UNL     1     -39.593  54.688 -49.332  1.00  0.00     0.051 C 
HETATM   15  C   UNL     1     -41.828  55.450 -50.199  1.00  0.00     0.025 A 
BRANCH  12  16
HETATM   16  O   UNL     1     -39.935  52.433 -50.970  1.00  0.00    -0.346 OA
BRANCH  16  17
HETATM   17  C   UNL     1     -40.087  51.324 -51.874  1.00  0.00     0.121 C 
HETATM   18  C   UNL     1     -39.338  51.549 -53.191  1.00  0.00     0.040 C 
HETATM   19  C   UNL     1     -39.505  50.106 -51.161  1.00  0.00     0.040 C 
ENDBRANCH  16  17
ENDBRANCH  12  16
ENDBRANCH   7   9
ENDBRANCH   1   7
BRANCH   2  20
HETATM   20  C   UNL     1     -42.848  56.403 -54.054  1.00  0.00    -0.030 A 
HETATM   21  C   UNL     1     -43.254  55.360 -54.904  1.00  0.00     0.012 A 
HETATM   22  C   UNL     1     -42.318  54.519 -55.511  1.00  0.00     0.037 A 
HETATM   23  C   UNL     1     -40.965  54.716 -55.266  1.00  0.00     0.065 A 
HETATM   24  C   UNL     1     -40.537  55.728 -54.418  1.00  0.00     0.037 A 
HETATM   25  C   UNL     1     -41.473  56.565 -53.806  1.00  0.00     0.012 A 
BRANCH  23  26
HETATM   26  O   UNL     1     -40.013  53.928 -55.841  1.00  0.00    -0.361 OA
HETATM   27  H   UNL     1     -39.992  54.102 -56.797  1.00  0.00     0.217 HD
ENDBRANCH  23  26
ENDBRANCH   2  20
BRANCH   6  28
HETATM   28  O   UNL     1     -43.377  59.483 -50.464  1.00  0.00    -0.355 OA
HETATM   29  H   UNL     1     -42.828  60.280 -50.544  1.00  0.00     0.218 HD
ENDBRANCH   6  28
BRANCH   3  30
HETATM   30  C   UNL     1     -44.192  59.027 -55.283  1.00  0.00     0.129 C 
BRANCH  30  31
HETATM   31  C   UNL     1     -45.290  58.152 -55.901  1.00  0.00     0.048 C 
BRANCH  31  32
HETATM   32  C   UNL     1     -45.521  58.262 -57.412  1.00  0.00     0.236 C 
BRANCH  32  33
HETATM   33  N   UNL     1     -45.065  57.063 -58.195  1.00  0.00    -0.067 N 
HETATM   34  H   UNL     1     -45.271  56.225 -57.611  1.00  0.00     0.280 HD
HETATM   35  C   UNL     1     -45.707  56.895 -59.560  1.00  0.00     0.261 C 
HETATM   36  C   UNL     1     -45.179  55.621 -60.229  1.00  0.00     0.195 C 
HETATM   37  O   UNL     1     -43.753  55.646 -60.337  1.00  0.00    -0.388 OA
HETATM   38  C   UNL     1     -43.133  55.725 -59.047  1.00  0.00     0.195 C 
HETATM   39  C   UNL     1     -43.541  57.017 -58.328  1.00  0.00     0.261 C 
ENDBRANCH  32  33
ENDBRANCH  31  32
ENDBRANCH  30  31
ENDBRANCH   3  30
TORSDOF 11
ENDMDL
MODEL 2
REMARK VINA RESULT:      -8.0      1.936      3.063
REMARK  11 active torsions:
REMARK  status: ('A' for Active; 'I' for Inactive)
REMARK    1  A    between atoms: C_3  and  O_4 
REMARK    2  A    between atoms: O_4  and  C_5 
REMARK    3  A    between atoms: C_10  and  C_11 
REMARK    4  A    between atoms: C_11  and  C_12 
REMARK    5  A    between atoms: C_13  and  C_14 
REMARK    6  A    between atoms: C_17  and  O_18 
REMARK    7  A    between atoms: N_21  and  C_22 
REMARK    8  A    between atoms: C_22  and  C_23 
REMARK    9  A    between atoms: C_23  and  C_24 
REMARK   10  A    between atoms: C_24  and  N_25 
REMARK   11  A    between atoms: C_34  and  O_35 
ROOT
HETATM    1  C   UNL     1     -44.444  57.837 -51.621  1.00  0.00     0.059 A 
HETATM    2  C   UNL     1     -43.579  58.380 -52.731  1.00  0.00     0.161 A 
HETATM    3  N   UNL     1     -44.333  59.565 -53.110  1.00  0.00    -0.333 N 
HETATM    4  C   UNL     1     -45.387  59.795 -52.261  1.00  0.00     0.278 A 
HETATM    5  O   UNL     1     -46.172  60.727 -52.351  1.00  0.00    -0.265 OA
HETATM    6  C   UNL     1     -45.485  58.638 -51.339  1.00  0.00     0.146 A 
ENDROOT
BRANCH   1   7
HETATM    7  C   UNL     1     -44.134  56.469 -51.147  1.00  0.00     0.193 C 
HETATM    8  O   UNL     1     -44.757  56.004 -50.199  1.00  0.00    -0.287 OA
BRANCH   7   9
HETATM    9  C   UNL     1     -43.010  55.707 -51.733  1.00  0.00     0.015 A 
HETATM   10  C   UNL     1     -41.829  55.456 -51.027  1.00  0.00     0.018 A 
HETATM   11  C   UNL     1     -40.860  54.617 -51.582  1.00  0.00     0.038 A 
HETATM   12  C   UNL     1     -41.066  54.044 -52.841  1.00  0.00     0.075 A 
HETATM   13  C   UNL     1     -42.201  54.374 -53.597  1.00  0.00    -0.028 A 
HETATM   14  C   UNL     1     -42.372  53.863 -55.001  1.00  0.00     0.051 C 
HETATM   15  C   UNL     1     -43.171  55.209 -53.031  1.00  0.00     0.025 A 
BRANCH  12  16
HETATM   16  O   UNL     1     -40.166  53.181 -53.404  1.00  0.00    -0.346 OA
BRANCH  16  17
HETATM   17  C   UNL     1     -40.308  51.803 -53.014  1.00  0.00     0.121 C 
HETATM   18  C   UNL     1     -40.120  50.848 -54.197  1.00  0.00     0.040 C 
HETATM   19  C   UNL     1     -39.226  51.538 -51.970  1.00  0.00     0.040 C 
ENDBRANCH  16  17
ENDBRANCH  12  16
ENDBRANCH   7   9
ENDBRANCH   1   7
BRANCH   2  20
HETATM   20  C   UNL     1     -42.159  58.704 -52.302  1.00  0.00    -0.030 A 
HETATM   21  C   UNL     1     -41.096  58.441 -53.184  1.00  0.00     0.012 A 
HETATM   22  C   UNL     1     -39.776  58.730 -52.828  1.00  0.00     0.037 A 
HETATM   23  C   UNL     1     -39.511  59.283 -51.582  1.00  0.00     0.065 A 
HETATM   24  C   UNL     1     -40.540  59.539 -50.685  1.00  0.00     0.037 A 
HETATM   25  C   UNL     1     -41.859  59.244 -51.037  1.00  0.00     0.012 A 
BRANCH  23  26
HETATM   26  O   UNL     1     -38.242  59.592 -51.193  1.00  0.00    -0.361 OA
HETATM   27  H   UNL     1     -37.704  59.776 -51.981  1.00  0.00     0.217 HD
ENDBRANCH  23  26
ENDBRANCH   2  20
BRANCH   6  28
HETATM   28  O   UNL     1     -46.572  58.466 -50.536  1.00  0.00    -0.355 OA
HETATM   29  H   UNL     1     -46.941  59.320 -50.256  1.00  0.00     0.218 HD
ENDBRANCH   6  28
BRANCH   3  30
HETATM   30  C   UNL     1     -44.035  60.360 -54.287  1.00  0.00     0.129 C 
BRANCH  30  31
HETATM   31  C   UNL     1     -43.969  59.544 -55.585  1.00  0.00     0.048 C 
BRANCH  31  32
HETATM   32  C   UNL     1     -45.156  58.633 -55.914  1.00  0.00     0.236 C 
BRANCH  32  33
HETATM   33  N   UNL     1     -44.862  57.588 -56.954  1.00  0.00    -0.067 N 
HETATM   34  H   UNL     1     -45.376  56.727 -56.669  1.00  0.00     0.280 HD
HETATM   35  C   UNL     1     -45.247  57.957 -58.374  1.00  0.00     0.261 C 
HETATM   36  C   UNL     1     -44.925  56.794 -59.319  1.00  0.00     0.195 C 
HETATM   37  O   UNL     1     -43.543  56.433 -59.244  1.00  0.00    -0.388 OA
HETATM   38  C   UNL     1     -43.186  56.006 -57.923  1.00  0.00     0.195 C 
HETATM   39  C   UNL     1     -43.400  57.139 -56.911  1.00  0.00     0.261 C 
ENDBRANCH  32  33
ENDBRANCH  31  32
ENDBRANCH  30  31
ENDBRANCH   3  30
TORSDOF 11
ENDMDL
MODEL 3
REMARK VINA RESULT:      -7.8      2.117      3.074
REMARK  11 active torsions:
REMARK  status: ('A' for Active; 'I' for Inactive)
REMARK    1  A    between atoms: C_3  and  O_4 
REMARK    2  A    between atoms: O_4  and  C_5 
REMARK    3  A    between atoms: C_10  and  C_11 
REMARK    4  A    between atoms: C_11  and  C_12 
REMARK    5  A    between atoms: C_13  and  C_14 
REMARK    6  A    between atoms: C_17  and  O_18 
REMARK    7  A    between atoms: N_21  and  C_22 
REMARK    8  A    between atoms: C_22  and  C_23 
REMARK    9  A    between atoms: C_23  and  C_24 
REMARK   10  A    between atoms: C_24  and  N_25 
REMARK   11  A    between atoms: C_34  and  O_35 
ROOT
HETATM    1  C   UNL     1     -44.311  58.774 -52.067  1.00  0.00     0.059 A 
HETATM    2  C   UNL     1     -43.147  59.044 -52.987  1.00  0.00     0.161 A 
HETATM    3  N   UNL     1     -43.567  60.296 -53.598  1.00  0.00    -0.333 N 
HETATM    4  C   UNL     1     -44.711  60.789 -53.022  1.00  0.00     0.278 A 
HETATM    5  O   UNL     1     -45.268  61.828 -53.343  1.00  0.00    -0.265 OA
HETATM    6  C   UNL     1     -45.217  59.766 -52.075  1.00  0.00     0.146 A 
ENDROOT
BRANCH   1   7
HETATM    7  C   UNL     1     -44.372  57.428 -51.451  1.00  0.00     0.193 C 
HETATM    8  O   UNL     1     -45.218  57.196 -50.594  1.00  0.00    -0.287 OA
BRANCH   7   9
HETATM    9  C   UNL     1     -43.357  56.405 -51.779  1.00  0.00     0.015 A 
HETATM   10  C   UNL     1     -43.305  55.777 -53.028  1.00  0.00     0.018 A 
HETATM   11  C   UNL     1     -42.242  54.920 -53.324  1.00  0.00     0.038 A 
HETATM   12  C   UNL     1     -41.246  54.684 -52.372  1.00  0.00     0.075 A 
HETATM   13  C   UNL     1     -41.346  55.230 -51.084  1.00  0.00    -0.028 A 
HETATM   14  C   UNL     1     -40.348  54.882 -50.015  1.00  0.00     0.051 C 
HETATM   15  C   UNL     1     -42.409  56.094 -50.797  1.00  0.00     0.025 A 
BRANCH  12  16
HETATM   16  O   UNL     1     -40.163  53.889 -52.634  1.00  0.00    -0.346 OA
BRANCH  16  17
HETATM   17  C   UNL     1     -40.456  52.492 -52.816  1.00  0.00     0.121 C 
HETATM   18  C   UNL     1     -40.227  52.039 -54.261  1.00  0.00     0.040 C 
HETATM   19  C   UNL     1     -39.511  51.730 -51.889  1.00  0.00     0.040 C 
ENDBRANCH  16  17
ENDBRANCH  12  16
ENDBRANCH   7   9
ENDBRANCH   1   7
BRANCH   2  20
HETATM   20  C   UNL     1     -41.813  59.161 -52.273  1.00  0.00    -0.030 A 
HETATM   21  C   UNL     1     -40.644  58.724 -52.921  1.00  0.00     0.012 A 
HETATM   22  C   UNL     1     -39.396  58.820 -52.300  1.00  0.00     0.037 A 
HETATM   23  C   UNL     1     -39.311  59.353 -51.020  1.00  0.00     0.065 A 
HETATM   24  C   UNL     1     -40.451  59.779 -50.351  1.00  0.00     0.037 A 
HETATM   25  C   UNL     1     -41.699  59.676 -50.969  1.00  0.00     0.012 A 
BRANCH  23  26
HETATM   26  O   UNL     1     -38.117  59.477 -50.377  1.00  0.00    -0.361 OA
HETATM   27  H   UNL     1     -37.471  58.876 -50.786  1.00  0.00     0.217 HD
ENDBRANCH  23  26
ENDBRANCH   2  20
BRANCH   6  28
HETATM   28  O   UNL     1     -46.459  59.867 -51.525  1.00  0.00    -0.355 OA
HETATM   29  H   UNL     1     -46.453  59.606 -50.589  1.00  0.00     0.218 HD
ENDBRANCH   6  28
BRANCH   3  30
HETATM   30  C   UNL     1     -42.886  60.903 -54.727  1.00  0.00     0.129 C 
BRANCH  30  31
HETATM   31  C   UNL     1     -42.702  59.958 -55.921  1.00  0.00     0.048 C 
BRANCH  31  32
HETATM   32  C   UNL     1     -43.957  59.538 -56.695  1.00  0.00     0.236 C 
BRANCH  32  33
HETATM   33  N   UNL     1     -43.960  58.099 -57.130  1.00  0.00    -0.067 N 
HETATM   34  H   UNL     1     -44.786  57.650 -56.681  1.00  0.00     0.280 HD
HETATM   35  C   UNL     1     -44.019  57.873 -58.630  1.00  0.00     0.261 C 
HETATM   36  C   UNL     1     -44.052  56.370 -58.928  1.00  0.00     0.195 C 
HETATM   37  O   UNL     1     -42.922  55.705 -58.357  1.00  0.00    -0.388 OA
HETATM   38  C   UNL     1     -42.899  55.844 -56.931  1.00  0.00     0.195 C 
HETATM   39  C   UNL     1     -42.785  57.321 -56.533  1.00  0.00     0.261 C 
ENDBRANCH  32  33
ENDBRANCH  31  32
ENDBRANCH  30  31
ENDBRANCH   3  30
TORSDOF 11
ENDMDL
MODEL 4
REMARK VINA RESULT:      -7.6      2.215      3.770
REMARK  11 active torsions:
REMARK  status: ('A' for Active; 'I' for Inactive)
REMARK    1  A    between atoms: C_3  and  O_4 
REMARK    2  A    between atoms: O_4  and  C_5 
REMARK    3  A    between atoms: C_10  and  C_11 
REMARK    4  A    between atoms: C_11  and  C_12 
REMARK    5  A    between atoms: C_13  and  C_14 
REMARK    6  A    between atoms: C_17  and  O_18 
REMARK    7  A    between atoms: N_21  and  C_22 
REMARK    8  A    between atoms: C_22  and  C_23 
REMARK    9  A    between atoms: C_23  and  C_24 
REMARK   10  A    between atoms: C_24  and  N_25 
REMARK   11  A    between atoms: C_34  and  O_35 
ROOT
HETATM    1  C   UNL     1     -43.243  57.683 -55.453  1.00  0.00     0.059 A 
HETATM    2  C   UNL     1     -43.251  56.352 -56.162  1.00  0.00     0.161 A 
HETATM    3  N   UNL     1     -42.728  56.735 -57.465  1.00  0.00    -0.333 N 
HETATM    4  C   UNL     1     -42.313  58.043 -57.487  1.00  0.00     0.278 A 
HETATM    5  O   UNL     1     -41.828  58.611 -58.453  1.00  0.00    -0.265 OA
HETATM    6  C   UNL     1     -42.708  58.663 -56.198  1.00  0.00     0.146 A 
ENDROOT
BRANCH   1   7
HETATM    7  C   UNL     1     -43.962  57.749 -54.159  1.00  0.00     0.193 C 
HETATM    8  O   UNL     1     -45.071  58.272 -54.113  1.00  0.00    -0.287 OA
BRANCH   7   9
HETATM    9  C   UNL     1     -43.310  57.294 -52.913  1.00  0.00     0.015 A 
HETATM   10  C   UNL     1     -43.752  56.172 -52.205  1.00  0.00     0.018 A 
HETATM   11  C   UNL     1     -43.014  55.714 -51.111  1.00  0.00     0.038 A 
HETATM   12  C   UNL     1     -41.848  56.380 -50.722  1.00  0.00     0.075 A 
HETATM   13  C   UNL     1     -41.456  57.564 -51.365  1.00  0.00    -0.028 A 
HETATM   14  C   UNL     1     -40.276  58.357 -50.876  1.00  0.00     0.051 C 
HETATM   15  C   UNL     1     -42.196  58.014 -52.464  1.00  0.00     0.025 A 
BRANCH  12  16
HETATM   16  O   UNL     1     -41.069  55.941 -49.687  1.00  0.00    -0.346 OA
BRANCH  16  17
HETATM   17  C   UNL     1     -40.956  54.511 -49.566  1.00  0.00     0.121 C 
HETATM   18  C   UNL     1     -39.875  53.940 -50.488  1.00  0.00     0.040 C 
HETATM   19  C   UNL     1     -40.583  54.231 -48.112  1.00  0.00     0.040 C 
ENDBRANCH  16  17
ENDBRANCH  12  16
ENDBRANCH   7   9
ENDBRANCH   1   7
BRANCH   2  20
HETATM   20  C   UNL     1     -42.408  55.288 -55.484  1.00  0.00    -0.030 A 
HETATM   21  C   UNL     1     -41.064  55.567 -55.175  1.00  0.00     0.012 A 
HETATM   22  C   UNL     1     -40.257  54.616 -54.547  1.00  0.00     0.037 A 
HETATM   23  C   UNL     1     -40.790  53.374 -54.226  1.00  0.00     0.065 A 
HETATM   24  C   UNL     1     -42.108  53.066 -54.533  1.00  0.00     0.037 A 
HETATM   25  C   UNL     1     -42.914  54.014 -55.168  1.00  0.00     0.012 A 
BRANCH  23  26
HETATM   26  O   UNL     1     -40.046  52.417 -53.604  1.00  0.00    -0.361 OA
HETATM   27  H   UNL     1     -40.552  52.054 -52.858  1.00  0.00     0.217 HD
ENDBRANCH  23  26
ENDBRANCH   2  20
BRANCH   6  28
HETATM   28  O   UNL     1     -42.640  60.011 -56.015  1.00  0.00    -0.355 OA
HETATM   29  H   UNL     1     -43.195  60.294 -55.269  1.00  0.00     0.218 HD
ENDBRANCH   6  28
BRANCH   3  30
HETATM   30  C   UNL     1     -42.716  55.848 -58.614  1.00  0.00     0.129 C 
BRANCH  30  31
HETATM   31  C   UNL     1     -44.085  55.689 -59.288  1.00  0.00     0.048 C 
BRANCH  31  32
HETATM   32  C   UNL     1     -44.350  56.502 -60.560  1.00  0.00     0.236 C 
BRANCH  32  33
HETATM   33  N   UNL     1     -45.261  57.680 -60.361  1.00  0.00    -0.067 N 
HETATM   34  H   UNL     1     -45.956  57.659 -61.137  1.00  0.00     0.280 HD
HETATM   35  C   UNL     1     -45.992  57.720 -59.032  1.00  0.00     0.261 C 
HETATM   36  C   UNL     1     -46.907  58.949 -58.978  1.00  0.00     0.195 C 
HETATM   37  O   UNL     1     -46.166  60.155 -59.188  1.00  0.00    -0.388 OA
HETATM   38  C   UNL     1     -45.536  60.163 -60.475  1.00  0.00     0.195 C 
HETATM   39  C   UNL     1     -44.534  59.007 -60.594  1.00  0.00     0.261 C 
ENDBRANCH  32  33
ENDBRANCH  31  32
ENDBRANCH  30  31
ENDBRANCH   3  30
TORSDOF 11
ENDMDL
MODEL 5
REMARK VINA RESULT:      -7.3      3.083      7.528
REMARK  11 active torsions:
REMARK  status: ('A' for Active; 'I' for Inactive)
REMARK    1  A    between atoms: C_3  and  O_4 
REMARK    2  A    between atoms: O_4  and  C_5 
REMARK    3  A    between atoms: C_10  and  C_11 
REMARK    4  A    between atoms: C_11  and  C_12 
REMARK    5  A    between atoms: C_13  and  C_14 
REMARK    6  A    between atoms: C_17  and  O_18 
REMARK    7  A    between atoms: N_21  and  C_22 
REMARK    8  A    between atoms: C_22  and  C_23 
REMARK    9  A    between atoms: C_23  and  C_24 
REMARK   10  A    between atoms: C_24  and  N_25 
REMARK   11  A    between atoms: C_34  and  O_35 
ROOT
HETATM    1  C   UNL     1     -43.866  57.627 -54.061  1.00  0.00     0.059 A 
HETATM    2  C   UNL     1     -43.221  57.001 -52.850  1.00  0.00     0.161 A 
HETATM    3  N   UNL     1     -42.891  55.682 -53.368  1.00  0.00    -0.333 N 
HETATM    4  C   UNL     1     -43.141  55.582 -54.714  1.00  0.00     0.278 A 
HETATM    5  O   UNL     1     -42.945  54.587 -55.394  1.00  0.00    -0.265 OA
HETATM    6  C   UNL     1     -43.828  56.826 -55.138  1.00  0.00     0.146 A 
ENDROOT
BRANCH   1   7
HETATM    7  C   UNL     1     -44.579  58.907 -53.845  1.00  0.00     0.193 C 
HETATM    8  O   UNL     1     -45.029  59.516 -54.810  1.00  0.00    -0.287 OA
BRANCH   7   9
HETATM    9  C   UNL     1     -44.653  59.508 -52.496  1.00  0.00     0.015 A 
HETATM   10  C   UNL     1     -45.483  58.995 -51.494  1.00  0.00     0.018 A 
HETATM   11  C   UNL     1     -45.408  59.521 -50.202  1.00  0.00     0.038 A 
HETATM   12  C   UNL     1     -44.518  60.561 -49.918  1.00  0.00     0.075 A 
HETATM   13  C   UNL     1     -43.758  61.148 -50.941  1.00  0.00    -0.028 A 
HETATM   14  C   UNL     1     -42.892  62.347 -50.672  1.00  0.00     0.051 C 
HETATM   15  C   UNL     1     -43.831  60.610 -52.231  1.00  0.00     0.025 A 
BRANCH  12  16
HETATM   16  O   UNL     1     -44.379  61.076 -48.658  1.00  0.00    -0.346 OA
BRANCH  16  17
HETATM   17  C   UNL     1     -45.401  62.006 -48.257  1.00  0.00     0.121 C 
HETATM   18  C   UNL     1     -46.416  62.262 -49.375  1.00  0.00     0.040 C 
HETATM   19  C   UNL     1     -46.112  61.374 -47.063  1.00  0.00     0.040 C 
ENDBRANCH  16  17
ENDBRANCH  12  16
ENDBRANCH   7   9
ENDBRANCH   1   7
BRANCH   2  20
HETATM   20  C   UNL     1     -42.001  57.751 -52.346  1.00  0.00    -0.030 A 
HETATM   21  C   UNL     1     -41.060  58.237 -53.272  1.00  0.00     0.012 A 
HETATM   22  C   UNL     1     -39.927  58.937 -52.848  1.00  0.00     0.037 A 
HETATM   23  C   UNL     1     -39.727  59.151 -51.490  1.00  0.00     0.065 A 
HETATM   24  C   UNL     1     -40.631  58.668 -50.554  1.00  0.00     0.037 A 
HETATM   25  C   UNL     1     -41.760  57.963 -50.976  1.00  0.00     0.012 A 
BRANCH  23  26
HETATM   26  O   UNL     1     -38.643  59.835 -51.029  1.00  0.00    -0.361 OA
HETATM   27  H   UNL     1     -38.090  60.101 -51.783  1.00  0.00     0.217 HD
ENDBRANCH  23  26
ENDBRANCH   2  20
BRANCH   6  28
HETATM   28  O   UNL     1     -44.410  56.927 -56.366  1.00  0.00    -0.355 OA
HETATM   29  H   UNL     1     -43.746  56.896 -57.075  1.00  0.00     0.218 HD
ENDBRANCH   6  28
BRANCH   3  30
HETATM   30  C   UNL     1     -42.421  54.590 -52.535  1.00  0.00     0.129 C 
BRANCH  30  31
HETATM   31  C   UNL     1     -40.953  54.217 -52.772  1.00  0.00     0.048 C 
BRANCH  31  32
HETATM   32  C   UNL     1     -40.338  53.139 -51.872  1.00  0.00     0.236 C 
BRANCH  32  33
HETATM   33  N   UNL     1     -40.372  51.754 -52.456  1.00  0.00    -0.067 N 
HETATM   34  H   UNL     1     -41.320  51.369 -52.264  1.00  0.00     0.280 HD
HETATM   35  C   UNL     1     -40.086  51.669 -53.944  1.00  0.00     0.261 C 
HETATM   36  C   UNL     1     -40.187  50.212 -54.410  1.00  0.00     0.195 C 
HETATM   37  O   UNL     1     -39.296  49.370 -53.672  1.00  0.00    -0.388 OA
HETATM   38  C   UNL     1     -39.607  49.381 -52.273  1.00  0.00     0.195 C 
HETATM   39  C   UNL     1     -39.455  50.794 -51.695  1.00  0.00     0.261 C 
ENDBRANCH  32  33
ENDBRANCH  31  32
ENDBRANCH  30  31
ENDBRANCH   3  30
TORSDOF 11
ENDMDL
MODEL 6
REMARK VINA RESULT:      -7.2      2.932      6.034
REMARK  11 active torsions:
REMARK  status: ('A' for Active; 'I' for Inactive)
REMARK    1  A    between atoms: C_3  and  O_4 
REMARK    2  A    between atoms: O_4  and  C_5 
REMARK    3  A    between atoms: C_10  and  C_11 
REMARK    4  A    between atoms: C_11  and  C_12 
REMARK    5  A    between atoms: C_13  and  C_14 
REMARK    6  A    between atoms: C_17  and  O_18 
REMARK    7  A    between atoms: N_21  and  C_22 
REMARK    8  A    between atoms: C_22  and  C_23 
REMARK    9  A    between atoms: C_23  and  C_24 
REMARK   10  A    between atoms: C_24  and  N_25 
REMARK   11  A    between atoms: C_34  and  O_35 
ROOT
HETATM    1  C   UNL     1     -42.547  57.262 -51.736  1.00  0.00     0.059 A 
HETATM    2  C   UNL     1     -43.465  58.277 -52.370  1.00  0.00     0.161 A 
HETATM    3  N   UNL     1     -42.757  59.511 -52.070  1.00  0.00    -0.333 N 
HETATM    4  C   UNL     1     -41.532  59.274 -51.499  1.00  0.00     0.278 A 
HETATM    5  O   UNL     1     -40.735  60.135 -51.158  1.00  0.00    -0.265 OA
HETATM    6  C   UNL     1     -41.433  57.818 -51.232  1.00  0.00     0.146 A 
ENDROOT
BRANCH   1   7
HETATM    7  C   UNL     1     -43.071  55.883 -51.607  1.00  0.00     0.193 C 
HETATM    8  O   UNL     1     -44.165  55.701 -51.085  1.00  0.00    -0.287 OA
BRANCH   7   9
HETATM    9  C   UNL     1     -42.240  54.724 -51.998  1.00  0.00     0.015 A 
HETATM   10  C   UNL     1     -41.973  54.414 -53.336  1.00  0.00     0.018 A 
HETATM   11  C   UNL     1     -41.073  53.390 -53.638  1.00  0.00     0.038 A 
HETATM   12  C   UNL     1     -40.454  52.673 -52.609  1.00  0.00     0.075 A 
HETATM   13  C   UNL     1     -40.795  52.911 -51.270  1.00  0.00    -0.028 A 
HETATM   14  C   UNL     1     -40.231  52.063 -50.164  1.00  0.00     0.051 C 
HETATM   15  C   UNL     1     -41.692  53.944 -50.973  1.00  0.00     0.025 A 
BRANCH  12  16
HETATM   16  O   UNL     1     -39.532  51.693 -52.857  1.00  0.00    -0.346 OA
BRANCH  16  17
HETATM   17  C   UNL     1     -40.074  50.436 -53.299  1.00  0.00     0.121 C 
HETATM   18  C   UNL     1     -39.606  50.071 -54.711  1.00  0.00     0.040 C 
HETATM   19  C   UNL     1     -39.578  49.382 -52.312  1.00  0.00     0.040 C 
ENDBRANCH  16  17
ENDBRANCH  12  16
ENDBRANCH   7   9
ENDBRANCH   1   7
BRANCH   2  20
HETATM   20  C   UNL     1     -43.674  58.072 -53.860  1.00  0.00    -0.030 A 
HETATM   21  C   UNL     1     -42.563  57.813 -54.682  1.00  0.00     0.012 A 
HETATM   22  C   UNL     1     -42.713  57.614 -56.057  1.00  0.00     0.037 A 
HETATM   23  C   UNL     1     -43.982  57.675 -56.619  1.00  0.00     0.065 A 
HETATM   24  C   UNL     1     -45.095  57.944 -55.834  1.00  0.00     0.037 A 
HETATM   25  C   UNL     1     -44.944  58.150 -54.461  1.00  0.00     0.012 A 
BRANCH  23  26
HETATM   26  O   UNL     1     -44.182  57.478 -57.952  1.00  0.00    -0.361 OA
HETATM   27  H   UNL     1     -44.203  58.340 -58.401  1.00  0.00     0.217 HD
ENDBRANCH  23  26
ENDBRANCH   2  20
BRANCH   6  28
HETATM   28  O   UNL     1     -40.432  57.308 -50.460  1.00  0.00    -0.355 OA
HETATM   29  H   UNL     1     -40.764  56.617 -49.864  1.00  0.00     0.218 HD
ENDBRANCH   6  28
BRANCH   3  30
HETATM   30  C   UNL     1     -43.320  60.831 -52.289  1.00  0.00     0.129 C 
BRANCH  30  31
HETATM   31  C   UNL     1     -44.342  61.253 -51.227  1.00  0.00     0.048 C 
BRANCH  31  32
HETATM   32  C   UNL     1     -43.805  61.820 -49.908  1.00  0.00     0.236 C 
BRANCH  32  33
HETATM   33  N   UNL     1     -44.871  62.200 -48.919  1.00  0.00    -0.067 N 
HETATM   34  H   UNL     1     -44.535  63.054 -48.427  1.00  0.00     0.280 HD
HETATM   35  C   UNL     1     -46.242  62.466 -49.511  1.00  0.00     0.261 C 
HETATM   36  C   UNL     1     -47.218  62.874 -48.401  1.00  0.00     0.195 C 
HETATM   37  O   UNL     1     -47.289  61.873 -47.381  1.00  0.00    -0.388 OA
HETATM   38  C   UNL     1     -46.014  61.669 -46.760  1.00  0.00     0.195 C 
HETATM   39  C   UNL     1     -44.984  61.178 -47.785  1.00  0.00     0.261 C 
ENDBRANCH  32  33
ENDBRANCH  31  32
ENDBRANCH  30  31
ENDBRANCH   3  30
TORSDOF 11
ENDMDL
MODEL 7
REMARK VINA RESULT:      -7.1      2.196      5.749
REMARK  11 active torsions:
REMARK  status: ('A' for Active; 'I' for Inactive)
REMARK    1  A    between atoms: C_3  and  O_4 
REMARK    2  A    between atoms: O_4  and  C_5 
REMARK    3  A    between atoms: C_10  and  C_11 
REMARK    4  A    between atoms: C_11  and  C_12 
REMARK    5  A    between atoms: C_13  and  C_14 
REMARK    6  A    between atoms: C_17  and  O_18 
REMARK    7  A    between atoms: N_21  and  C_22 
REMARK    8  A    between atoms: C_22  and  C_23 
REMARK    9  A    between atoms: C_23  and  C_24 
REMARK   10  A    between atoms: C_24  and  N_25 
REMARK   11  A    between atoms: C_34  and  O_35 
ROOT
HETATM    1  C   UNL     1     -43.146  56.833 -56.366  1.00  0.00     0.059 A 
HETATM    2  C   UNL     1     -42.494  57.754 -55.366  1.00  0.00     0.161 A 
HETATM    3  N   UNL     1     -42.653  59.038 -56.033  1.00  0.00    -0.333 N 
HETATM    4  C   UNL     1     -43.421  58.935 -57.166  1.00  0.00     0.278 A 
HETATM    5  O   UNL     1     -43.714  59.864 -57.904  1.00  0.00    -0.265 OA
HETATM    6  C   UNL     1     -43.684  57.495 -57.404  1.00  0.00     0.146 A 
ENDROOT
BRANCH   1   7
HETATM    7  C   UNL     1     -42.949  55.381 -56.157  1.00  0.00     0.193 C 
HETATM    8  O   UNL     1     -43.320  54.592 -57.020  1.00  0.00    -0.287 OA
BRANCH   7   9
HETATM    9  C   UNL     1     -42.414  54.872 -54.876  1.00  0.00     0.015 A 
HETATM   10  C   UNL     1     -41.043  54.728 -54.643  1.00  0.00     0.018 A 
HETATM   11  C   UNL     1     -40.595  54.372 -53.369  1.00  0.00     0.038 A 
HETATM   12  C   UNL     1     -41.513  54.149 -52.339  1.00  0.00     0.075 A 
HETATM   13  C   UNL     1     -42.892  54.191 -52.592  1.00  0.00    -0.028 A 
HETATM   14  C   UNL     1     -43.888  53.830 -51.525  1.00  0.00     0.051 C 
HETATM   15  C   UNL     1     -43.334  54.556 -53.869  1.00  0.00     0.025 A 
BRANCH  12  16
HETATM   16  O   UNL     1     -41.118  53.843 -51.065  1.00  0.00    -0.346 OA
BRANCH  16  17
HETATM   17  C   UNL     1     -40.480  54.913 -50.345  1.00  0.00     0.121 C 
HETATM   18  C   UNL     1     -41.406  55.532 -49.294  1.00  0.00     0.040 C 
HETATM   19  C   UNL     1     -39.265  54.301 -49.653  1.00  0.00     0.040 C 
ENDBRANCH  16  17
ENDBRANCH  12  16
ENDBRANCH   7   9
ENDBRANCH   1   7
BRANCH   2  20
HETATM   20  C   UNL     1     -43.139  57.727 -53.992  1.00  0.00    -0.030 A 
HETATM   21  C   UNL     1     -42.322  57.760 -52.847  1.00  0.00     0.012 A 
HETATM   22  C   UNL     1     -42.878  57.742 -51.565  1.00  0.00     0.037 A 
HETATM   23  C   UNL     1     -44.258  57.687 -51.421  1.00  0.00     0.065 A 
HETATM   24  C   UNL     1     -45.087  57.638 -52.534  1.00  0.00     0.037 A 
HETATM   25  C   UNL     1     -44.532  57.649 -53.816  1.00  0.00     0.012 A 
BRANCH  23  26
HETATM   26  O   UNL     1     -44.847  57.677 -50.193  1.00  0.00    -0.361 OA
HETATM   27  H   UNL     1     -44.903  58.589 -49.859  1.00  0.00     0.217 HD
ENDBRANCH  23  26
ENDBRANCH   2  20
BRANCH   6  28
HETATM   28  O   UNL     1     -44.223  57.061 -58.578  1.00  0.00    -0.355 OA
HETATM   29  H   UNL     1     -44.975  56.466 -58.422  1.00  0.00     0.218 HD
ENDBRANCH   6  28
BRANCH   3  30
HETATM   30  C   UNL     1     -42.011  60.259 -55.581  1.00  0.00     0.129 C 
BRANCH  30  31
HETATM   31  C   UNL     1     -42.964  61.238 -54.884  1.00  0.00     0.048 C 
BRANCH  31  32
HETATM   32  C   UNL     1     -42.811  61.425 -53.371  1.00  0.00     0.236 C 
BRANCH  32  33
HETATM   33  N   UNL     1     -44.040  61.079 -52.579  1.00  0.00    -0.067 N 
HETATM   34  H   UNL     1     -44.100  60.040 -52.554  1.00  0.00     0.280 HD
HETATM   35  C   UNL     1     -44.074  61.619 -51.161  1.00  0.00     0.261 C 
HETATM   36  C   UNL     1     -45.359  61.164 -50.462  1.00  0.00     0.195 C 
HETATM   37  O   UNL     1     -46.519  61.577 -51.191  1.00  0.00    -0.388 OA
HETATM   38  C   UNL     1     -46.538  61.009 -52.506  1.00  0.00     0.195 C 
HETATM   39  C   UNL     1     -45.322  61.475 -53.316  1.00  0.00     0.261 C 
ENDBRANCH  32  33
ENDBRANCH  31  32
ENDBRANCH  30  31
ENDBRANCH   3  30
TORSDOF 11
ENDMDL
MODEL 8
REMARK VINA RESULT:      -6.9      3.243      8.366
REMARK  11 active torsions:
REMARK  status: ('A' for Active; 'I' for Inactive)
REMARK    1  A    between atoms: C_3  and  O_4 
REMARK    2  A    between atoms: O_4  and  C_5 
REMARK    3  A    between atoms: C_10  and  C_11 
REMARK    4  A    between atoms: C_11  and  C_12 
REMARK    5  A    between atoms: C_13  and  C_14 
REMARK    6  A    between atoms: C_17  and  O_18 
REMARK    7  A    between atoms: N_21  and  C_22 
REMARK    8  A    between atoms: C_22  and  C_23 
REMARK    9  A    between atoms: C_23  and  C_24 
REMARK   10  A    between atoms: C_24  and  N_25 
REMARK   11  A    between atoms: C_34  and  O_35 
ROOT
HETATM    1  C   UNL     1     -43.611  56.889 -55.221  1.00  0.00     0.059 A 
HETATM    2  C   UNL     1     -43.493  56.599 -53.746  1.00  0.00     0.161 A 
HETATM    3  N   UNL     1     -43.200  55.174 -53.771  1.00  0.00    -0.333 N 
HETATM    4  C   UNL     1     -43.006  54.713 -55.049  1.00  0.00     0.278 A 
HETATM    5  O   UNL     1     -42.739  53.559 -55.347  1.00  0.00    -0.265 OA
HETATM    6  C   UNL     1     -43.334  55.818 -55.982  1.00  0.00     0.146 A 
ENDROOT
BRANCH   1   7
HETATM    7  C   UNL     1     -44.168  58.209 -55.595  1.00  0.00     0.193 C 
HETATM    8  O   UNL     1     -45.249  58.560 -55.133  1.00  0.00    -0.287 OA
BRANCH   7   9
HETATM    9  C   UNL     1     -43.490  59.053 -56.602  1.00  0.00     0.015 A 
HETATM   10  C   UNL     1     -42.410  59.880 -56.279  1.00  0.00     0.018 A 
HETATM   11  C   UNL     1     -41.726  60.549 -57.296  1.00  0.00     0.038 A 
HETATM   12  C   UNL     1     -42.128  60.400 -58.627  1.00  0.00     0.075 A 
HETATM   13  C   UNL     1     -43.272  59.655 -58.947  1.00  0.00    -0.028 A 
HETATM   14  C   UNL     1     -43.786  59.591 -60.359  1.00  0.00     0.051 C 
HETATM   15  C   UNL     1     -43.948  58.981 -57.923  1.00  0.00     0.025 A 
BRANCH  12  16
HETATM   16  O   UNL     1     -41.460  60.999 -59.661  1.00  0.00    -0.346 OA
BRANCH  16  17
HETATM   17  C   UNL     1     -41.238  62.413 -59.512  1.00  0.00     0.121 C 
HETATM   18  C   UNL     1     -39.755  62.778 -59.625  1.00  0.00     0.040 C 
HETATM   19  C   UNL     1     -42.014  63.091 -60.639  1.00  0.00     0.040 C 
ENDBRANCH  16  17
ENDBRANCH  12  16
ENDBRANCH   7   9
ENDBRANCH   1   7
BRANCH   2  20
HETATM   20  C   UNL     1     -42.414  57.404 -53.045  1.00  0.00    -0.030 A 
HETATM   21  C   UNL     1     -41.194  57.641 -53.703  1.00  0.00     0.012 A 
HETATM   22  C   UNL     1     -40.178  58.382 -53.094  1.00  0.00     0.037 A 
HETATM   23  C   UNL     1     -40.377  58.889 -51.816  1.00  0.00     0.065 A 
HETATM   24  C   UNL     1     -41.566  58.657 -51.137  1.00  0.00     0.037 A 
HETATM   25  C   UNL     1     -42.579  57.911 -51.743  1.00  0.00     0.012 A 
BRANCH  23  26
HETATM   26  O   UNL     1     -39.421  59.625 -51.184  1.00  0.00    -0.361 OA
HETATM   27  H   UNL     1     -39.147  60.356 -51.763  1.00  0.00     0.217 HD
ENDBRANCH  23  26
ENDBRANCH   2  20
BRANCH   6  28
HETATM   28  O   UNL     1     -43.460  55.596 -57.321  1.00  0.00    -0.355 OA
HETATM   29  H   UNL     1     -42.892  56.195 -57.833  1.00  0.00     0.218 HD
ENDBRANCH   6  28
BRANCH   3  30
HETATM   30  C   UNL     1     -43.188  54.339 -52.584  1.00  0.00     0.129 C 
BRANCH  30  31
HETATM   31  C   UNL     1     -41.806  54.213 -51.929  1.00  0.00     0.048 C 
BRANCH  31  32
HETATM   32  C   UNL     1     -40.596  54.032 -52.851  1.00  0.00     0.236 C 
BRANCH  32  33
HETATM   33  N   UNL     1     -39.943  52.682 -52.756  1.00  0.00    -0.067 N 
HETATM   34  H   UNL     1     -38.922  52.830 -52.903  1.00  0.00     0.280 HD
HETATM   35  C   UNL     1     -40.162  51.944 -51.449  1.00  0.00     0.261 C 
HETATM   36  C   UNL     1     -39.416  50.606 -51.476  1.00  0.00     0.195 C 
HETATM   37  O   UNL     1     -39.829  49.805 -52.588  1.00  0.00    -0.388 OA
HETATM   38  C   UNL     1     -39.554  50.459 -53.833  1.00  0.00     0.195 C 
HETATM   39  C   UNL     1     -40.326  51.781 -53.933  1.00  0.00     0.261 C 
ENDBRANCH  32  33
ENDBRANCH  31  32
ENDBRANCH  30  31
ENDBRANCH   3  30
TORSDOF 11
ENDMDL
MODEL 9
REMARK VINA RESULT:      -6.9      2.784      5.184
REMARK  11 active torsions:
REMARK  status: ('A' for Active; 'I' for Inactive)
REMARK    1  A    between atoms: C_3  and  O_4 
REMARK    2  A    between atoms: O_4  and  C_5 
REMARK    3  A    between atoms: C_10  and  C_11 
REMARK    4  A    between atoms: C_11  and  C_12 
REMARK    5  A    between atoms: C_13  and  C_14 
REMARK    6  A    between atoms: C_17  and  O_18 
REMARK    7  A    between atoms: N_21  and  C_22 
REMARK    8  A    between atoms: C_22  and  C_23 
REMARK    9  A    between atoms: C_23  and  C_24 
REMARK   10  A    between atoms: C_24  and  N_25 
REMARK   11  A    between atoms: C_34  and  O_35 
ROOT
HETATM    1  C   UNL     1     -43.402  58.498 -56.255  1.00  0.00     0.059 A 
HETATM    2  C   UNL     1     -44.047  58.850 -57.573  1.00  0.00     0.161 A 
HETATM    3  N   UNL     1     -43.137  59.877 -58.056  1.00  0.00    -0.333 N 
HETATM    4  C   UNL     1     -42.035  60.007 -57.248  1.00  0.00     0.278 A 
HETATM    5  O   UNL     1     -41.116  60.791 -57.432  1.00  0.00    -0.265 OA
HETATM    6  C   UNL     1     -42.247  59.153 -56.054  1.00  0.00     0.146 A 
ENDROOT
BRANCH   1   7
HETATM    7  C   UNL     1     -44.196  57.654 -55.333  1.00  0.00     0.193 C 
HETATM    8  O   UNL     1     -45.266  58.072 -54.903  1.00  0.00    -0.287 OA
BRANCH   7   9
HETATM    9  C   UNL     1     -43.659  56.367 -54.843  1.00  0.00     0.015 A 
HETATM   10  C   UNL     1     -43.020  55.453 -55.687  1.00  0.00     0.018 A 
HETATM   11  C   UNL     1     -42.414  54.319 -55.142  1.00  0.00     0.038 A 
HETATM   12  C   UNL     1     -42.459  54.094 -53.763  1.00  0.00     0.075 A 
HETATM   13  C   UNL     1     -43.185  54.952 -52.924  1.00  0.00    -0.028 A 
HETATM   14  C   UNL     1     -43.344  54.652 -51.459  1.00  0.00     0.051 C 
HETATM   15  C   UNL     1     -43.782  56.091 -53.476  1.00  0.00     0.025 A 
BRANCH  12  16
HETATM   16  O   UNL     1     -41.841  53.021 -53.180  1.00  0.00    -0.346 OA
BRANCH  16  17
HETATM   17  C   UNL     1     -40.411  53.124 -53.061  1.00  0.00     0.121 C 
HETATM   18  C   UNL     1     -39.954  53.135 -51.599  1.00  0.00     0.040 C 
HETATM   19  C   UNL     1     -39.831  51.899 -53.764  1.00  0.00     0.040 C 
ENDBRANCH  16  17
ENDBRANCH  12  16
ENDBRANCH   7   9
ENDBRANCH   1   7
BRANCH   2  20
HETATM   20  C   UNL     1     -44.166  57.679 -58.531  1.00  0.00    -0.030 A 
HETATM   21  C   UNL     1     -45.432  57.323 -59.030  1.00  0.00     0.012 A 
HETATM   22  C   UNL     1     -45.583  56.255 -59.918  1.00  0.00     0.037 A 
HETATM   23  C   UNL     1     -44.463  55.532 -60.312  1.00  0.00     0.065 A 
HETATM   24  C   UNL     1     -43.204  55.852 -59.823  1.00  0.00     0.037 A 
HETATM   25  C   UNL     1     -43.053  56.915 -58.930  1.00  0.00     0.012 A 
BRANCH  23  26
HETATM   26  O   UNL     1     -44.557  54.489 -61.182  1.00  0.00    -0.361 OA
HETATM   27  H   UNL     1     -45.304  53.924 -60.922  1.00  0.00     0.217 HD
ENDBRANCH  23  26
ENDBRANCH   2  20
BRANCH   6  28
HETATM   28  O   UNL     1     -41.434  59.249 -54.965  1.00  0.00    -0.355 OA
HETATM   29  H   UNL     1     -41.950  59.289 -54.143  1.00  0.00     0.218 HD
ENDBRANCH   6  28
BRANCH   3  30
HETATM   30  C   UNL     1     -43.409  60.706 -59.216  1.00  0.00     0.129 C 
BRANCH  30  31
HETATM   31  C   UNL     1     -44.086  62.041 -58.879  1.00  0.00     0.048 C 
BRANCH  31  32
HETATM   32  C   UNL     1     -45.617  62.092 -58.919  1.00  0.00     0.236 C 
BRANCH  32  33
HETATM   33  N   UNL     1     -46.277  61.859 -57.589  1.00  0.00    -0.067 N 
HETATM   34  H   UNL     1     -46.626  60.877 -57.593  1.00  0.00     0.280 HD
HETATM   35  C   UNL     1     -45.391  62.073 -56.376  1.00  0.00     0.261 C 
HETATM   36  C   UNL     1     -46.178  61.768 -55.097  1.00  0.00     0.195 C 
HETATM   37  O   UNL     1     -47.359  62.571 -55.012  1.00  0.00    -0.388 OA
HETATM   38  C   UNL     1     -48.242  62.319 -56.112  1.00  0.00     0.195 C 
HETATM   39  C   UNL     1     -47.565  62.674 -57.442  1.00  0.00     0.261 C 
ENDBRANCH  32  33
ENDBRANCH  31  32
ENDBRANCH  30  31
ENDBRANCH   3  30
TORSDOF 11
ENDMDL
MODEL 10
REMARK VINA RESULT:      -6.8      3.403      5.911
REMARK  11 active torsions:
REMARK  status: ('A' for Active; 'I' for Inactive)
REMARK    1  A    between atoms: C_3  and  O_4 
REMARK    2  A    between atoms: O_4  and  C_5 
REMARK    3  A    between atoms: C_10  and  C_11 
REMARK    4  A    between atoms: C_11  and  C_12 
REMARK    5  A    between atoms: C_13  and  C_14 
REMARK    6  A    between atoms: C_17  and  O_18 
REMARK    7  A    between atoms: N_21  and  C_22 
REMARK    8  A    between atoms: C_22  and  C_23 
REMARK    9  A    between atoms: C_23  and  C_24 
REMARK   10  A    between atoms: C_24  and  N_25 
REMARK   11  A    between atoms: C_34  and  O_35 
ROOT
HETATM    1  C   UNL     1     -42.422  59.210 -54.554  1.00  0.00     0.059 A 
HETATM    2  C   UNL     1     -42.953  60.416 -53.819  1.00  0.00     0.161 A 
HETATM    3  N   UNL     1     -43.761  61.034 -54.859  1.00  0.00    -0.333 N 
HETATM    4  C   UNL     1     -43.843  60.248 -55.981  1.00  0.00     0.278 A 
HETATM    5  O   UNL     1     -44.466  60.530 -56.993  1.00  0.00    -0.265 OA
HETATM    6  C   UNL     1     -42.924  59.099 -55.795  1.00  0.00     0.146 A 
ENDROOT
BRANCH   1   7
HETATM    7  C   UNL     1     -41.332  58.457 -53.892  1.00  0.00     0.193 C 
HETATM    8  O   UNL     1     -40.352  59.061 -53.471  1.00  0.00    -0.287 OA
BRANCH   7   9
HETATM    9  C   UNL     1     -41.367  56.980 -53.835  1.00  0.00     0.015 A 
HETATM   10  C   UNL     1     -40.541  56.182 -54.633  1.00  0.00     0.018 A 
HETATM   11  C   UNL     1     -40.523  54.799 -54.437  1.00  0.00     0.038 A 
HETATM   12  C   UNL     1     -41.334  54.218 -53.458  1.00  0.00     0.075 A 
HETATM   13  C   UNL     1     -42.238  55.000 -52.726  1.00  0.00    -0.028 A 
HETATM   14  C   UNL     1     -43.203  54.370 -51.760  1.00  0.00     0.051 C 
HETATM   15  C   UNL     1     -42.246  56.386 -52.921  1.00  0.00     0.025 A 
BRANCH  12  16
HETATM   16  O   UNL     1     -41.315  52.874 -53.201  1.00  0.00    -0.346 OA
BRANCH  16  17
HETATM   17  C   UNL     1     -40.024  52.246 -53.304  1.00  0.00     0.121 C 
HETATM   18  C   UNL     1     -39.517  51.748 -51.947  1.00  0.00     0.040 C 
HETATM   19  C   UNL     1     -40.198  51.059 -54.248  1.00  0.00     0.040 C 
ENDBRANCH  16  17
ENDBRANCH  12  16
ENDBRANCH   7   9
ENDBRANCH   1   7
BRANCH   2  20
HETATM   20  C   UNL     1     -43.759  60.075 -52.579  1.00  0.00    -0.030 A 
HETATM   21  C   UNL     1     -43.551  60.810 -51.398  1.00  0.00     0.012 A 
HETATM   22  C   UNL     1     -44.276  60.531 -50.237  1.00  0.00     0.037 A 
HETATM   23  C   UNL     1     -45.215  59.507 -50.250  1.00  0.00     0.065 A 
HETATM   24  C   UNL     1     -45.430  58.755 -51.397  1.00  0.00     0.037 A 
HETATM   25  C   UNL     1     -44.700  59.029 -52.556  1.00  0.00     0.012 A 
BRANCH  23  26
HETATM   26  O   UNL     1     -45.954  59.203 -49.147  1.00  0.00    -0.361 OA
HETATM   27  H   UNL     1     -46.521  59.961 -48.924  1.00  0.00     0.217 HD
ENDBRANCH  23  26
ENDBRANCH   2  20
BRANCH   6  28
HETATM   28  O   UNL     1     -42.612  58.271 -56.830  1.00  0.00    -0.355 OA
HETATM   29  H   UNL     1     -42.835  57.348 -56.623  1.00  0.00     0.218 HD
ENDBRANCH   6  28
BRANCH   3  30
HETATM   30  C   UNL     1     -44.347  62.356 -54.735  1.00  0.00     0.129 C 
BRANCH  30  31
HETATM   31  C   UNL     1     -45.802  62.347 -54.250  1.00  0.00     0.048 C 
BRANCH  31  32
HETATM   32  C   UNL     1     -46.906  62.485 -55.304  1.00  0.00     0.236 C 
BRANCH  32  33
HETATM   33  N   UNL     1     -48.267  62.056 -54.834  1.00  0.00    -0.067 N 
HETATM   34  H   UNL     1     -48.276  61.015 -54.847  1.00  0.00     0.280 HD
HETATM   35  C   UNL     1     -48.662  62.545 -53.453  1.00  0.00     0.261 C 
HETATM   36  C   UNL     1     -50.050  62.008 -53.088  1.00  0.00     0.195 C 
HETATM   37  O   UNL     1     -51.025  62.392 -54.062  1.00  0.00    -0.388 OA
HETATM   38  C   UNL     1     -50.705  61.868 -55.356  1.00  0.00     0.195 C 
HETATM   39  C   UNL     1     -49.358  62.418 -55.844  1.00  0.00     0.261 C 
ENDBRANCH  32  33
ENDBRANCH  31  32
ENDBRANCH  30  31
ENDBRANCH   3  30
TORSDOF 11
ENDMDL
