MODEL 1
REMARK VINA RESULT:      -7.6      0.000      0.000
REMARK  8 active torsions:
REMARK  status: ('A' for Active; 'I' for Inactive)
REMARK    1  A    between atoms: C_2  and  N_3 
REMARK       I    between atoms: N_3  and  C_4 
REMARK    2  A    between atoms: C_4  and  C_5 
REMARK    3  A    between atoms: C_5  and  O_6 
REMARK    4  A    between atoms: O_6  and  C_7 
REMARK    5  A    between atoms: C_8  and  O_9 
REMARK    6  A    between atoms: C_12  and  C_13 
REMARK    7  A    between atoms: C_13  and  N_14 
REMARK    8  A    between atoms: N_14  and  C_15 
ROOT
HETATM    1  C   UNL     1     -42.599  57.820 -51.761  1.00  0.00     0.102 A 
HETATM    2  C   UNL     1     -41.293  57.768 -51.248  1.00  0.00     0.102 A 
HETATM    3  C   UNL     1     -40.931  56.720 -50.385  1.00  0.00     0.048 A 
HETATM    4  C   UNL     1     -41.829  55.698 -50.057  1.00  0.00    -0.042 A 
HETATM    5  C   UNL     1     -43.126  55.758 -50.574  1.00  0.00     0.011 A 
HETATM    6  C   UNL     1     -43.504  56.803 -51.422  1.00  0.00     0.040 A 
ENDROOT
BRANCH   4   7
HETATM    7  C   UNL     1     -41.415  54.559 -49.159  1.00  0.00     0.131 C 
BRANCH   7   8
HETATM    8  N   UNL     1     -40.135  54.026 -49.608  1.00  0.00    -0.289 NA
HETATM    9  H   UNL     1     -39.569  54.742 -50.058  1.00  0.00     0.128 HD
BRANCH   8  10
HETATM   10  C   UNL     1     -40.124  52.819 -50.324  1.00  0.00     0.010 A 
HETATM   11  C   UNL     1     -39.872  52.867 -51.707  1.00  0.00     0.055 A 
HETATM   12  C   UNL     1     -39.800  51.675 -52.391  1.00  0.00     0.065 A 
HETATM   13  C   UNL     1     -39.932  50.445 -51.755  1.00  0.00     0.063 A 
HETATM   14  N   UNL     1     -39.591  51.433 -53.746  1.00  0.00    -0.306 N 
HETATM   15  N   UNL     1     -39.807  49.448 -52.713  1.00  0.00    -0.307 N 
HETATM   16  C   UNL     1     -40.135  50.346 -50.403  1.00  0.00     0.034 A 
HETATM   17  C   UNL     1     -39.594  50.048 -53.963  1.00  0.00     0.325 A 
HETATM   18  H   UNL     1     -39.848  48.452 -52.571  1.00  0.00     0.170 HD
HETATM   19  O   UNL     1     -39.441  49.477 -55.028  1.00  0.00    -0.247 OA
HETATM   20  C   UNL     1     -40.217  51.551 -49.689  1.00  0.00     0.026 A 
HETATM   21  H   UNL     1     -39.455  52.115 -54.474  1.00  0.00     0.170 HD
ENDBRANCH   8  10
ENDBRANCH   7   8
ENDBRANCH   4   7
BRANCH   2  22
HETATM   22  O   UNL     1     -40.262  58.648 -51.450  1.00  0.00    -0.353 OA
HETATM   23  C   UNL     1     -39.990  59.622 -50.454  1.00  0.00     0.210 C 
ENDBRANCH   2  22
BRANCH   1  24
HETATM   24  O   UNL     1     -42.928  58.832 -52.625  1.00  0.00    -0.339 OA
BRANCH  24  25
HETATM   25  C   UNL     1     -42.608  58.671 -54.004  1.00  0.00     0.278 C 
BRANCH  25  26
HETATM   26  C   UNL     1     -42.969  57.301 -54.591  1.00  0.00     0.242 C 
HETATM   27  N   UNL     1     -41.908  56.424 -54.680  1.00  0.00    -0.351 N 
HETATM   28  H   UNL     1     -40.996  56.821 -54.473  1.00  0.00     0.163 HD
HETATM   29  O   UNL     1     -44.116  57.035 -54.937  1.00  0.00    -0.271 OA
BRANCH  27  30
HETATM   30  C   UNL     1     -41.959  55.071 -55.246  1.00  0.00     0.022 C 
HETATM   31  C   UNL     1     -40.547  54.475 -55.339  1.00  0.00     0.037 C 
HETATM   32  C   UNL     1     -42.627  55.065 -56.630  1.00  0.00     0.037 C 
HETATM   33  C   UNL     1     -42.803  54.194 -54.303  1.00  0.00     0.037 C 
ENDBRANCH  27  30
ENDBRANCH  25  26
ENDBRANCH  24  25
ENDBRANCH   1  24
TORSDOF 8
ENDMDL
MODEL 2
REMARK VINA RESULT:      -7.5      3.825      5.865
REMARK  8 active torsions:
REMARK  status: ('A' for Active; 'I' for Inactive)
REMARK    1  A    between atoms: C_2  and  N_3 
REMARK       I    between atoms: N_3  and  C_4 
REMARK    2  A    between atoms: C_4  and  C_5 
REMARK    3  A    between atoms: C_5  and  O_6 
REMARK    4  A    between atoms: O_6  and  C_7 
REMARK    5  A    between atoms: C_8  and  O_9 
REMARK    6  A    between atoms: C_12  and  C_13 
REMARK    7  A    between atoms: C_13  and  N_14 
REMARK    8  A    between atoms: N_14  and  C_15 
ROOT
HETATM    1  C   UNL     1     -43.098  59.375 -50.957  1.00  0.00     0.102 A 
HETATM    2  C   UNL     1     -41.924  58.603 -50.922  1.00  0.00     0.102 A 
HETATM    3  C   UNL     1     -41.811  57.480 -51.757  1.00  0.00     0.048 A 
HETATM    4  C   UNL     1     -42.823  57.132 -52.658  1.00  0.00    -0.042 A 
HETATM    5  C   UNL     1     -43.985  57.907 -52.688  1.00  0.00     0.011 A 
HETATM    6  C   UNL     1     -44.117  59.019 -51.852  1.00  0.00     0.040 A 
ENDROOT
BRANCH   4   7
HETATM    7  C   UNL     1     -42.671  55.944 -53.576  1.00  0.00     0.131 C 
BRANCH   7   8
HETATM    8  N   UNL     1     -41.256  55.700 -53.826  1.00  0.00    -0.289 NA
HETATM    9  H   UNL     1     -40.960  56.099 -54.715  1.00  0.00     0.128 HD
BRANCH   8  10
HETATM   10  C   UNL     1     -40.754  54.403 -53.638  1.00  0.00     0.010 A 
HETATM   11  C   UNL     1     -40.674  53.902 -52.326  1.00  0.00     0.055 A 
HETATM   12  C   UNL     1     -40.241  52.607 -52.156  1.00  0.00     0.065 A 
HETATM   13  C   UNL     1     -39.921  51.784 -53.230  1.00  0.00     0.063 A 
HETATM   14  N   UNL     1     -40.045  51.878 -50.987  1.00  0.00    -0.306 N 
HETATM   15  N   UNL     1     -39.528  50.551 -52.727  1.00  0.00    -0.307 N 
HETATM   16  C   UNL     1     -40.026  52.212 -54.528  1.00  0.00     0.034 A 
HETATM   17  C   UNL     1     -39.599  50.592 -51.327  1.00  0.00     0.325 A 
HETATM   18  H   UNL     1     -39.241  49.739 -53.249  1.00  0.00     0.170 HD
HETATM   19  O   UNL     1     -39.326  49.689 -50.557  1.00  0.00    -0.247 OA
HETATM   20  C   UNL     1     -40.460  53.532 -54.722  1.00  0.00     0.026 A 
HETATM   21  H   UNL     1     -40.191  52.188 -50.041  1.00  0.00     0.170 HD
ENDBRANCH   8  10
ENDBRANCH   7   8
ENDBRANCH   4   7
BRANCH   2  22
HETATM   22  O   UNL     1     -40.816  58.773 -50.132  1.00  0.00    -0.353 OA
HETATM   23  C   UNL     1     -39.727  59.529 -50.638  1.00  0.00     0.210 C 
ENDBRANCH   2  22
BRANCH   1  24
HETATM   24  O   UNL     1     -43.180  60.485 -50.157  1.00  0.00    -0.339 OA
BRANCH  24  25
HETATM   25  C   UNL     1     -44.441  61.139 -50.041  1.00  0.00     0.278 C 
BRANCH  25  26
HETATM   26  C   UNL     1     -44.829  61.536 -48.611  1.00  0.00     0.242 C 
HETATM   27  N   UNL     1     -45.398  60.520 -47.875  1.00  0.00    -0.351 N 
HETATM   28  H   UNL     1     -45.614  59.673 -48.393  1.00  0.00     0.163 HD
HETATM   29  O   UNL     1     -44.631  62.671 -48.187  1.00  0.00    -0.271 OA
BRANCH  27  30
HETATM   30  C   UNL     1     -45.906  60.635 -46.502  1.00  0.00     0.022 C 
HETATM   31  C   UNL     1     -46.974  61.734 -46.415  1.00  0.00     0.037 C 
HETATM   32  C   UNL     1     -44.771  60.921 -45.505  1.00  0.00     0.037 C 
HETATM   33  C   UNL     1     -46.550  59.290 -46.120  1.00  0.00     0.037 C 
ENDBRANCH  27  30
ENDBRANCH  25  26
ENDBRANCH  24  25
ENDBRANCH   1  24
TORSDOF 8
ENDMDL
MODEL 3
REMARK VINA RESULT:      -7.5      2.707      4.068
REMARK  8 active torsions:
REMARK  status: ('A' for Active; 'I' for Inactive)
REMARK    1  A    between atoms: C_2  and  N_3 
REMARK       I    between atoms: N_3  and  C_4 
REMARK    2  A    between atoms: C_4  and  C_5 
REMARK    3  A    between atoms: C_5  and  O_6 
REMARK    4  A    between atoms: O_6  and  C_7 
REMARK    5  A    between atoms: C_8  and  O_9 
REMARK    6  A    between atoms: C_12  and  C_13 
REMARK    7  A    between atoms: C_13  and  N_14 
REMARK    8  A    between atoms: N_14  and  C_15 
ROOT
HETATM    1  C   UNL     1     -44.396  58.286 -55.087  1.00  0.00     0.102 A 
HETATM    2  C   UNL     1     -43.495  57.230 -55.302  1.00  0.00     0.102 A 
HETATM    3  C   UNL     1     -42.989  56.519 -54.202  1.00  0.00     0.048 A 
HETATM    4  C   UNL     1     -43.394  56.807 -52.894  1.00  0.00    -0.042 A 
HETATM    5  C   UNL     1     -44.292  57.858 -52.690  1.00  0.00     0.011 A 
HETATM    6  C   UNL     1     -44.792  58.584 -53.775  1.00  0.00     0.040 A 
ENDROOT
BRANCH   4   7
HETATM    7  C   UNL     1     -42.870  56.010 -51.725  1.00  0.00     0.131 C 
BRANCH   7   8
HETATM    8  N   UNL     1     -41.444  55.767 -51.902  1.00  0.00    -0.289 NA
HETATM    9  H   UNL     1     -41.060  56.330 -52.657  1.00  0.00     0.128 HD
BRANCH   8  10
HETATM   10  C   UNL     1     -40.990  54.439 -51.951  1.00  0.00     0.010 A 
HETATM   11  C   UNL     1     -40.979  53.784 -53.196  1.00  0.00     0.055 A 
HETATM   12  C   UNL     1     -40.473  52.505 -53.246  1.00  0.00     0.065 A 
HETATM   13  C   UNL     1     -39.948  51.870 -52.127  1.00  0.00     0.063 A 
HETATM   14  N   UNL     1     -40.366  51.629 -54.323  1.00  0.00    -0.306 N 
HETATM   15  N   UNL     1     -39.520  50.605 -52.509  1.00  0.00    -0.307 N 
HETATM   16  C   UNL     1     -39.897  52.483 -50.902  1.00  0.00     0.034 A 
HETATM   17  C   UNL     1     -39.774  50.438 -53.878  1.00  0.00     0.325 A 
HETATM   18  H   UNL     1     -39.089  49.903 -51.930  1.00  0.00     0.170 HD
HETATM   19  O   UNL     1     -39.529  49.452 -54.549  1.00  0.00    -0.247 OA
HETATM   20  C   UNL     1     -40.413  53.785 -50.829  1.00  0.00     0.026 A 
HETATM   21  H   UNL     1     -40.653  51.792 -55.274  1.00  0.00     0.170 HD
ENDBRANCH   8  10
ENDBRANCH   7   8
ENDBRANCH   4   7
BRANCH   2  22
HETATM   22  O   UNL     1     -42.983  56.775 -56.490  1.00  0.00    -0.353 OA
HETATM   23  C   UNL     1     -42.546  55.428 -56.574  1.00  0.00     0.210 C 
ENDBRANCH   2  22
BRANCH   1  24
HETATM   24  O   UNL     1     -44.903  58.951 -56.172  1.00  0.00    -0.339 OA
BRANCH  24  25
HETATM   25  C   UNL     1     -45.997  58.363 -56.872  1.00  0.00     0.278 C 
BRANCH  25  26
HETATM   26  C   UNL     1     -45.699  57.985 -58.329  1.00  0.00     0.242 C 
HETATM   27  N   UNL     1     -45.260  56.689 -58.500  1.00  0.00    -0.351 N 
HETATM   28  H   UNL     1     -45.062  56.179 -57.645  1.00  0.00     0.163 HD
HETATM   29  O   UNL     1     -45.854  58.789 -59.243  1.00  0.00    -0.271 OA
BRANCH  27  30
HETATM   30  C   UNL     1     -44.858  56.081 -59.774  1.00  0.00     0.022 C 
HETATM   31  C   UNL     1     -44.371  54.642 -59.552  1.00  0.00     0.037 C 
HETATM   32  C   UNL     1     -43.765  56.907 -60.471  1.00  0.00     0.037 C 
HETATM   33  C   UNL     1     -46.092  56.048 -60.695  1.00  0.00     0.037 C 
ENDBRANCH  27  30
ENDBRANCH  25  26
ENDBRANCH  24  25
ENDBRANCH   1  24
TORSDOF 8
ENDMDL
MODEL 4
REMARK VINA RESULT:      -7.3      3.073      6.819
REMARK  8 active torsions:
REMARK  status: ('A' for Active; 'I' for Inactive)
REMARK    1  A    between atoms: C_2  and  N_3 
REMARK       I    between atoms: N_3  and  C_4 
REMARK    2  A    between atoms: C_4  and  C_5 
REMARK    3  A    between atoms: C_5  and  O_6 
REMARK    4  A    between atoms: O_6  and  C_7 
REMARK    5  A    between atoms: C_8  and  O_9 
REMARK    6  A    between atoms: C_12  and  C_13 
REMARK    7  A    between atoms: C_13  and  N_14 
REMARK    8  A    between atoms: N_14  and  C_15 
ROOT
HETATM    1  C   UNL     1     -42.178  57.979 -51.989  1.00  0.00     0.102 A 
HETATM    2  C   UNL     1     -43.501  58.096 -52.446  1.00  0.00     0.102 A 
HETATM    3  C   UNL     1     -43.754  58.724 -53.676  1.00  0.00     0.048 A 
HETATM    4  C   UNL     1     -42.715  59.200 -54.483  1.00  0.00    -0.042 A 
HETATM    5  C   UNL     1     -41.402  59.077 -54.022  1.00  0.00     0.011 A 
HETATM    6  C   UNL     1     -41.137  58.467 -52.792  1.00  0.00     0.040 A 
ENDROOT
BRANCH   4   7
HETATM    7  C   UNL     1     -42.999  59.839 -55.820  1.00  0.00     0.131 C 
BRANCH   7   8
HETATM    8  N   UNL     1     -42.203  59.187 -56.851  1.00  0.00    -0.289 NA
HETATM    9  H   UNL     1     -41.855  59.856 -57.534  1.00  0.00     0.128 HD
BRANCH   8  10
HETATM   10  C   UNL     1     -42.711  58.029 -57.462  1.00  0.00     0.010 A 
HETATM   11  C   UNL     1     -43.255  58.141 -58.754  1.00  0.00     0.055 A 
HETATM   12  C   UNL     1     -43.694  56.991 -59.371  1.00  0.00     0.065 A 
HETATM   13  C   UNL     1     -43.580  55.740 -58.775  1.00  0.00     0.063 A 
HETATM   14  N   UNL     1     -44.288  56.818 -60.617  1.00  0.00    -0.306 N 
HETATM   15  N   UNL     1     -44.104  54.796 -59.649  1.00  0.00    -0.307 N 
HETATM   16  C   UNL     1     -43.016  55.575 -57.536  1.00  0.00     0.034 A 
HETATM   17  C   UNL     1     -44.552  55.453 -60.805  1.00  0.00     0.325 A 
HETATM   18  H   UNL     1     -44.162  53.801 -59.513  1.00  0.00     0.170 HD
HETATM   19  O   UNL     1     -45.068  54.938 -61.780  1.00  0.00    -0.247 OA
HETATM   20  C   UNL     1     -42.569  56.736 -56.889  1.00  0.00     0.026 A 
HETATM   21  H   UNL     1     -44.505  57.529 -61.295  1.00  0.00     0.170 HD
ENDBRANCH   8  10
ENDBRANCH   7   8
ENDBRANCH   4   7
BRANCH   2  22
HETATM   22  O   UNL     1     -44.656  57.691 -51.827  1.00  0.00    -0.353 OA
HETATM   23  C   UNL     1     -45.447  58.659 -51.156  1.00  0.00     0.210 C 
ENDBRANCH   2  22
BRANCH   1  24
HETATM   24  O   UNL     1     -41.946  57.338 -50.801  1.00  0.00    -0.339 OA
BRANCH  24  25
HETATM   25  C   UNL     1     -41.011  56.263 -50.786  1.00  0.00     0.278 C 
BRANCH  25  26
HETATM   26  C   UNL     1     -41.414  55.049 -51.633  1.00  0.00     0.242 C 
HETATM   27  N   UNL     1     -40.731  54.936 -52.825  1.00  0.00    -0.351 N 
HETATM   28  H   UNL     1     -40.141  55.727 -53.067  1.00  0.00     0.163 HD
HETATM   29  O   UNL     1     -42.272  54.259 -51.250  1.00  0.00    -0.271 OA
BRANCH  27  30
HETATM   30  C   UNL     1     -40.950  53.904 -53.845  1.00  0.00     0.022 C 
HETATM   31  C   UNL     1     -42.430  53.857 -54.252  1.00  0.00     0.037 C 
HETATM   32  C   UNL     1     -40.494  52.521 -53.353  1.00  0.00     0.037 C 
HETATM   33  C   UNL     1     -40.110  54.272 -55.082  1.00  0.00     0.037 C 
ENDBRANCH  27  30
ENDBRANCH  25  26
ENDBRANCH  24  25
ENDBRANCH   1  24
TORSDOF 8
ENDMDL
MODEL 5
REMARK VINA RESULT:      -7.2      2.764      6.581
REMARK  8 active torsions:
REMARK  status: ('A' for Active; 'I' for Inactive)
REMARK    1  A    between atoms: C_2  and  N_3 
REMARK       I    between atoms: N_3  and  C_4 
REMARK    2  A    between atoms: C_4  and  C_5 
REMARK    3  A    between atoms: C_5  and  O_6 
REMARK    4  A    between atoms: O_6  and  C_7 
REMARK    5  A    between atoms: C_8  and  O_9 
REMARK    6  A    between atoms: C_12  and  C_13 
REMARK    7  A    between atoms: C_13  and  N_14 
REMARK    8  A    between atoms: N_14  and  C_15 
ROOT
HETATM    1  C   UNL     1     -41.570  57.364 -50.959  1.00  0.00     0.102 A 
HETATM    2  C   UNL     1     -42.860  57.599 -51.464  1.00  0.00     0.102 A 
HETATM    3  C   UNL     1     -43.041  58.551 -52.480  1.00  0.00     0.048 A 
HETATM    4  C   UNL     1     -41.960  59.244 -53.036  1.00  0.00    -0.042 A 
HETATM    5  C   UNL     1     -40.681  59.003 -52.529  1.00  0.00     0.011 A 
HETATM    6  C   UNL     1     -40.488  58.068 -51.508  1.00  0.00     0.040 A 
ENDROOT
BRANCH   4   7
HETATM    7  C   UNL     1     -42.166  60.237 -54.153  1.00  0.00     0.131 C 
BRANCH   7   8
HETATM    8  N   UNL     1     -41.644  59.686 -55.397  1.00  0.00    -0.289 NA
HETATM    9  H   UNL     1     -41.112  60.380 -55.918  1.00  0.00     0.128 HD
BRANCH   8  10
HETATM   10  C   UNL     1     -42.512  58.957 -56.225  1.00  0.00     0.010 A 
HETATM   11  C   UNL     1     -41.950  58.112 -57.200  1.00  0.00     0.055 A 
HETATM   12  C   UNL     1     -42.806  57.353 -57.965  1.00  0.00     0.065 A 
HETATM   13  C   UNL     1     -44.183  57.371 -57.778  1.00  0.00     0.063 A 
HETATM   14  N   UNL     1     -42.528  56.465 -59.000  1.00  0.00    -0.306 N 
HETATM   15  N   UNL     1     -44.756  56.500 -58.695  1.00  0.00    -0.307 N 
HETATM   16  C   UNL     1     -44.774  58.145 -56.812  1.00  0.00     0.034 A 
HETATM   17  C   UNL     1     -43.735  55.926 -59.468  1.00  0.00     0.325 A 
HETATM   18  H   UNL     1     -45.733  56.286 -58.811  1.00  0.00     0.170 HD
HETATM   19  O   UNL     1     -43.872  55.117 -60.368  1.00  0.00    -0.247 OA
HETATM   20  C   UNL     1     -43.918  58.931 -56.026  1.00  0.00     0.026 A 
HETATM   21  H   UNL     1     -41.625  56.226 -59.375  1.00  0.00     0.170 HD
ENDBRANCH   8  10
ENDBRANCH   7   8
ENDBRANCH   4   7
BRANCH   2  22
HETATM   22  O   UNL     1     -44.043  57.026 -51.077  1.00  0.00    -0.353 OA
HETATM   23  C   UNL     1     -45.222  57.816 -51.093  1.00  0.00     0.210 C 
ENDBRANCH   2  22
BRANCH   1  24
HETATM   24  O   UNL     1     -41.406  56.411 -49.989  1.00  0.00    -0.339 OA
BRANCH  24  25
HETATM   25  C   UNL     1     -40.725  55.208 -50.334  1.00  0.00     0.278 C 
BRANCH  25  26
HETATM   26  C   UNL     1     -41.350  54.428 -51.499  1.00  0.00     0.242 C 
HETATM   27  N   UNL     1     -40.697  54.588 -52.703  1.00  0.00    -0.351 N 
HETATM   28  H   UNL     1     -39.968  55.295 -52.714  1.00  0.00     0.163 HD
HETATM   29  O   UNL     1     -42.342  53.725 -51.339  1.00  0.00    -0.271 OA
BRANCH  27  30
HETATM   30  C   UNL     1     -41.106  54.001 -53.985  1.00  0.00     0.022 C 
HETATM   31  C   UNL     1     -42.525  54.454 -54.355  1.00  0.00     0.037 C 
HETATM   32  C   UNL     1     -41.035  52.466 -53.947  1.00  0.00     0.037 C 
HETATM   33  C   UNL     1     -40.130  54.498 -55.067  1.00  0.00     0.037 C 
ENDBRANCH  27  30
ENDBRANCH  25  26
ENDBRANCH  24  25
ENDBRANCH   1  24
TORSDOF 8
ENDMDL
MODEL 6
REMARK VINA RESULT:      -7.2      4.231      6.654
REMARK  8 active torsions:
REMARK  status: ('A' for Active; 'I' for Inactive)
REMARK    1  A    between atoms: C_2  and  N_3 
REMARK       I    between atoms: N_3  and  C_4 
REMARK    2  A    between atoms: C_4  and  C_5 
REMARK    3  A    between atoms: C_5  and  O_6 
REMARK    4  A    between atoms: O_6  and  C_7 
REMARK    5  A    between atoms: C_8  and  O_9 
REMARK    6  A    between atoms: C_12  and  C_13 
REMARK    7  A    between atoms: C_13  and  N_14 
REMARK    8  A    between atoms: N_14  and  C_15 
ROOT
HETATM    1  C   UNL     1     -42.536  57.937 -59.512  1.00  0.00     0.102 A 
HETATM    2  C   UNL     1     -43.013  56.621 -59.392  1.00  0.00     0.102 A 
HETATM    3  C   UNL     1     -42.964  55.980 -58.143  1.00  0.00     0.048 A 
HETATM    4  C   UNL     1     -42.491  56.637 -57.001  1.00  0.00    -0.042 A 
HETATM    5  C   UNL     1     -42.021  57.946 -57.130  1.00  0.00     0.011 A 
HETATM    6  C   UNL     1     -42.051  58.591 -58.370  1.00  0.00     0.040 A 
ENDROOT
BRANCH   4   7
HETATM    7  C   UNL     1     -42.479  55.948 -55.659  1.00  0.00     0.131 C 
BRANCH   7   8
HETATM    8  N   UNL     1     -41.414  54.954 -55.631  1.00  0.00    -0.289 NA
HETATM    9  H   UNL     1     -41.486  54.307 -56.413  1.00  0.00     0.128 HD
BRANCH   8  10
HETATM   10  C   UNL     1     -41.146  54.290 -54.423  1.00  0.00     0.010 A 
HETATM   11  C   UNL     1     -40.563  53.011 -54.480  1.00  0.00     0.055 A 
HETATM   12  C   UNL     1     -40.245  52.394 -53.292  1.00  0.00     0.065 A 
HETATM   13  C   UNL     1     -40.447  53.006 -52.061  1.00  0.00     0.063 A 
HETATM   14  N   UNL     1     -39.692  51.138 -53.058  1.00  0.00    -0.306 N 
HETATM   15  N   UNL     1     -40.022  52.132 -51.068  1.00  0.00    -0.307 N 
HETATM   16  C   UNL     1     -40.971  54.269 -51.955  1.00  0.00     0.034 A 
HETATM   17  C   UNL     1     -39.548  50.960 -51.675  1.00  0.00     0.325 A 
HETATM   18  H   UNL     1     -40.031  52.284 -50.073  1.00  0.00     0.170 HD
HETATM   19  O   UNL     1     -39.099  49.979 -51.110  1.00  0.00    -0.247 OA
HETATM   20  C   UNL     1     -41.307  54.912 -53.156  1.00  0.00     0.026 A 
HETATM   21  H   UNL     1     -39.426  50.450 -53.743  1.00  0.00     0.170 HD
ENDBRANCH   8  10
ENDBRANCH   7   8
ENDBRANCH   4   7
BRANCH   2  22
HETATM   22  O   UNL     1     -43.525  55.807 -60.369  1.00  0.00    -0.353 OA
HETATM   23  C   UNL     1     -44.373  54.735 -59.989  1.00  0.00     0.210 C 
ENDBRANCH   2  22
BRANCH   1  24
HETATM   24  O   UNL     1     -42.618  58.558 -60.731  1.00  0.00    -0.339 OA
BRANCH  24  25
HETATM   25  C   UNL     1     -43.546  59.629 -60.881  1.00  0.00     0.278 C 
BRANCH  25  26
HETATM   26  C   UNL     1     -44.916  59.388 -60.233  1.00  0.00     0.242 C 
HETATM   27  N   UNL     1     -45.618  58.328 -60.767  1.00  0.00    -0.351 N 
HETATM   28  H   UNL     1     -45.215  57.915 -61.603  1.00  0.00     0.163 HD
HETATM   29  O   UNL     1     -45.321  60.092 -59.313  1.00  0.00    -0.271 OA
BRANCH  27  30
HETATM   30  C   UNL     1     -46.968  57.907 -60.373  1.00  0.00     0.022 C 
HETATM   31  C   UNL     1     -47.975  59.040 -60.614  1.00  0.00     0.037 C 
HETATM   32  C   UNL     1     -47.011  57.466 -58.901  1.00  0.00     0.037 C 
HETATM   33  C   UNL     1     -47.362  56.701 -61.245  1.00  0.00     0.037 C 
ENDBRANCH  27  30
ENDBRANCH  25  26
ENDBRANCH  24  25
ENDBRANCH   1  24
TORSDOF 8
ENDMDL
MODEL 7
REMARK VINA RESULT:      -7.2      3.097      4.822
REMARK  8 active torsions:
REMARK  status: ('A' for Active; 'I' for Inactive)
REMARK    1  A    between atoms: C_2  and  N_3 
REMARK       I    between atoms: N_3  and  C_4 
REMARK    2  A    between atoms: C_4  and  C_5 
REMARK    3  A    between atoms: C_5  and  O_6 
REMARK    4  A    between atoms: O_6  and  C_7 
REMARK    5  A    between atoms: C_8  and  O_9 
REMARK    6  A    between atoms: C_12  and  C_13 
REMARK    7  A    between atoms: C_13  and  N_14 
REMARK    8  A    between atoms: N_14  and  C_15 
ROOT
HETATM    1  C   UNL     1     -44.796  58.547 -56.242  1.00  0.00     0.102 A 
HETATM    2  C   UNL     1     -43.499  58.948 -56.606  1.00  0.00     0.102 A 
HETATM    3  C   UNL     1     -42.400  58.473 -55.873  1.00  0.00     0.048 A 
HETATM    4  C   UNL     1     -42.559  57.573 -54.813  1.00  0.00    -0.042 A 
HETATM    5  C   UNL     1     -43.852  57.180 -54.460  1.00  0.00     0.011 A 
HETATM    6  C   UNL     1     -44.957  57.656 -55.172  1.00  0.00     0.040 A 
ENDROOT
BRANCH   4   7
HETATM    7  C   UNL     1     -41.365  57.043 -54.058  1.00  0.00     0.131 C 
BRANCH   7   8
HETATM    8  N   UNL     1     -41.798  56.013 -53.123  1.00  0.00    -0.289 NA
HETATM    9  H   UNL     1     -41.864  56.375 -52.174  1.00  0.00     0.128 HD
BRANCH   8  10
HETATM   10  C   UNL     1     -41.169  54.759 -53.165  1.00  0.00     0.010 A 
HETATM   11  C   UNL     1     -40.959  54.076 -51.953  1.00  0.00     0.055 A 
HETATM   12  C   UNL     1     -40.400  52.820 -52.009  1.00  0.00     0.065 A 
HETATM   13  C   UNL     1     -40.078  52.204 -53.213  1.00  0.00     0.063 A 
HETATM   14  N   UNL     1     -40.064  51.946 -50.980  1.00  0.00    -0.306 N 
HETATM   15  N   UNL     1     -39.542  50.955 -52.929  1.00  0.00    -0.307 N 
HETATM   16  C   UNL     1     -40.304  52.810 -54.422  1.00  0.00     0.034 A 
HETATM   17  C   UNL     1     -39.526  50.777 -51.538  1.00  0.00     0.325 A 
HETATM   18  H   UNL     1     -39.218  50.263 -53.586  1.00  0.00     0.170 HD
HETATM   19  O   UNL     1     -39.123  49.800 -50.934  1.00  0.00    -0.247 OA
HETATM   20  C   UNL     1     -40.868  54.095 -54.385  1.00  0.00     0.026 A 
HETATM   21  H   UNL     1     -40.176  52.095 -49.990  1.00  0.00     0.170 HD
ENDBRANCH   8  10
ENDBRANCH   7   8
ENDBRANCH   4   7
BRANCH   2  22
HETATM   22  O   UNL     1     -43.121  59.801 -57.609  1.00  0.00    -0.353 OA
HETATM   23  C   UNL     1     -41.738  60.063 -57.797  1.00  0.00     0.210 C 
ENDBRANCH   2  22
BRANCH   1  24
HETATM   24  O   UNL     1     -45.856  58.996 -56.986  1.00  0.00    -0.339 OA
BRANCH  24  25
HETATM   25  C   UNL     1     -46.510  58.074 -57.853  1.00  0.00     0.278 C 
BRANCH  25  26
HETATM   26  C   UNL     1     -45.643  57.549 -59.004  1.00  0.00     0.242 C 
HETATM   27  N   UNL     1     -45.343  56.206 -58.922  1.00  0.00    -0.351 N 
HETATM   28  H   UNL     1     -45.614  55.750 -58.056  1.00  0.00     0.163 HD
HETATM   29  O   UNL     1     -45.270  58.287 -59.912  1.00  0.00    -0.271 OA
BRANCH  27  30
HETATM   30  C   UNL     1     -44.494  55.458 -59.858  1.00  0.00     0.022 C 
HETATM   31  C   UNL     1     -43.087  56.069 -59.913  1.00  0.00     0.037 C 
HETATM   32  C   UNL     1     -45.109  55.419 -61.266  1.00  0.00     0.037 C 
HETATM   33  C   UNL     1     -44.383  54.010 -59.344  1.00  0.00     0.037 C 
ENDBRANCH  27  30
ENDBRANCH  25  26
ENDBRANCH  24  25
ENDBRANCH   1  24
TORSDOF 8
ENDMDL
MODEL 8
REMARK VINA RESULT:      -7.1      2.607      3.589
REMARK  8 active torsions:
REMARK  status: ('A' for Active; 'I' for Inactive)
REMARK    1  A    between atoms: C_2  and  N_3 
REMARK       I    between atoms: N_3  and  C_4 
REMARK    2  A    between atoms: C_4  and  C_5 
REMARK    3  A    between atoms: C_5  and  O_6 
REMARK    4  A    between atoms: O_6  and  C_7 
REMARK    5  A    between atoms: C_8  and  O_9 
REMARK    6  A    between atoms: C_12  and  C_13 
REMARK    7  A    between atoms: C_13  and  N_14 
REMARK    8  A    between atoms: N_14  and  C_15 
ROOT
HETATM    1  C   UNL     1     -44.841  57.856 -54.364  1.00  0.00     0.102 A 
HETATM    2  C   UNL     1     -44.632  58.532 -53.150  1.00  0.00     0.102 A 
HETATM    3  C   UNL     1     -43.930  57.893 -52.116  1.00  0.00     0.048 A 
HETATM    4  C   UNL     1     -43.393  56.611 -52.278  1.00  0.00    -0.042 A 
HETATM    5  C   UNL     1     -43.603  55.948 -53.489  1.00  0.00     0.011 A 
HETATM    6  C   UNL     1     -44.313  56.566 -54.522  1.00  0.00     0.040 A 
ENDROOT
BRANCH   4   7
HETATM    7  C   UNL     1     -42.608  55.952 -51.170  1.00  0.00     0.131 C 
BRANCH   7   8
HETATM    8  N   UNL     1     -41.257  55.665 -51.634  1.00  0.00    -0.289 NA
HETATM    9  H   UNL     1     -41.018  56.219 -52.454  1.00  0.00     0.128 HD
BRANCH   8  10
HETATM   10  C   UNL     1     -40.865  54.324 -51.773  1.00  0.00     0.010 A 
HETATM   11  C   UNL     1     -40.863  53.760 -53.061  1.00  0.00     0.055 A 
HETATM   12  C   UNL     1     -40.417  52.465 -53.197  1.00  0.00     0.065 A 
HETATM   13  C   UNL     1     -39.943  51.726 -52.119  1.00  0.00     0.063 A 
HETATM   14  N   UNL     1     -40.332  51.664 -54.332  1.00  0.00    -0.306 N 
HETATM   15  N   UNL     1     -39.568  50.473 -52.584  1.00  0.00    -0.307 N 
HETATM   16  C   UNL     1     -39.885  52.248 -50.852  1.00  0.00     0.034 A 
HETATM   17  C   UNL     1     -39.805  50.417 -53.966  1.00  0.00     0.325 A 
HETATM   18  H   UNL     1     -39.181  49.711 -52.051  1.00  0.00     0.170 HD
HETATM   19  O   UNL     1     -39.595  49.470 -54.702  1.00  0.00    -0.247 OA
HETATM   20  C   UNL     1     -40.341  53.565 -50.692  1.00  0.00     0.026 A 
HETATM   21  H   UNL     1     -40.594  51.908 -55.273  1.00  0.00     0.170 HD
ENDBRANCH   8  10
ENDBRANCH   7   8
ENDBRANCH   4   7
BRANCH   2  22
HETATM   22  O   UNL     1     -45.056  59.785 -52.789  1.00  0.00    -0.353 OA
HETATM   23  C   UNL     1     -46.013  59.909 -51.748  1.00  0.00     0.210 C 
ENDBRANCH   2  22
BRANCH   1  24
HETATM   24  O   UNL     1     -45.502  58.505 -55.374  1.00  0.00    -0.339 OA
BRANCH  24  25
HETATM   25  C   UNL     1     -44.730  59.097 -56.414  1.00  0.00     0.278 C 
BRANCH  25  26
HETATM   26  C   UNL     1     -45.036  58.569 -57.822  1.00  0.00     0.242 C 
HETATM   27  N   UNL     1     -44.552  57.302 -58.071  1.00  0.00    -0.351 N 
HETATM   28  H   UNL     1     -43.945  56.918 -57.353  1.00  0.00     0.163 HD
HETATM   29  O   UNL     1     -45.666  59.240 -58.634  1.00  0.00    -0.271 OA
BRANCH  27  30
HETATM   30  C   UNL     1     -44.658  56.578 -59.343  1.00  0.00     0.022 C 
HETATM   31  C   UNL     1     -43.895  57.320 -60.449  1.00  0.00     0.037 C 
HETATM   32  C   UNL     1     -46.126  56.380 -59.756  1.00  0.00     0.037 C 
HETATM   33  C   UNL     1     -44.024  55.188 -59.152  1.00  0.00     0.037 C 
ENDBRANCH  27  30
ENDBRANCH  25  26
ENDBRANCH  24  25
ENDBRANCH   1  24
TORSDOF 8
ENDMDL
MODEL 9
REMARK VINA RESULT:      -6.9      4.203      7.377
REMARK  8 active torsions:
REMARK  status: ('A' for Active; 'I' for Inactive)
REMARK    1  A    between atoms: C_2  and  N_3 
REMARK       I    between atoms: N_3  and  C_4 
REMARK    2  A    between atoms: C_4  and  C_5 
REMARK    3  A    between atoms: C_5  and  O_6 
REMARK    4  A    between atoms: O_6  and  C_7 
REMARK    5  A    between atoms: C_8  and  O_9 
REMARK    6  A    between atoms: C_12  and  C_13 
REMARK    7  A    between atoms: C_13  and  N_14 
REMARK    8  A    between atoms: N_14  and  C_15 
ROOT
HETATM    1  C   UNL     1     -42.593  57.544 -59.317  1.00  0.00     0.102 A 
HETATM    2  C   UNL     1     -43.223  56.294 -59.450  1.00  0.00     0.102 A 
HETATM    3  C   UNL     1     -43.347  55.461 -58.326  1.00  0.00     0.048 A 
HETATM    4  C   UNL     1     -42.898  55.863 -57.063  1.00  0.00    -0.042 A 
HETATM    5  C   UNL     1     -42.276  57.108 -56.941  1.00  0.00     0.011 A 
HETATM    6  C   UNL     1     -42.132  57.941 -58.054  1.00  0.00     0.040 A 
ENDROOT
BRANCH   4   7
HETATM    7  C   UNL     1     -43.073  54.972 -55.858  1.00  0.00     0.131 C 
BRANCH   7   8
HETATM    8  N   UNL     1     -43.954  55.621 -54.896  1.00  0.00    -0.289 NA
HETATM    9  H   UNL     1     -44.407  56.439 -55.298  1.00  0.00     0.128 HD
BRANCH   8  10
HETATM   10  C   UNL     1     -43.470  55.870 -53.602  1.00  0.00     0.010 A 
HETATM   11  C   UNL     1     -43.057  54.775 -52.822  1.00  0.00     0.055 A 
HETATM   12  C   UNL     1     -42.525  55.032 -51.579  1.00  0.00     0.065 A 
HETATM   13  C   UNL     1     -42.354  56.326 -51.099  1.00  0.00     0.063 A 
HETATM   14  N   UNL     1     -42.067  54.151 -50.604  1.00  0.00    -0.306 N 
HETATM   15  N   UNL     1     -41.794  56.245 -49.830  1.00  0.00    -0.307 N 
HETATM   16  C   UNL     1     -42.700  57.426 -51.839  1.00  0.00     0.034 A 
HETATM   17  C   UNL     1     -41.609  54.893 -49.506  1.00  0.00     0.325 A 
HETATM   18  H   UNL     1     -41.544  57.006 -49.221  1.00  0.00     0.170 HD
HETATM   19  O   UNL     1     -41.141  54.451 -48.472  1.00  0.00    -0.247 OA
HETATM   20  C   UNL     1     -43.251  57.184 -53.107  1.00  0.00     0.026 A 
HETATM   21  H   UNL     1     -42.051  53.146 -50.648  1.00  0.00     0.170 HD
ENDBRANCH   8  10
ENDBRANCH   7   8
ENDBRANCH   4   7
BRANCH   2  22
HETATM   22  O   UNL     1     -43.742  55.718 -60.580  1.00  0.00    -0.353 OA
HETATM   23  C   UNL     1     -44.738  54.716 -60.439  1.00  0.00     0.210 C 
ENDBRANCH   2  22
BRANCH   1  24
HETATM   24  O   UNL     1     -42.506  58.357 -60.417  1.00  0.00    -0.339 OA
BRANCH  24  25
HETATM   25  C   UNL     1     -43.346  59.506 -60.473  1.00  0.00     0.278 C 
BRANCH  25  26
HETATM   26  C   UNL     1     -44.757  59.299 -59.907  1.00  0.00     0.242 C 
HETATM   27  N   UNL     1     -45.533  58.417 -60.628  1.00  0.00    -0.351 N 
HETATM   28  H   UNL     1     -45.138  58.108 -61.511  1.00  0.00     0.163 HD
HETATM   29  O   UNL     1     -45.131  59.880 -58.893  1.00  0.00    -0.271 OA
BRANCH  27  30
HETATM   30  C   UNL     1     -46.932  58.073 -60.342  1.00  0.00     0.022 C 
HETATM   31  C   UNL     1     -47.461  57.070 -61.376  1.00  0.00     0.037 C 
HETATM   32  C   UNL     1     -47.824  59.324 -60.315  1.00  0.00     0.037 C 
HETATM   33  C   UNL     1     -46.984  57.419 -58.949  1.00  0.00     0.037 C 
ENDBRANCH  27  30
ENDBRANCH  25  26
ENDBRANCH  24  25
ENDBRANCH   1  24
TORSDOF 8
ENDMDL
MODEL 10
REMARK VINA RESULT:      -6.9      2.650      6.210
REMARK  8 active torsions:
REMARK  status: ('A' for Active; 'I' for Inactive)
REMARK    1  A    between atoms: C_2  and  N_3 
REMARK       I    between atoms: N_3  and  C_4 
REMARK    2  A    between atoms: C_4  and  C_5 
REMARK    3  A    between atoms: C_5  and  O_6 
REMARK    4  A    between atoms: O_6  and  C_7 
REMARK    5  A    between atoms: C_8  and  O_9 
REMARK    6  A    between atoms: C_12  and  C_13 
REMARK    7  A    between atoms: C_13  and  N_14 
REMARK    8  A    between atoms: N_14  and  C_15 
ROOT
HETATM    1  C   UNL     1     -42.041  56.206 -50.565  1.00  0.00     0.102 A 
HETATM    2  C   UNL     1     -41.507  57.419 -51.032  1.00  0.00     0.102 A 
HETATM    3  C   UNL     1     -42.214  58.160 -51.993  1.00  0.00     0.048 A 
HETATM    4  C   UNL     1     -43.462  57.742 -52.468  1.00  0.00    -0.042 A 
HETATM    5  C   UNL     1     -43.986  56.536 -51.996  1.00  0.00     0.011 A 
HETATM    6  C   UNL     1     -43.286  55.781 -51.051  1.00  0.00     0.040 A 
ENDROOT
BRANCH   4   7
HETATM    7  C   UNL     1     -44.227  58.568 -53.473  1.00  0.00     0.131 C 
BRANCH   7   8
HETATM    8  N   UNL     1     -43.394  58.803 -54.645  1.00  0.00    -0.289 NA
HETATM    9  H   UNL     1     -43.506  59.750 -54.999  1.00  0.00     0.128 HD
BRANCH   8  10
HETATM   10  C   UNL     1     -43.401  57.851 -55.677  1.00  0.00     0.010 A 
HETATM   11  C   UNL     1     -43.967  58.211 -56.913  1.00  0.00     0.055 A 
HETATM   12  C   UNL     1     -43.913  57.295 -57.938  1.00  0.00     0.065 A 
HETATM   13  C   UNL     1     -43.292  56.059 -57.797  1.00  0.00     0.063 A 
HETATM   14  N   UNL     1     -44.408  57.377 -59.236  1.00  0.00    -0.306 N 
HETATM   15  N   UNL     1     -43.405  55.378 -59.002  1.00  0.00    -0.307 N 
HETATM   16  C   UNL     1     -42.688  55.680 -56.626  1.00  0.00     0.034 A 
HETATM   17  C   UNL     1     -44.100  56.188 -59.913  1.00  0.00     0.325 A 
HETATM   18  H   UNL     1     -43.052  54.461 -59.224  1.00  0.00     0.170 HD
HETATM   19  O   UNL     1     -44.381  55.911 -61.065  1.00  0.00    -0.247 OA
HETATM   20  C   UNL     1     -42.738  56.598 -55.567  1.00  0.00     0.026 A 
HETATM   21  H   UNL     1     -44.906  58.146 -59.653  1.00  0.00     0.170 HD
ENDBRANCH   8  10
ENDBRANCH   7   8
ENDBRANCH   4   7
BRANCH   2  22
HETATM   22  O   UNL     1     -40.320  58.014 -50.693  1.00  0.00    -0.353 OA
HETATM   23  C   UNL     1     -39.983  59.256 -51.292  1.00  0.00     0.210 C 
ENDBRANCH   2  22
BRANCH   1  24
HETATM   24  O   UNL     1     -41.353  55.510 -49.606  1.00  0.00    -0.339 OA
BRANCH  24  25
HETATM   25  C   UNL     1     -40.248  54.710 -50.017  1.00  0.00     0.278 C 
BRANCH  25  26
HETATM   26  C   UNL     1     -40.564  53.698 -51.126  1.00  0.00     0.242 C 
HETATM   27  N   UNL     1     -40.306  54.154 -52.401  1.00  0.00    -0.351 N 
HETATM   28  H   UNL     1     -40.064  55.138 -52.472  1.00  0.00     0.163 HD
HETATM   29  O   UNL     1     -41.002  52.581 -50.867  1.00  0.00    -0.271 OA
BRANCH  27  30
HETATM   30  C   UNL     1     -40.561  53.416 -53.644  1.00  0.00     0.022 C 
HETATM   31  C   UNL     1     -40.004  51.989 -53.546  1.00  0.00     0.037 C 
HETATM   32  C   UNL     1     -39.956  54.137 -54.860  1.00  0.00     0.037 C 
HETATM   33  C   UNL     1     -42.086  53.338 -53.846  1.00  0.00     0.037 C 
ENDBRANCH  27  30
ENDBRANCH  25  26
ENDBRANCH  24  25
ENDBRANCH   1  24
TORSDOF 8
ENDMDL
