MODEL 1
REMARK VINA RESULT:      -8.6      0.000      0.000
REMARK  5 active torsions:
REMARK  status: ('A' for Active; 'I' for Inactive)
REMARK    1  A    between atoms: C_10  and  C_11 
REMARK    2  A    between atoms: C_13  and  O_14 
REMARK    3  A    between atoms: C_16  and  O_17 
REMARK    4  A    between atoms: O_17  and  C_18 
REMARK    5  A    between atoms: C_18  and  C_19 
ROOT
HETATM    1  C   UNL     1     -44.262  57.497 -56.840  1.00  0.00    -0.013 A 
HETATM    2  C   UNL     1     -44.314  57.270 -55.450  1.00  0.00     0.050 A 
HETATM    3  C   UNL     1     -43.643  56.191 -54.866  1.00  0.00     0.102 A 
HETATM    4  C   UNL     1     -42.872  55.354 -55.683  1.00  0.00     0.112 A 
HETATM    5  C   UNL     1     -42.834  55.533 -57.065  1.00  0.00     0.041 A 
HETATM    6  C   UNL     1     -43.518  56.607 -57.636  1.00  0.00     0.014 A 
ENDROOT
BRANCH   1   7
HETATM    7  C   UNL     1     -44.908  58.708 -57.493  1.00  0.00     0.219 C 
HETATM    8  N   UNL     1     -44.427  59.966 -56.955  1.00  0.00    -0.358 N 
HETATM    9  C   UNL     1     -43.470  60.655 -57.609  1.00  0.00     0.088 A 
HETATM   10  H   UNL     1     -44.559  60.085 -55.954  1.00  0.00     0.162 HD
HETATM   11  C   UNL     1     -43.093  60.378 -58.902  1.00  0.00     0.073 A 
HETATM   12  S   UNL     1     -42.583  61.938 -56.931  1.00  0.00    -0.074 SA
HETATM   13  C   UNL     1     -42.045  61.245 -59.349  1.00  0.00    -0.023 A 
HETATM   14  C   UNL     1     -43.764  59.309 -59.618  1.00  0.00     0.256 C 
HETATM   15  C   UNL     1     -41.677  62.135 -58.357  1.00  0.00     0.018 A 
HETATM   16  C   UNL     1     -41.372  61.235 -60.690  1.00  0.00     0.068 C 
HETATM   17  C   UNL     1     -40.628  63.184 -58.497  1.00  0.00     0.281 C 
HETATM   18  N   UNL     1     -39.742  62.886 -59.701  1.00  0.00    -0.070 N 
HETATM   19  C   UNL     1     -38.769  63.990 -59.967  1.00  0.00     0.270 C 
HETATM   20  H   UNL     1     -39.199  62.048 -59.452  1.00  0.00     0.279 HD
HETATM   21  C   UNL     1     -40.569  62.525 -60.933  1.00  0.00     0.239 C 
HETATM   22  N   UNL     1     -44.750  58.666 -58.926  1.00  0.00    -0.332 N 
HETATM   23  O   UNL     1     -43.492  59.020 -60.778  1.00  0.00    -0.267 OA
HETATM   24  H   UNL     1     -45.151  57.880 -59.416  1.00  0.00     0.165 HD
ENDBRANCH   1   7
BRANCH   3  25
HETATM   25  O   UNL     1     -43.647  55.898 -53.529  1.00  0.00    -0.353 OA
HETATM   26  C   UNL     1     -43.953  56.960 -52.636  1.00  0.00     0.210 C 
ENDBRANCH   3  25
BRANCH   4  27
HETATM   27  O   UNL     1     -42.186  54.298 -55.060  1.00  0.00    -0.272 OA
BRANCH  27  28
HETATM   28  C   UNL     1     -40.944  54.608 -54.546  1.00  0.00     0.300 C 
HETATM   29  O   UNL     1     -40.241  55.582 -54.753  1.00  0.00    -0.259 OA
BRANCH  28  30
HETATM   30  C   UNL     1     -40.546  53.492 -53.680  1.00  0.00     0.061 A 
HETATM   31  C   UNL     1     -40.538  53.632 -52.288  1.00  0.00     0.051 A 
HETATM   32 CL   UNL     1     -40.988  55.104 -51.504  1.00  0.00    -0.083 Cl
HETATM   33  C   UNL     1     -40.136  52.560 -51.488  1.00  0.00     0.048 A 
HETATM   34  C   UNL     1     -39.739  51.363 -52.085  1.00  0.00     0.035 A 
HETATM   35 CL   UNL     1     -39.245  50.046 -51.097  1.00  0.00    -0.084 Cl
HETATM   36  C   UNL     1     -39.735  51.227 -53.474  1.00  0.00     0.025 A 
HETATM   37  C   UNL     1     -40.135  52.296 -54.279  1.00  0.00     0.021 A 
ENDBRANCH  28  30
ENDBRANCH  27  28
ENDBRANCH   4  27
TORSDOF 5
ENDMDL
MODEL 2
REMARK VINA RESULT:      -8.5      1.686      2.131
REMARK  5 active torsions:
REMARK  status: ('A' for Active; 'I' for Inactive)
REMARK    1  A    between atoms: C_10  and  C_11 
REMARK    2  A    between atoms: C_13  and  O_14 
REMARK    3  A    between atoms: C_16  and  O_17 
REMARK    4  A    between atoms: O_17  and  C_18 
REMARK    5  A    between atoms: C_18  and  C_19 
ROOT
HETATM    1  C   UNL     1     -43.336  56.982 -56.128  1.00  0.00    -0.013 A 
HETATM    2  C   UNL     1     -42.533  57.389 -55.043  1.00  0.00     0.050 A 
HETATM    3  C   UNL     1     -41.602  56.521 -54.464  1.00  0.00     0.102 A 
HETATM    4  C   UNL     1     -41.443  55.241 -55.011  1.00  0.00     0.112 A 
HETATM    5  C   UNL     1     -42.251  54.800 -56.058  1.00  0.00     0.041 A 
HETATM    6  C   UNL     1     -43.184  55.672 -56.619  1.00  0.00     0.014 A 
ENDROOT
BRANCH   1   7
HETATM    7  C   UNL     1     -44.294  57.928 -56.834  1.00  0.00     0.219 C 
HETATM    8  N   UNL     1     -43.980  59.325 -56.605  1.00  0.00    -0.358 N 
HETATM    9  C   UNL     1     -43.287  60.018 -57.532  1.00  0.00     0.088 A 
HETATM   10  H   UNL     1     -43.973  59.612 -55.630  1.00  0.00     0.162 HD
HETATM   11  C   UNL     1     -43.073  59.561 -58.810  1.00  0.00     0.073 A 
HETATM   12  S   UNL     1     -42.563  61.531 -57.249  1.00  0.00    -0.074 SA
HETATM   13  C   UNL     1     -42.293  60.481 -59.582  1.00  0.00    -0.023 A 
HETATM   14  C   UNL     1     -43.635  58.283 -59.205  1.00  0.00     0.256 C 
HETATM   15  C   UNL     1     -41.947  61.591 -58.834  1.00  0.00     0.018 A 
HETATM   16  C   UNL     1     -41.850  60.320 -61.006  1.00  0.00     0.068 C 
HETATM   17  C   UNL     1     -41.151  62.746 -59.337  1.00  0.00     0.281 C 
HETATM   18  N   UNL     1     -40.426  62.366 -60.623  1.00  0.00    -0.070 N 
HETATM   19  C   UNL     1     -39.733  63.538 -61.242  1.00  0.00     0.270 C 
HETATM   20  H   UNL     1     -39.702  61.688 -60.349  1.00  0.00     0.279 HD
HETATM   21  C   UNL     1     -41.353  61.650 -61.601  1.00  0.00     0.239 C 
HETATM   22  N   UNL     1     -44.359  57.638 -58.244  1.00  0.00    -0.332 N 
HETATM   23  O   UNL     1     -43.499  57.823 -60.333  1.00  0.00    -0.267 OA
HETATM   24  H   UNL     1     -44.676  56.718 -58.516  1.00  0.00     0.165 HD
ENDBRANCH   1   7
BRANCH   3  25
HETATM   25  O   UNL     1     -40.790  56.835 -53.408  1.00  0.00    -0.353 OA
HETATM   26  C   UNL     1     -41.365  57.600 -52.358  1.00  0.00     0.210 C 
ENDBRANCH   3  25
BRANCH   4  27
HETATM   27  O   UNL     1     -40.478  54.405 -54.425  1.00  0.00    -0.272 OA
BRANCH  27  28
HETATM   28  C   UNL     1     -40.960  53.266 -53.814  1.00  0.00     0.300 C 
HETATM   29  O   UNL     1     -41.397  52.245 -54.312  1.00  0.00    -0.259 OA
BRANCH  28  30
HETATM   30  C   UNL     1     -40.901  53.499 -52.366  1.00  0.00     0.061 A 
HETATM   31  C   UNL     1     -42.018  53.974 -51.670  1.00  0.00     0.051 A 
HETATM   32 CL   UNL     1     -43.519  54.316 -52.453  1.00  0.00    -0.083 Cl
HETATM   33  C   UNL     1     -41.929  54.206 -50.295  1.00  0.00     0.048 A 
HETATM   34  C   UNL     1     -40.725  53.967 -49.631  1.00  0.00     0.035 A 
HETATM   35 CL   UNL     1     -40.619  54.254 -47.939  1.00  0.00    -0.084 Cl
HETATM   36  C   UNL     1     -39.607  53.505 -50.327  1.00  0.00     0.025 A 
HETATM   37  C   UNL     1     -39.690  53.273 -51.701  1.00  0.00     0.021 A 
ENDBRANCH  28  30
ENDBRANCH  27  28
ENDBRANCH   4  27
TORSDOF 5
ENDMDL
MODEL 3
REMARK VINA RESULT:      -8.4      3.462      4.981
REMARK  5 active torsions:
REMARK  status: ('A' for Active; 'I' for Inactive)
REMARK    1  A    between atoms: C_10  and  C_11 
REMARK    2  A    between atoms: C_13  and  O_14 
REMARK    3  A    between atoms: C_16  and  O_17 
REMARK    4  A    between atoms: O_17  and  C_18 
REMARK    5  A    between atoms: C_18  and  C_19 
ROOT
HETATM    1  C   UNL     1     -42.405  59.057 -53.558  1.00  0.00    -0.013 A 
HETATM    2  C   UNL     1     -41.331  59.041 -52.645  1.00  0.00     0.050 A 
HETATM    3  C   UNL     1     -41.285  58.119 -51.595  1.00  0.00     0.102 A 
HETATM    4  C   UNL     1     -42.308  57.169 -51.486  1.00  0.00     0.112 A 
HETATM    5  C   UNL     1     -43.401  57.185 -52.352  1.00  0.00     0.041 A 
HETATM    6  C   UNL     1     -43.441  58.119 -53.388  1.00  0.00     0.014 A 
ENDROOT
BRANCH   1   7
HETATM    7  C   UNL     1     -42.443  59.988 -54.758  1.00  0.00     0.219 C 
HETATM    8  N   UNL     1     -42.080  59.328 -55.998  1.00  0.00    -0.358 N 
HETATM    9  C   UNL     1     -43.044  58.899 -56.837  1.00  0.00     0.088 A 
HETATM   10  H   UNL     1     -41.158  58.901 -56.005  1.00  0.00     0.162 HD
HETATM   11  C   UNL     1     -44.362  59.274 -56.726  1.00  0.00     0.073 A 
HETATM   12  S   UNL     1     -42.778  57.824 -58.128  1.00  0.00    -0.074 SA
HETATM   13  C   UNL     1     -45.178  58.662 -57.731  1.00  0.00    -0.023 A 
HETATM   14  C   UNL     1     -44.746  60.195 -55.673  1.00  0.00     0.256 C 
HETATM   15  C   UNL     1     -44.426  57.841 -58.551  1.00  0.00     0.018 A 
HETATM   16  C   UNL     1     -46.658  58.822 -57.918  1.00  0.00     0.068 C 
HETATM   17  C   UNL     1     -44.961  57.065 -59.706  1.00  0.00     0.281 C 
HETATM   18  N   UNL     1     -46.479  56.964 -59.615  1.00  0.00    -0.070 N 
HETATM   19  C   UNL     1     -47.071  56.323 -60.829  1.00  0.00     0.270 C 
HETATM   20  H   UNL     1     -46.674  56.349 -58.813  1.00  0.00     0.279 HD
HETATM   21  C   UNL     1     -47.115  58.316 -59.298  1.00  0.00     0.239 C 
HETATM   22  N   UNL     1     -43.729  60.630 -54.873  1.00  0.00    -0.332 N 
HETATM   23  O   UNL     1     -45.898  60.586 -55.527  1.00  0.00    -0.267 OA
HETATM   24  H   UNL     1     -44.030  61.209 -54.103  1.00  0.00     0.165 HD
ENDBRANCH   1   7
BRANCH   3  25
HETATM   25  O   UNL     1     -40.284  58.042 -50.665  1.00  0.00    -0.353 OA
HETATM   26  C   UNL     1     -39.375  59.133 -50.602  1.00  0.00     0.210 C 
ENDBRANCH   3  25
BRANCH   4  27
HETATM   27  O   UNL     1     -42.215  56.237 -50.439  1.00  0.00    -0.272 OA
BRANCH  27  28
HETATM   28  C   UNL     1     -42.891  55.049 -50.629  1.00  0.00     0.300 C 
HETATM   29  O   UNL     1     -44.016  54.734 -50.286  1.00  0.00    -0.259 OA
BRANCH  28  30
HETATM   30  C   UNL     1     -41.972  54.139 -51.322  1.00  0.00     0.061 A 
HETATM   31  C   UNL     1     -40.931  53.508 -50.633  1.00  0.00     0.051 A 
HETATM   32 CL   UNL     1     -40.658  53.752 -48.945  1.00  0.00    -0.083 Cl
HETATM   33  C   UNL     1     -40.059  52.661 -51.321  1.00  0.00     0.048 A 
HETATM   34  C   UNL     1     -40.230  52.460 -52.691  1.00  0.00     0.035 A 
HETATM   35 CL   UNL     1     -39.154  51.417 -53.536  1.00  0.00    -0.084 Cl
HETATM   36  C   UNL     1     -41.261  53.099 -53.382  1.00  0.00     0.025 A 
HETATM   37  C   UNL     1     -42.135  53.946 -52.699  1.00  0.00     0.021 A 
ENDBRANCH  28  30
ENDBRANCH  27  28
ENDBRANCH   4  27
TORSDOF 5
ENDMDL
MODEL 4
REMARK VINA RESULT:      -8.4      1.910      2.490
REMARK  5 active torsions:
REMARK  status: ('A' for Active; 'I' for Inactive)
REMARK    1  A    between atoms: C_10  and  C_11 
REMARK    2  A    between atoms: C_13  and  O_14 
REMARK    3  A    between atoms: C_16  and  O_17 
REMARK    4  A    between atoms: O_17  and  C_18 
REMARK    5  A    between atoms: C_18  and  C_19 
ROOT
HETATM    1  C   UNL     1     -44.838  57.436 -54.660  1.00  0.00    -0.013 A 
HETATM    2  C   UNL     1     -44.764  58.146 -53.445  1.00  0.00     0.050 A 
HETATM    3  C   UNL     1     -44.136  57.598 -52.322  1.00  0.00     0.102 A 
HETATM    4  C   UNL     1     -43.534  56.338 -52.433  1.00  0.00     0.112 A 
HETATM    5  C   UNL     1     -43.626  55.598 -53.611  1.00  0.00     0.041 A 
HETATM    6  C   UNL     1     -44.266  56.152 -54.720  1.00  0.00     0.014 A 
ENDROOT
BRANCH   1   7
HETATM    7  C   UNL     1     -45.436  58.037 -55.922  1.00  0.00     0.219 C 
HETATM    8  N   UNL     1     -45.570  59.480 -55.852  1.00  0.00    -0.358 N 
HETATM    9  C   UNL     1     -44.640  60.269 -56.428  1.00  0.00     0.088 A 
HETATM   10  H   UNL     1     -46.138  59.824 -55.083  1.00  0.00     0.162 HD
HETATM   11  C   UNL     1     -43.696  59.801 -57.309  1.00  0.00     0.073 A 
HETATM   12  S   UNL     1     -44.488  61.937 -56.131  1.00  0.00    -0.074 SA
HETATM   13  C   UNL     1     -42.821  60.842 -57.757  1.00  0.00    -0.023 A 
HETATM   14  C   UNL     1     -43.701  58.394 -57.666  1.00  0.00     0.256 C 
HETATM   15  C   UNL     1     -43.149  62.053 -57.176  1.00  0.00     0.018 A 
HETATM   16  C   UNL     1     -41.667  60.710 -58.707  1.00  0.00     0.068 C 
HETATM   17  C   UNL     1     -42.449  63.343 -57.435  1.00  0.00     0.281 C 
HETATM   18  N   UNL     1     -41.094  63.086 -58.084  1.00  0.00    -0.070 N 
HETATM   19  C   UNL     1     -40.422  64.356 -58.497  1.00  0.00     0.270 C 
HETATM   20  H   UNL     1     -40.511  62.649 -57.358  1.00  0.00     0.279 HD
HETATM   21  C   UNL     1     -41.200  62.080 -59.229  1.00  0.00     0.239 C 
HETATM   22  N   UNL     1     -44.684  57.644 -57.087  1.00  0.00    -0.332 N 
HETATM   23  O   UNL     1     -42.901  57.912 -58.460  1.00  0.00    -0.267 OA
HETATM   24  H   UNL     1     -44.623  56.657 -57.290  1.00  0.00     0.165 HD
ENDBRANCH   1   7
BRANCH   3  25
HETATM   25  O   UNL     1     -44.027  58.218 -51.107  1.00  0.00    -0.353 OA
HETATM   26  C   UNL     1     -43.307  59.443 -51.069  1.00  0.00     0.210 C 
ENDBRANCH   3  25
BRANCH   4  27
HETATM   27  O   UNL     1     -42.885  55.830 -51.295  1.00  0.00    -0.272 OA
BRANCH  27  28
HETATM   28  C   UNL     1     -41.508  55.905 -51.305  1.00  0.00     0.300 C 
HETATM   29  O   UNL     1     -40.786  56.884 -51.367  1.00  0.00    -0.259 OA
BRANCH  28  30
HETATM   30  C   UNL     1     -41.003  54.528 -51.269  1.00  0.00     0.061 A 
HETATM   31  C   UNL     1     -40.762  53.885 -50.050  1.00  0.00     0.051 A 
HETATM   32 CL   UNL     1     -41.039  54.653 -48.528  1.00  0.00    -0.083 Cl
HETATM   33  C   UNL     1     -40.262  52.580 -50.043  1.00  0.00     0.048 A 
HETATM   34  C   UNL     1     -40.001  51.935 -51.252  1.00  0.00     0.035 A 
HETATM   35 CL   UNL     1     -39.385  50.330 -51.240  1.00  0.00    -0.084 Cl
HETATM   36  C   UNL     1     -40.228  52.581 -52.468  1.00  0.00     0.025 A 
HETATM   37  C   UNL     1     -40.727  53.885 -52.481  1.00  0.00     0.021 A 
ENDBRANCH  28  30
ENDBRANCH  27  28
ENDBRANCH   4  27
TORSDOF 5
ENDMDL
MODEL 5
REMARK VINA RESULT:      -8.4      4.399      6.542
REMARK  5 active torsions:
REMARK  status: ('A' for Active; 'I' for Inactive)
REMARK    1  A    between atoms: C_10  and  C_11 
REMARK    2  A    between atoms: C_13  and  O_14 
REMARK    3  A    between atoms: C_16  and  O_17 
REMARK    4  A    between atoms: O_17  and  C_18 
REMARK    5  A    between atoms: C_18  and  C_19 
ROOT
HETATM    1  C   UNL     1     -42.173  59.561 -51.107  1.00  0.00    -0.013 A 
HETATM    2  C   UNL     1     -42.507  59.039 -52.374  1.00  0.00     0.050 A 
HETATM    3  C   UNL     1     -42.033  57.793 -52.792  1.00  0.00     0.102 A 
HETATM    4  C   UNL     1     -41.249  57.038 -51.910  1.00  0.00     0.112 A 
HETATM    5  C   UNL     1     -40.872  57.545 -50.668  1.00  0.00     0.041 A 
HETATM    6  C   UNL     1     -41.343  58.796 -50.266  1.00  0.00     0.014 A 
ENDROOT
BRANCH   1   7
HETATM    7  C   UNL     1     -42.741  60.872 -50.588  1.00  0.00     0.219 C 
HETATM    8  N   UNL     1     -42.930  61.859 -51.633  1.00  0.00    -0.358 N 
HETATM    9  C   UNL     1     -44.151  62.037 -52.178  1.00  0.00     0.088 A 
HETATM   10  H   UNL     1     -42.090  62.105 -52.151  1.00  0.00     0.162 HD
HETATM   11  C   UNL     1     -45.301  61.524 -51.630  1.00  0.00     0.073 A 
HETATM   12  S   UNL     1     -44.438  62.893 -53.619  1.00  0.00    -0.074 SA
HETATM   13  C   UNL     1     -46.455  61.843 -52.415  1.00  0.00    -0.023 A 
HETATM   14  C   UNL     1     -45.218  60.771 -50.392  1.00  0.00     0.256 C 
HETATM   15  C   UNL     1     -46.109  62.581 -53.532  1.00  0.00     0.018 A 
HETATM   16  C   UNL     1     -47.876  61.446 -52.142  1.00  0.00     0.068 C 
HETATM   17  C   UNL     1     -47.069  63.090 -54.551  1.00  0.00     0.281 C 
HETATM   18  N   UNL     1     -48.400  62.356 -54.435  1.00  0.00    -0.070 N 
HETATM   19  C   UNL     1     -49.440  62.936 -55.339  1.00  0.00     0.270 C 
HETATM   20  H   UNL     1     -48.219  61.393 -54.749  1.00  0.00     0.279 HD
HETATM   21  C   UNL     1     -48.868  62.267 -52.985  1.00  0.00     0.239 C 
HETATM   22  N   UNL     1     -43.966  60.650 -49.861  1.00  0.00    -0.332 N 
HETATM   23  O   UNL     1     -46.205  60.301 -49.838  1.00  0.00    -0.267 OA
HETATM   24  H   UNL     1     -43.921  60.061 -49.042  1.00  0.00     0.165 HD
ENDBRANCH   1   7
BRANCH   3  25
HETATM   25  O   UNL     1     -42.305  57.220 -54.005  1.00  0.00    -0.353 OA
HETATM   26  C   UNL     1     -42.737  58.085 -55.046  1.00  0.00     0.210 C 
ENDBRANCH   3  25
BRANCH   4  27
HETATM   27  O   UNL     1     -40.815  55.776 -52.351  1.00  0.00    -0.272 OA
BRANCH  27  28
HETATM   28  C   UNL     1     -41.550  54.698 -51.904  1.00  0.00     0.300 C 
HETATM   29  O   UNL     1     -42.487  54.667 -51.126  1.00  0.00    -0.259 OA
BRANCH  28  30
HETATM   30  C   UNL     1     -40.969  53.498 -52.517  1.00  0.00     0.061 A 
HETATM   31  C   UNL     1     -41.348  53.094 -53.802  1.00  0.00     0.051 A 
HETATM   32 CL   UNL     1     -42.507  53.965 -54.740  1.00  0.00    -0.083 Cl
HETATM   33  C   UNL     1     -40.794  51.937 -54.355  1.00  0.00     0.048 A 
HETATM   34  C   UNL     1     -39.875  51.191 -53.618  1.00  0.00     0.035 A 
HETATM   35 CL   UNL     1     -39.195  49.767 -54.301  1.00  0.00    -0.084 Cl
HETATM   36  C   UNL     1     -39.505  51.586 -52.331  1.00  0.00     0.025 A 
HETATM   37  C   UNL     1     -40.056  52.741 -51.773  1.00  0.00     0.021 A 
ENDBRANCH  28  30
ENDBRANCH  27  28
ENDBRANCH   4  27
TORSDOF 5
ENDMDL
MODEL 6
REMARK VINA RESULT:      -8.3      2.219      2.936
REMARK  5 active torsions:
REMARK  status: ('A' for Active; 'I' for Inactive)
REMARK    1  A    between atoms: C_10  and  C_11 
REMARK    2  A    between atoms: C_13  and  O_14 
REMARK    3  A    between atoms: C_16  and  O_17 
REMARK    4  A    between atoms: O_17  and  C_18 
REMARK    5  A    between atoms: C_18  and  C_19 
ROOT
HETATM    1  C   UNL     1     -44.184  58.475 -54.269  1.00  0.00    -0.013 A 
HETATM    2  C   UNL     1     -43.035  58.958 -53.610  1.00  0.00     0.050 A 
HETATM    3  C   UNL     1     -42.078  58.085 -53.087  1.00  0.00     0.102 A 
HETATM    4  C   UNL     1     -42.252  56.706 -53.268  1.00  0.00     0.112 A 
HETATM    5  C   UNL     1     -43.396  56.200 -53.882  1.00  0.00     0.041 A 
HETATM    6  C   UNL     1     -44.350  57.083 -54.388  1.00  0.00     0.014 A 
ENDROOT
BRANCH   1   7
HETATM    7  C   UNL     1     -45.199  59.398 -54.923  1.00  0.00     0.219 C 
HETATM    8  N   UNL     1     -44.607  60.620 -55.433  1.00  0.00    -0.358 N 
HETATM    9  C   UNL     1     -44.303  60.724 -56.743  1.00  0.00     0.088 A 
HETATM   10  H   UNL     1     -44.121  61.185 -54.741  1.00  0.00     0.162 HD
HETATM   11  C   UNL     1     -44.756  59.840 -57.693  1.00  0.00     0.073 A 
HETATM   12  S   UNL     1     -43.307  61.936 -57.399  1.00  0.00    -0.074 SA
HETATM   13  C   UNL     1     -44.272  60.168 -59.000  1.00  0.00    -0.023 A 
HETATM   14  C   UNL     1     -45.623  58.750 -57.286  1.00  0.00     0.256 C 
HETATM   15  C   UNL     1     -43.463  61.289 -58.966  1.00  0.00     0.018 A 
HETATM   16  C   UNL     1     -44.543  59.430 -60.278  1.00  0.00     0.068 C 
HETATM   17  C   UNL     1     -42.809  61.908 -60.153  1.00  0.00     0.281 C 
HETATM   18  N   UNL     1     -42.803  60.929 -61.321  1.00  0.00    -0.070 N 
HETATM   19  C   UNL     1     -42.291  61.559 -62.577  1.00  0.00     0.270 C 
HETATM   20  H   UNL     1     -42.147  60.181 -61.060  1.00  0.00     0.279 HD
HETATM   21  C   UNL     1     -44.168  60.271 -61.511  1.00  0.00     0.239 C 
HETATM   22  N   UNL     1     -45.931  58.710 -55.956  1.00  0.00    -0.332 N 
HETATM   23  O   UNL     1     -46.078  57.937 -58.082  1.00  0.00    -0.267 OA
HETATM   24  H   UNL     1     -46.473  57.902 -55.684  1.00  0.00     0.165 HD
ENDBRANCH   1   7
BRANCH   3  25
HETATM   25  O   UNL     1     -40.941  58.472 -52.430  1.00  0.00    -0.353 OA
HETATM   26  C   UNL     1     -41.093  59.415 -51.379  1.00  0.00     0.210 C 
ENDBRANCH   3  25
BRANCH   4  27
HETATM   27  O   UNL     1     -41.255  55.857 -52.758  1.00  0.00    -0.272 OA
BRANCH  27  28
HETATM   28  C   UNL     1     -41.699  54.813 -51.974  1.00  0.00     0.300 C 
HETATM   29  O   UNL     1     -42.429  54.831 -50.999  1.00  0.00    -0.259 OA
BRANCH  28  30
HETATM   30  C   UNL     1     -41.085  53.589 -52.501  1.00  0.00     0.061 A 
HETATM   31  C   UNL     1     -40.136  52.882 -51.754  1.00  0.00     0.051 A 
HETATM   32 CL   UNL     1     -39.629  53.393 -50.184  1.00  0.00    -0.083 Cl
HETATM   33  C   UNL     1     -39.553  51.731 -52.288  1.00  0.00     0.048 A 
HETATM   34  C   UNL     1     -39.917  51.301 -53.564  1.00  0.00     0.035 A 
HETATM   35 CL   UNL     1     -39.197  49.883 -54.219  1.00  0.00    -0.084 Cl
HETATM   36  C   UNL     1     -40.854  52.012 -54.316  1.00  0.00     0.025 A 
HETATM   37  C   UNL     1     -41.439  53.164 -53.787  1.00  0.00     0.021 A 
ENDBRANCH  28  30
ENDBRANCH  27  28
ENDBRANCH   4  27
TORSDOF 5
ENDMDL
MODEL 7
REMARK VINA RESULT:      -8.2      3.235      4.031
REMARK  5 active torsions:
REMARK  status: ('A' for Active; 'I' for Inactive)
REMARK    1  A    between atoms: C_10  and  C_11 
REMARK    2  A    between atoms: C_13  and  O_14 
REMARK    3  A    between atoms: C_16  and  O_17 
REMARK    4  A    between atoms: O_17  and  C_18 
REMARK    5  A    between atoms: C_18  and  C_19 
ROOT
HETATM    1  C   UNL     1     -43.218  55.479 -57.087  1.00  0.00    -0.013 A 
HETATM    2  C   UNL     1     -43.238  56.699 -56.381  1.00  0.00     0.050 A 
HETATM    3  C   UNL     1     -43.137  56.733 -54.988  1.00  0.00     0.102 A 
HETATM    4  C   UNL     1     -42.966  55.527 -54.294  1.00  0.00     0.112 A 
HETATM    5  C   UNL     1     -42.981  54.304 -54.963  1.00  0.00     0.041 A 
HETATM    6  C   UNL     1     -43.095  54.284 -56.353  1.00  0.00     0.014 A 
ENDROOT
BRANCH   1   7
HETATM    7  C   UNL     1     -43.239  55.414 -58.605  1.00  0.00     0.219 C 
HETATM    8  N   UNL     1     -44.582  55.401 -59.152  1.00  0.00    -0.358 N 
HETATM    9  C   UNL     1     -45.129  56.542 -59.618  1.00  0.00     0.088 A 
HETATM   10  H   UNL     1     -45.170  54.637 -58.832  1.00  0.00     0.162 HD
HETATM   11  C   UNL     1     -44.402  57.684 -59.852  1.00  0.00     0.073 A 
HETATM   12  S   UNL     1     -46.783  56.739 -59.958  1.00  0.00    -0.074 SA
HETATM   13  C   UNL     1     -45.227  58.754 -60.326  1.00  0.00    -0.023 A 
HETATM   14  C   UNL     1     -42.970  57.671 -59.613  1.00  0.00     0.256 C 
HETATM   15  C   UNL     1     -46.550  58.361 -60.417  1.00  0.00     0.018 A 
HETATM   16  C   UNL     1     -44.793  60.147 -60.675  1.00  0.00     0.068 C 
HETATM   17  C   UNL     1     -47.668  59.226 -60.889  1.00  0.00     0.281 C 
HETATM   18  N   UNL     1     -47.249  60.691 -60.862  1.00  0.00    -0.070 N 
HETATM   19  C   UNL     1     -48.287  61.581 -61.467  1.00  0.00     0.270 C 
HETATM   20  H   UNL     1     -47.166  60.943 -59.867  1.00  0.00     0.279 HD
HETATM   21  C   UNL     1     -45.869  60.894 -61.484  1.00  0.00     0.239 C 
HETATM   22  N   UNL     1     -42.459  56.482 -59.178  1.00  0.00    -0.332 N 
HETATM   23  O   UNL     1     -42.258  58.647 -59.818  1.00  0.00    -0.267 OA
HETATM   24  H   UNL     1     -41.477  56.517 -58.947  1.00  0.00     0.165 HD
ENDBRANCH   1   7
BRANCH   3  25
HETATM   25  O   UNL     1     -43.155  57.872 -54.229  1.00  0.00    -0.353 OA
HETATM   26  C   UNL     1     -44.400  58.544 -54.103  1.00  0.00     0.210 C 
ENDBRANCH   3  25
BRANCH   4  27
HETATM   27  O   UNL     1     -42.836  55.599 -52.897  1.00  0.00    -0.272 OA
BRANCH  27  28
HETATM   28  C   UNL     1     -41.553  55.764 -52.420  1.00  0.00     0.300 C 
HETATM   29  O   UNL     1     -40.882  56.777 -52.335  1.00  0.00    -0.259 OA
BRANCH  28  30
HETATM   30  C   UNL     1     -41.062  54.434 -52.040  1.00  0.00     0.061 A 
HETATM   31  C   UNL     1     -41.091  54.013 -50.706  1.00  0.00     0.051 A 
HETATM   32 CL   UNL     1     -41.697  55.013 -49.434  1.00  0.00    -0.083 Cl
HETATM   33  C   UNL     1     -40.600  52.750 -50.368  1.00  0.00     0.048 A 
HETATM   34  C   UNL     1     -40.078  51.924 -51.363  1.00  0.00     0.035 A 
HETATM   35 CL   UNL     1     -39.473  50.370 -50.944  1.00  0.00    -0.084 Cl
HETATM   36  C   UNL     1     -40.036  52.348 -52.692  1.00  0.00     0.025 A 
HETATM   37  C   UNL     1     -40.526  53.610 -53.036  1.00  0.00     0.021 A 
ENDBRANCH  28  30
ENDBRANCH  27  28
ENDBRANCH   4  27
TORSDOF 5
ENDMDL
MODEL 8
REMARK VINA RESULT:      -8.2      3.918      5.935
REMARK  5 active torsions:
REMARK  status: ('A' for Active; 'I' for Inactive)
REMARK    1  A    between atoms: C_10  and  C_11 
REMARK    2  A    between atoms: C_13  and  O_14 
REMARK    3  A    between atoms: C_16  and  O_17 
REMARK    4  A    between atoms: O_17  and  C_18 
REMARK    5  A    between atoms: C_18  and  C_19 
ROOT
HETATM    1  C   UNL     1     -44.017  58.483 -54.900  1.00  0.00    -0.013 A 
HETATM    2  C   UNL     1     -43.960  57.548 -55.954  1.00  0.00     0.050 A 
HETATM    3  C   UNL     1     -43.336  56.308 -55.789  1.00  0.00     0.102 A 
HETATM    4  C   UNL     1     -42.803  55.982 -54.535  1.00  0.00     0.112 A 
HETATM    5  C   UNL     1     -42.812  56.901 -53.488  1.00  0.00     0.041 A 
HETATM    6  C   UNL     1     -43.427  58.140 -53.669  1.00  0.00     0.014 A 
ENDROOT
BRANCH   1   7
HETATM    7  C   UNL     1     -44.762  59.803 -55.019  1.00  0.00     0.219 C 
HETATM    8  N   UNL     1     -45.841  59.932 -54.060  1.00  0.00    -0.358 N 
HETATM    9  C   UNL     1     -45.650  60.632 -52.923  1.00  0.00     0.088 A 
HETATM   10  H   UNL     1     -46.551  59.206 -54.109  1.00  0.00     0.162 HD
HETATM   11  C   UNL     1     -44.571  61.459 -52.721  1.00  0.00     0.073 A 
HETATM   12  S   UNL     1     -46.690  60.574 -51.579  1.00  0.00    -0.074 SA
HETATM   13  C   UNL     1     -44.600  62.066 -51.424  1.00  0.00    -0.023 A 
HETATM   14  C   UNL     1     -43.594  61.617 -53.783  1.00  0.00     0.256 C 
HETATM   15  C   UNL     1     -45.706  61.652 -50.705  1.00  0.00     0.018 A 
HETATM   16  C   UNL     1     -43.590  63.013 -50.845  1.00  0.00     0.068 C 
HETATM   17  C   UNL     1     -46.046  62.104 -49.326  1.00  0.00     0.281 C 
HETATM   18  N   UNL     1     -44.829  62.739 -48.664  1.00  0.00    -0.070 N 
HETATM   19  C   UNL     1     -45.164  63.340 -47.336  1.00  0.00     0.270 C 
HETATM   20  H   UNL     1     -44.164  61.972 -48.498  1.00  0.00     0.279 HD
HETATM   21  C   UNL     1     -44.134  63.730 -49.596  1.00  0.00     0.239 C 
HETATM   22  N   UNL     1     -43.852  60.917 -54.926  1.00  0.00    -0.332 N 
HETATM   23  O   UNL     1     -42.619  62.352 -53.678  1.00  0.00    -0.267 OA
HETATM   24  H   UNL     1     -43.123  60.982 -55.622  1.00  0.00     0.165 HD
ENDBRANCH   1   7
BRANCH   3  25
HETATM   25  O   UNL     1     -43.233  55.349 -56.761  1.00  0.00    -0.353 OA
HETATM   26  C   UNL     1     -42.991  55.798 -58.087  1.00  0.00     0.210 C 
ENDBRANCH   3  25
BRANCH   4  27
HETATM   27  O   UNL     1     -42.211  54.715 -54.395  1.00  0.00    -0.272 OA
BRANCH  27  28
HETATM   28  C   UNL     1     -40.835  54.701 -54.301  1.00  0.00     0.300 C 
HETATM   29  O   UNL     1     -40.017  55.460 -54.790  1.00  0.00    -0.259 OA
BRANCH  28  30
HETATM   30  C   UNL     1     -40.471  53.528 -53.498  1.00  0.00     0.061 A 
HETATM   31  C   UNL     1     -40.486  53.583 -52.100  1.00  0.00     0.051 A 
HETATM   32 CL   UNL     1     -40.927  55.012 -51.236  1.00  0.00    -0.083 Cl
HETATM   33  C   UNL     1     -40.116  52.458 -51.359  1.00  0.00     0.048 A 
HETATM   34  C   UNL     1     -39.728  51.294 -52.021  1.00  0.00     0.035 A 
HETATM   35 CL   UNL     1     -39.272  49.910 -51.107  1.00  0.00    -0.084 Cl
HETATM   36  C   UNL     1     -39.700  51.241 -53.415  1.00  0.00     0.025 A 
HETATM   37  C   UNL     1     -40.068  52.363 -54.161  1.00  0.00     0.021 A 
ENDBRANCH  28  30
ENDBRANCH  27  28
ENDBRANCH   4  27
TORSDOF 5
ENDMDL
MODEL 9
REMARK VINA RESULT:      -8.1      4.401      9.806
REMARK  5 active torsions:
REMARK  status: ('A' for Active; 'I' for Inactive)
REMARK    1  A    between atoms: C_10  and  C_11 
REMARK    2  A    between atoms: C_13  and  O_14 
REMARK    3  A    between atoms: C_16  and  O_17 
REMARK    4  A    between atoms: O_17  and  C_18 
REMARK    5  A    between atoms: C_18  and  C_19 
ROOT
HETATM    1  C   UNL     1     -43.559  58.440 -55.682  1.00  0.00    -0.013 A 
HETATM    2  C   UNL     1     -43.051  58.150 -56.965  1.00  0.00     0.050 A 
HETATM    3  C   UNL     1     -42.220  59.051 -57.636  1.00  0.00     0.102 A 
HETATM    4  C   UNL     1     -41.856  60.241 -56.993  1.00  0.00     0.112 A 
HETATM    5  C   UNL     1     -42.374  60.570 -55.741  1.00  0.00     0.041 A 
HETATM    6  C   UNL     1     -43.212  59.667 -55.087  1.00  0.00     0.014 A 
ENDROOT
BRANCH   1   7
HETATM    7  C   UNL     1     -44.393  57.445 -54.890  1.00  0.00     0.219 C 
HETATM    8  N   UNL     1     -44.169  56.071 -55.295  1.00  0.00    -0.358 N 
HETATM    9  C   UNL     1     -43.333  55.288 -54.582  1.00  0.00     0.088 A 
HETATM   10  H   UNL     1     -44.355  55.874 -56.274  1.00  0.00     0.162 HD
HETATM   11  C   UNL     1     -42.868  55.625 -53.334  1.00  0.00     0.073 A 
HETATM   12  S   UNL     1     -42.721  53.799 -55.128  1.00  0.00    -0.074 SA
HETATM   13  C   UNL     1     -41.982  54.630 -52.808  1.00  0.00    -0.023 A 
HETATM   14  C   UNL     1     -43.307  56.869 -52.729  1.00  0.00     0.256 C 
HETATM   15  C   UNL     1     -41.817  53.587 -53.702  1.00  0.00     0.018 A 
HETATM   16  C   UNL     1     -41.273  54.655 -51.486  1.00  0.00     0.068 C 
HETATM   17  C   UNL     1     -40.974  52.383 -53.463  1.00  0.00     0.281 C 
HETATM   18  N   UNL     1     -40.008  52.635 -52.312  1.00  0.00    -0.070 N 
HETATM   19  C   UNL     1     -39.245  51.404 -51.940  1.00  0.00     0.270 C 
HETATM   20  H   UNL     1     -39.329  53.326 -52.659  1.00  0.00     0.279 HD
HETATM   21  C   UNL     1     -40.712  53.271 -51.115  1.00  0.00     0.239 C 
HETATM   22  N   UNL     1     -44.181  57.608 -53.474  1.00  0.00    -0.332 N 
HETATM   23  O   UNL     1     -42.946  57.223 -51.612  1.00  0.00    -0.267 OA
HETATM   24  H   UNL     1     -44.414  58.502 -53.068  1.00  0.00     0.165 HD
ENDBRANCH   1   7
BRANCH   3  25
HETATM   25  O   UNL     1     -41.691  58.849 -58.883  1.00  0.00    -0.353 OA
HETATM   26  C   UNL     1     -42.309  57.858 -59.692  1.00  0.00     0.210 C 
ENDBRANCH   3  25
BRANCH   4  27
HETATM   27  O   UNL     1     -40.995  61.111 -57.683  1.00  0.00    -0.272 OA
BRANCH  27  28
HETATM   28  C   UNL     1     -41.583  62.235 -58.224  1.00  0.00     0.300 C 
HETATM   29  O   UNL     1     -42.580  62.836 -57.867  1.00  0.00    -0.259 OA
BRANCH  28  30
HETATM   30  C   UNL     1     -40.796  62.605 -59.406  1.00  0.00     0.061 A 
HETATM   31  C   UNL     1     -41.198  62.215 -60.688  1.00  0.00     0.051 A 
HETATM   32 CL   UNL     1     -42.626  61.284 -60.964  1.00  0.00    -0.083 Cl
HETATM   33  C   UNL     1     -40.420  62.564 -61.794  1.00  0.00     0.048 A 
HETATM   34  C   UNL     1     -39.245  63.292 -61.609  1.00  0.00     0.035 A 
HETATM   35 CL   UNL     1     -38.288  63.720 -62.972  1.00  0.00    -0.084 Cl
HETATM   36  C   UNL     1     -38.835  63.672 -60.329  1.00  0.00     0.025 A 
HETATM   37  C   UNL     1     -39.609  63.325 -59.220  1.00  0.00     0.021 A 
ENDBRANCH  28  30
ENDBRANCH  27  28
ENDBRANCH   4  27
TORSDOF 5
ENDMDL
MODEL 10
REMARK VINA RESULT:      -8.0      3.609      5.676
REMARK  5 active torsions:
REMARK  status: ('A' for Active; 'I' for Inactive)
REMARK    1  A    between atoms: C_10  and  C_11 
REMARK    2  A    between atoms: C_13  and  O_14 
REMARK    3  A    between atoms: C_16  and  O_17 
REMARK    4  A    between atoms: O_17  and  C_18 
REMARK    5  A    between atoms: C_18  and  C_19 
ROOT
HETATM    1  C   UNL     1     -41.927  59.355 -54.287  1.00  0.00    -0.013 A 
HETATM    2  C   UNL     1     -42.349  58.904 -55.554  1.00  0.00     0.050 A 
HETATM    3  C   UNL     1     -42.185  57.571 -55.941  1.00  0.00     0.102 A 
HETATM    4  C   UNL     1     -41.630  56.667 -55.027  1.00  0.00     0.112 A 
HETATM    5  C   UNL     1     -41.169  57.093 -53.783  1.00  0.00     0.041 A 
HETATM    6  C   UNL     1     -41.328  58.428 -53.413  1.00  0.00     0.014 A 
ENDROOT
BRANCH   1   7
HETATM    7  C   UNL     1     -42.169  60.775 -53.803  1.00  0.00     0.219 C 
HETATM    8  N   UNL     1     -42.905  61.581 -54.759  1.00  0.00    -0.358 N 
HETATM    9  C   UNL     1     -44.233  61.757 -54.609  1.00  0.00     0.088 A 
HETATM   10  H   UNL     1     -42.470  61.668 -55.674  1.00  0.00     0.162 HD
HETATM   11  C   UNL     1     -44.909  61.436 -53.456  1.00  0.00     0.073 A 
HETATM   12  S   UNL     1     -45.258  62.372 -55.818  1.00  0.00    -0.074 SA
HETATM   13  C   UNL     1     -46.312  61.704 -53.568  1.00  0.00    -0.023 A 
HETATM   14  C   UNL     1     -44.168  60.902 -52.329  1.00  0.00     0.256 C 
HETATM   15  C   UNL     1     -46.624  62.210 -54.817  1.00  0.00     0.018 A 
HETATM   16  C   UNL     1     -47.364  61.471 -52.525  1.00  0.00     0.068 C 
HETATM   17  C   UNL     1     -47.990  62.610 -55.259  1.00  0.00     0.281 C 
HETATM   18  N   UNL     1     -49.041  62.012 -54.331  1.00  0.00    -0.070 N 
HETATM   19  C   UNL     1     -50.415  62.507 -54.649  1.00  0.00     0.270 C 
HETATM   20  H   UNL     1     -49.028  60.998 -54.506  1.00  0.00     0.279 HD
HETATM   21  C   UNL     1     -48.672  62.209 -52.862  1.00  0.00     0.239 C 
HETATM   22  N   UNL     1     -42.821  60.778 -52.518  1.00  0.00    -0.332 N 
HETATM   23  O   UNL     1     -44.703  60.612 -51.265  1.00  0.00    -0.267 OA
HETATM   24  H   UNL     1     -42.337  60.336 -51.750  1.00  0.00     0.165 HD
ENDBRANCH   1   7
BRANCH   3  25
HETATM   25  O   UNL     1     -42.562  57.056 -57.153  1.00  0.00    -0.353 OA
HETATM   26  C   UNL     1     -43.938  57.146 -57.492  1.00  0.00     0.210 C 
ENDBRANCH   3  25
BRANCH   4  27
HETATM   27  O   UNL     1     -41.507  55.328 -55.437  1.00  0.00    -0.272 OA
BRANCH  27  28
HETATM   28  C   UNL     1     -42.381  54.437 -54.850  1.00  0.00     0.300 C 
HETATM   29  O   UNL     1     -43.591  54.349 -54.963  1.00  0.00    -0.259 OA
BRANCH  28  30
HETATM   30  C   UNL     1     -41.586  53.570 -53.972  1.00  0.00     0.061 A 
HETATM   31  C   UNL     1     -41.700  53.660 -52.581  1.00  0.00     0.051 A 
HETATM   32 CL   UNL     1     -42.767  54.778 -51.811  1.00  0.00    -0.083 Cl
HETATM   33  C   UNL     1     -40.917  52.836 -51.768  1.00  0.00     0.048 A 
HETATM   34  C   UNL     1     -40.024  51.939 -52.352  1.00  0.00     0.035 A 
HETATM   35 CL   UNL     1     -39.060  50.927 -51.349  1.00  0.00    -0.084 Cl
HETATM   36  C   UNL     1     -39.900  51.858 -53.740  1.00  0.00     0.025 A 
HETATM   37  C   UNL     1     -40.679  52.679 -54.557  1.00  0.00     0.021 A 
ENDBRANCH  28  30
ENDBRANCH  27  28
ENDBRANCH   4  27
TORSDOF 5
ENDMDL
