MODEL 1
REMARK VINA RESULT:      -7.3      0.000      0.000
REMARK  6 active torsions:
REMARK  status: ('A' for Active; 'I' for Inactive)
REMARK    1  A    between atoms: C_4  and  C_5 
REMARK    2  A    between atoms: C_7  and  N_8 
REMARK    3  A    between atoms: N_8  and  C_9 
REMARK    4  A    between atoms: C_9  and  C_10 
REMARK    5  A    between atoms: C_10  and  C_11 
REMARK    6  A    between atoms: C_11  and  N_12 
ROOT
HETATM    1  C   UNL     1     -40.547  53.615 -53.156  1.00  0.00     0.162 C 
HETATM    2  N   UNL     1     -40.703  54.210 -54.362  1.00  0.00    -0.216 NA
HETATM    3  C   UNL     1     -41.181  55.476 -54.347  1.00  0.00     0.118 C 
HETATM    4  C   UNL     1     -41.295  56.230 -53.160  1.00  0.00     0.033 A 
HETATM    5  C   UNL     1     -41.025  55.529 -51.982  1.00  0.00     0.072 A 
HETATM    6  N   UNL     1     -40.679  54.242 -51.980  1.00  0.00    -0.228 NA
HETATM    7  C   UNL     1     -41.649  57.604 -53.080  1.00  0.00     0.017 A 
HETATM    8  C   UNL     1     -41.738  58.250 -51.849  1.00  0.00     0.001 A 
HETATM    9  C   UNL     1     -41.477  57.540 -50.685  1.00  0.00     0.002 A 
HETATM   10  C   UNL     1     -41.124  56.192 -50.764  1.00  0.00     0.032 A 
ENDROOT
BRANCH   3  11
HETATM   11  N   UNL     1     -41.470  56.096 -55.587  1.00  0.00    -0.277 NA
HETATM   12  H   UNL     1     -41.420  57.108 -55.436  1.00  0.00     0.129 HD
BRANCH  11  13
HETATM   13  C   UNL     1     -42.734  55.765 -56.240  1.00  0.00     0.095 C 
BRANCH  13  14
HETATM   14  C   UNL     1     -43.563  57.031 -56.454  1.00  0.00     0.042 C 
BRANCH  14  15
HETATM   15  C   UNL     1     -44.524  57.382 -55.326  1.00  0.00     0.230 C 
BRANCH  15  16
HETATM   16  N   UNL     1     -44.765  56.228 -54.437  1.00  0.00    -0.079 N 
HETATM   17  H   UNL     1     -45.599  56.414 -53.844  1.00  0.00     0.274 HD
HETATM   18  H   UNL     1     -44.932  55.355 -54.949  1.00  0.00     0.274 HD
HETATM   19  H   UNL     1     -43.984  56.082 -53.788  1.00  0.00     0.274 HD
ENDBRANCH  15  16
ENDBRANCH  14  15
ENDBRANCH  13  14
ENDBRANCH  11  13
ENDBRANCH   3  11
BRANCH   1  20
HETATM   20  C   UNL     1     -40.200  52.178 -53.113  1.00  0.00     0.012 A 
HETATM   21  C   UNL     1     -40.281  51.347 -54.246  1.00  0.00     0.015 A 
HETATM   22  C   UNL     1     -39.934  49.991 -54.187  1.00  0.00     0.001 A 
HETATM   23  C   UNL     1     -39.517  49.429 -52.985  1.00  0.00     0.000 A 
HETATM   24  C   UNL     1     -39.447  50.219 -51.843  1.00  0.00     0.001 A 
HETATM   25  C   UNL     1     -39.779  51.575 -51.911  1.00  0.00     0.015 A 
ENDBRANCH   1  20
TORSDOF 6
ENDMDL
MODEL 2
REMARK VINA RESULT:      -7.0      2.142      3.020
REMARK  6 active torsions:
REMARK  status: ('A' for Active; 'I' for Inactive)
REMARK    1  A    between atoms: C_4  and  C_5 
REMARK    2  A    between atoms: C_7  and  N_8 
REMARK    3  A    between atoms: N_8  and  C_9 
REMARK    4  A    between atoms: C_9  and  C_10 
REMARK    5  A    between atoms: C_10  and  C_11 
REMARK    6  A    between atoms: C_11  and  N_12 
ROOT
HETATM    1  C   UNL     1     -41.944  54.283 -53.967  1.00  0.00     0.162 C 
HETATM    2  N   UNL     1     -42.223  54.360 -55.290  1.00  0.00    -0.216 NA
HETATM    3  C   UNL     1     -43.154  55.272 -55.653  1.00  0.00     0.118 C 
HETATM    4  C   UNL     1     -43.644  56.251 -54.763  1.00  0.00     0.033 A 
HETATM    5  C   UNL     1     -43.217  56.119 -53.440  1.00  0.00     0.072 A 
HETATM    6  N   UNL     1     -42.400  55.141 -53.047  1.00  0.00    -0.228 NA
HETATM    7  C   UNL     1     -44.508  57.326 -55.105  1.00  0.00     0.017 A 
HETATM    8  C   UNL     1     -44.937  58.235 -54.141  1.00  0.00     0.001 A 
HETATM    9  C   UNL     1     -44.514  58.087 -52.828  1.00  0.00     0.002 A 
HETATM   10  C   UNL     1     -43.661  57.034 -52.493  1.00  0.00     0.032 A 
ENDROOT
BRANCH   3  11
HETATM   11  N   UNL     1     -43.562  55.307 -57.008  1.00  0.00    -0.277 NA
HETATM   12  H   UNL     1     -43.516  54.347 -57.362  1.00  0.00     0.129 HD
BRANCH  11  13
HETATM   13  C   UNL     1     -42.840  56.194 -57.917  1.00  0.00     0.095 C 
BRANCH  13  14
HETATM   14  C   UNL     1     -43.075  55.768 -59.366  1.00  0.00     0.042 C 
BRANCH  14  15
HETATM   15  C   UNL     1     -44.241  54.813 -59.586  1.00  0.00     0.230 C 
BRANCH  15  16
HETATM   16  N   UNL     1     -45.538  55.515 -59.525  1.00  0.00    -0.079 N 
HETATM   17  H   UNL     1     -46.263  54.874 -59.142  1.00  0.00     0.274 HD
HETATM   18  H   UNL     1     -45.515  56.352 -58.932  1.00  0.00     0.274 HD
HETATM   19  H   UNL     1     -45.866  55.785 -60.460  1.00  0.00     0.274 HD
ENDBRANCH  15  16
ENDBRANCH  14  15
ENDBRANCH  13  14
ENDBRANCH  11  13
ENDBRANCH   3  11
BRANCH   1  20
HETATM   20  C   UNL     1     -41.071  53.189 -53.488  1.00  0.00     0.012 A 
HETATM   21  C   UNL     1     -40.543  53.159 -52.184  1.00  0.00     0.015 A 
HETATM   22  C   UNL     1     -39.731  52.106 -51.746  1.00  0.00     0.001 A 
HETATM   23  C   UNL     1     -39.409  51.066 -52.612  1.00  0.00     0.000 A 
HETATM   24  C   UNL     1     -39.898  51.077 -53.913  1.00  0.00     0.001 A 
HETATM   25  C   UNL     1     -40.722  52.122 -54.341  1.00  0.00     0.015 A 
ENDBRANCH   1  20
TORSDOF 6
ENDMDL
MODEL 3
REMARK VINA RESULT:      -7.0      1.433      3.417
REMARK  6 active torsions:
REMARK  status: ('A' for Active; 'I' for Inactive)
REMARK    1  A    between atoms: C_4  and  C_5 
REMARK    2  A    between atoms: C_7  and  N_8 
REMARK    3  A    between atoms: N_8  and  C_9 
REMARK    4  A    between atoms: C_9  and  C_10 
REMARK    5  A    between atoms: C_10  and  C_11 
REMARK    6  A    between atoms: C_11  and  N_12 
ROOT
HETATM    1  C   UNL     1     -40.980  53.657 -53.706  1.00  0.00     0.162 C 
HETATM    2  N   UNL     1     -40.967  54.568 -52.705  1.00  0.00    -0.216 NA
HETATM    3  C   UNL     1     -41.294  55.837 -53.045  1.00  0.00     0.118 C 
HETATM    4  C   UNL     1     -41.845  56.166 -54.302  1.00  0.00     0.033 A 
HETATM    5  C   UNL     1     -41.886  55.120 -55.226  1.00  0.00     0.072 A 
HETATM    6  N   UNL     1     -41.442  53.896 -54.940  1.00  0.00    -0.228 NA
HETATM    7  C   UNL     1     -42.346  57.441 -54.680  1.00  0.00     0.017 A 
HETATM    8  C   UNL     1     -42.864  57.658 -55.955  1.00  0.00     0.001 A 
HETATM    9  C   UNL     1     -42.889  56.613 -56.867  1.00  0.00     0.002 A 
HETATM   10  C   UNL     1     -42.403  55.359 -56.494  1.00  0.00     0.032 A 
ENDROOT
BRANCH   3  11
HETATM   11  N   UNL     1     -41.182  56.844 -52.057  1.00  0.00    -0.277 NA
HETATM   12  H   UNL     1     -40.182  57.012 -51.911  1.00  0.00     0.129 HD
BRANCH  11  13
HETATM   13  C   UNL     1     -41.828  56.613 -50.767  1.00  0.00     0.095 C 
BRANCH  13  14
HETATM   14  C   UNL     1     -43.319  56.344 -50.966  1.00  0.00     0.042 C 
BRANCH  14  15
HETATM   15  C   UNL     1     -43.812  54.994 -50.466  1.00  0.00     0.230 C 
BRANCH  15  16
HETATM   16  N   UNL     1     -43.955  54.024 -51.569  1.00  0.00    -0.079 N 
HETATM   17  H   UNL     1     -43.038  53.566 -51.751  1.00  0.00     0.274 HD
HETATM   18  H   UNL     1     -44.640  53.287 -51.370  1.00  0.00     0.274 HD
HETATM   19  H   UNL     1     -44.218  54.487 -52.447  1.00  0.00     0.274 HD
ENDBRANCH  15  16
ENDBRANCH  14  15
ENDBRANCH  13  14
ENDBRANCH  11  13
ENDBRANCH   3  11
BRANCH   1  20
HETATM   20  C   UNL     1     -40.461  52.299 -53.437  1.00  0.00     0.012 A 
HETATM   21  C   UNL     1     -40.459  51.283 -54.411  1.00  0.00     0.015 A 
HETATM   22  C   UNL     1     -39.949  50.007 -54.139  1.00  0.00     0.001 A 
HETATM   23  C   UNL     1     -39.447  49.712 -52.876  1.00  0.00     0.000 A 
HETATM   24  C   UNL     1     -39.453  50.687 -51.886  1.00  0.00     0.001 A 
HETATM   25  C   UNL     1     -39.949  51.964 -52.167  1.00  0.00     0.015 A 
ENDBRANCH   1  20
TORSDOF 6
ENDMDL
MODEL 4
REMARK VINA RESULT:      -7.0      1.604      4.142
REMARK  6 active torsions:
REMARK  status: ('A' for Active; 'I' for Inactive)
REMARK    1  A    between atoms: C_4  and  C_5 
REMARK    2  A    between atoms: C_7  and  N_8 
REMARK    3  A    between atoms: N_8  and  C_9 
REMARK    4  A    between atoms: C_9  and  C_10 
REMARK    5  A    between atoms: C_10  and  C_11 
REMARK    6  A    between atoms: C_11  and  N_12 
ROOT
HETATM    1  C   UNL     1     -41.232  54.740 -54.015  1.00  0.00     0.162 C 
HETATM    2  N   UNL     1     -41.245  55.884 -53.292  1.00  0.00    -0.216 NA
HETATM    3  C   UNL     1     -41.658  56.998 -53.940  1.00  0.00     0.118 C 
HETATM    4  C   UNL     1     -42.263  56.954 -55.214  1.00  0.00     0.033 A 
HETATM    5  C   UNL     1     -42.267  55.698 -55.826  1.00  0.00     0.072 A 
HETATM    6  N   UNL     1     -41.743  54.618 -55.247  1.00  0.00    -0.228 NA
HETATM    7  C   UNL     1     -42.850  58.055 -55.893  1.00  0.00     0.017 A 
HETATM    8  C   UNL     1     -43.417  57.899 -57.156  1.00  0.00     0.001 A 
HETATM    9  C   UNL     1     -43.406  56.649 -57.758  1.00  0.00     0.002 A 
HETATM   10  C   UNL     1     -42.834  55.565 -57.089  1.00  0.00     0.032 A 
ENDROOT
BRANCH   3  11
HETATM   11  N   UNL     1     -41.578  58.237 -53.259  1.00  0.00    -0.277 NA
HETATM   12  H   UNL     1     -42.133  58.911 -53.793  1.00  0.00     0.129 HD
BRANCH  11  13
HETATM   13  C   UNL     1     -40.251  58.794 -53.005  1.00  0.00     0.095 C 
BRANCH  13  14
HETATM   14  C   UNL     1     -40.023  58.947 -51.502  1.00  0.00     0.042 C 
BRANCH  14  15
HETATM   15  C   UNL     1     -41.257  58.758 -50.631  1.00  0.00     0.230 C 
BRANCH  15  16
HETATM   16  N   UNL     1     -41.475  57.336 -50.298  1.00  0.00    -0.079 N 
HETATM   17  H   UNL     1     -40.669  56.772 -50.637  1.00  0.00     0.274 HD
HETATM   18  H   UNL     1     -41.574  57.170 -49.292  1.00  0.00     0.274 HD
HETATM   19  H   UNL     1     -42.303  56.960 -50.775  1.00  0.00     0.274 HD
ENDBRANCH  15  16
ENDBRANCH  14  15
ENDBRANCH  13  14
ENDBRANCH  11  13
ENDBRANCH   3  11
BRANCH   1  20
HETATM   20  C   UNL     1     -40.625  53.531 -53.420  1.00  0.00     0.012 A 
HETATM   21  C   UNL     1     -40.390  53.404 -52.038  1.00  0.00     0.015 A 
HETATM   22  C   UNL     1     -39.826  52.243 -51.493  1.00  0.00     0.001 A 
HETATM   23  C   UNL     1     -39.463  51.188 -52.323  1.00  0.00     0.000 A 
HETATM   24  C   UNL     1     -39.663  51.290 -53.695  1.00  0.00     0.001 A 
HETATM   25  C   UNL     1     -40.241  52.445 -54.233  1.00  0.00     0.015 A 
ENDBRANCH   1  20
TORSDOF 6
ENDMDL
MODEL 5
REMARK VINA RESULT:      -6.9      1.600      4.109
REMARK  6 active torsions:
REMARK  status: ('A' for Active; 'I' for Inactive)
REMARK    1  A    between atoms: C_4  and  C_5 
REMARK    2  A    between atoms: C_7  and  N_8 
REMARK    3  A    between atoms: N_8  and  C_9 
REMARK    4  A    between atoms: C_9  and  C_10 
REMARK    5  A    between atoms: C_10  and  C_11 
REMARK    6  A    between atoms: C_11  and  N_12 
ROOT
HETATM    1  C   UNL     1     -41.334  54.789 -54.229  1.00  0.00     0.162 C 
HETATM    2  N   UNL     1     -41.368  55.964 -53.557  1.00  0.00    -0.216 NA
HETATM    3  C   UNL     1     -41.794  57.042 -54.256  1.00  0.00     0.118 C 
HETATM    4  C   UNL     1     -42.390  56.931 -55.530  1.00  0.00     0.033 A 
HETATM    5  C   UNL     1     -42.372  55.649 -56.086  1.00  0.00     0.072 A 
HETATM    6  N   UNL     1     -41.835  54.605 -55.456  1.00  0.00    -0.228 NA
HETATM    7  C   UNL     1     -42.991  57.992 -56.261  1.00  0.00     0.017 A 
HETATM    8  C   UNL     1     -43.548  57.771 -57.519  1.00  0.00     0.001 A 
HETATM    9  C   UNL     1     -43.513  56.495 -58.065  1.00  0.00     0.002 A 
HETATM   10  C   UNL     1     -42.929  55.452 -57.344  1.00  0.00     0.032 A 
ENDROOT
BRANCH   3  11
HETATM   11  N   UNL     1     -41.737  58.310 -53.631  1.00  0.00    -0.277 NA
HETATM   12  H   UNL     1     -42.088  58.995 -54.306  1.00  0.00     0.129 HD
BRANCH  11  13
HETATM   13  C   UNL     1     -40.448  58.759 -53.111  1.00  0.00     0.095 C 
BRANCH  13  14
HETATM   14  C   UNL     1     -40.586  59.174 -51.647  1.00  0.00     0.042 C 
BRANCH  14  15
HETATM   15  C   UNL     1     -40.685  58.028 -50.649  1.00  0.00     0.230 C 
BRANCH  15  16
HETATM   16  N   UNL     1     -42.035  57.430 -50.640  1.00  0.00    -0.079 N 
HETATM   17  H   UNL     1     -42.427  57.441 -51.604  1.00  0.00     0.274 HD
HETATM   18  H   UNL     1     -42.042  56.460 -50.309  1.00  0.00     0.274 HD
HETATM   19  H   UNL     1     -42.686  57.978 -50.065  1.00  0.00     0.274 HD
ENDBRANCH  15  16
ENDBRANCH  14  15
ENDBRANCH  13  14
ENDBRANCH  11  13
ENDBRANCH   3  11
BRANCH   1  20
HETATM   20  C   UNL     1     -40.711  53.617 -53.577  1.00  0.00     0.012 A 
HETATM   21  C   UNL     1     -40.306  52.477 -54.297  1.00  0.00     0.015 A 
HETATM   22  C   UNL     1     -39.705  51.384 -53.661  1.00  0.00     0.001 A 
HETATM   23  C   UNL     1     -39.514  51.396 -52.284  1.00  0.00     0.000 A 
HETATM   24  C   UNL     1     -39.922  52.498 -51.541  1.00  0.00     0.001 A 
HETATM   25  C   UNL     1     -40.507  53.594 -52.182  1.00  0.00     0.015 A 
ENDBRANCH   1  20
TORSDOF 6
ENDMDL
MODEL 6
REMARK VINA RESULT:      -6.9      1.729      5.935
REMARK  6 active torsions:
REMARK  status: ('A' for Active; 'I' for Inactive)
REMARK    1  A    between atoms: C_4  and  C_5 
REMARK    2  A    between atoms: C_7  and  N_8 
REMARK    3  A    between atoms: N_8  and  C_9 
REMARK    4  A    between atoms: C_9  and  C_10 
REMARK    5  A    between atoms: C_10  and  C_11 
REMARK    6  A    between atoms: C_11  and  N_12 
ROOT
HETATM    1  C   UNL     1     -41.169  54.359 -54.139  1.00  0.00     0.162 C 
HETATM    2  N   UNL     1     -40.804  54.743 -52.893  1.00  0.00    -0.216 NA
HETATM    3  C   UNL     1     -40.407  53.758 -52.054  1.00  0.00     0.118 C 
HETATM    4  C   UNL     1     -40.157  52.442 -52.496  1.00  0.00     0.033 A 
HETATM    5  C   UNL     1     -40.494  52.187 -53.828  1.00  0.00     0.072 A 
HETATM    6  N   UNL     1     -41.010  53.122 -54.626  1.00  0.00    -0.228 NA
HETATM    7  C   UNL     1     -39.603  51.394 -51.712  1.00  0.00     0.017 A 
HETATM    8  C   UNL     1     -39.403  50.125 -52.250  1.00  0.00     0.001 A 
HETATM    9  C   UNL     1     -39.753  49.881 -53.570  1.00  0.00     0.002 A 
HETATM   10  C   UNL     1     -40.292  50.912 -54.343  1.00  0.00     0.032 A 
ENDROOT
BRANCH   3  11
HETATM   11  N   UNL     1     -40.127  54.098 -50.709  1.00  0.00    -0.277 NA
HETATM   12  H   UNL     1     -40.155  53.229 -50.167  1.00  0.00     0.129 HD
BRANCH  11  13
HETATM   13  C   UNL     1     -40.975  55.098 -50.065  1.00  0.00     0.095 C 
BRANCH  13  14
HETATM   14  C   UNL     1     -42.364  54.518 -49.798  1.00  0.00     0.042 C 
BRANCH  14  15
HETATM   15  C   UNL     1     -43.485  55.081 -50.661  1.00  0.00     0.230 C 
BRANCH  15  16
HETATM   16  N   UNL     1     -43.868  54.144 -51.735  1.00  0.00    -0.079 N 
HETATM   17  H   UNL     1     -43.207  54.241 -52.534  1.00  0.00     0.274 HD
HETATM   18  H   UNL     1     -43.856  53.164 -51.436  1.00  0.00     0.274 HD
HETATM   19  H   UNL     1     -44.798  54.361 -52.111  1.00  0.00     0.274 HD
ENDBRANCH  15  16
ENDBRANCH  14  15
ENDBRANCH  13  14
ENDBRANCH  11  13
ENDBRANCH   3  11
BRANCH   1  20
HETATM   20  C   UNL     1     -41.780  55.359 -55.040  1.00  0.00     0.012 A 
HETATM   21  C   UNL     1     -42.386  55.008 -56.261  1.00  0.00     0.015 A 
HETATM   22  C   UNL     1     -42.972  55.970 -57.093  1.00  0.00     0.001 A 
HETATM   23  C   UNL     1     -42.946  57.313 -56.732  1.00  0.00     0.000 A 
HETATM   24  C   UNL     1     -42.337  57.695 -55.542  1.00  0.00     0.001 A 
HETATM   25  C   UNL     1     -41.767  56.729 -54.707  1.00  0.00     0.015 A 
ENDBRANCH   1  20
TORSDOF 6
ENDMDL
MODEL 7
REMARK VINA RESULT:      -6.8      1.486      5.551
REMARK  6 active torsions:
REMARK  status: ('A' for Active; 'I' for Inactive)
REMARK    1  A    between atoms: C_4  and  C_5 
REMARK    2  A    between atoms: C_7  and  N_8 
REMARK    3  A    between atoms: N_8  and  C_9 
REMARK    4  A    between atoms: C_9  and  C_10 
REMARK    5  A    between atoms: C_10  and  C_11 
REMARK    6  A    between atoms: C_11  and  N_12 
ROOT
HETATM    1  C   UNL     1     -41.359  56.377 -52.475  1.00  0.00     0.162 C 
HETATM    2  N   UNL     1     -41.619  56.306 -53.802  1.00  0.00    -0.216 NA
HETATM    3  C   UNL     1     -41.214  55.178 -54.431  1.00  0.00     0.118 C 
HETATM    4  C   UNL     1     -40.761  54.040 -53.731  1.00  0.00     0.033 A 
HETATM    5  C   UNL     1     -40.615  54.209 -52.352  1.00  0.00     0.072 A 
HETATM    6  N   UNL     1     -40.888  55.362 -51.741  1.00  0.00    -0.228 NA
HETATM    7  C   UNL     1     -40.458  52.777 -54.307  1.00  0.00     0.017 A 
HETATM    8  C   UNL     1     -40.011  51.719 -53.520  1.00  0.00     0.001 A 
HETATM    9  C   UNL     1     -39.859  51.903 -52.153  1.00  0.00     0.002 A 
HETATM   10  C   UNL     1     -40.163  53.142 -51.585  1.00  0.00     0.032 A 
ENDROOT
BRANCH   3  11
HETATM   11  N   UNL     1     -41.360  55.109 -55.838  1.00  0.00    -0.277 NA
HETATM   12  H   UNL     1     -40.880  55.924 -56.230  1.00  0.00     0.129 HD
BRANCH  11  13
HETATM   13  C   UNL     1     -42.713  55.033 -56.383  1.00  0.00     0.095 C 
BRANCH  13  14
HETATM   14  C   UNL     1     -42.868  56.011 -57.547  1.00  0.00     0.042 C 
BRANCH  14  15
HETATM   15  C   UNL     1     -42.484  57.453 -57.244  1.00  0.00     0.230 C 
BRANCH  15  16
HETATM   16  N   UNL     1     -43.056  57.911 -55.962  1.00  0.00    -0.079 N 
HETATM   17  H   UNL     1     -43.439  57.095 -55.441  1.00  0.00     0.274 HD
HETATM   18  H   UNL     1     -42.370  58.375 -55.359  1.00  0.00     0.274 HD
HETATM   19  H   UNL     1     -43.848  58.548 -56.108  1.00  0.00     0.274 HD
ENDBRANCH  15  16
ENDBRANCH  14  15
ENDBRANCH  13  14
ENDBRANCH  11  13
ENDBRANCH   3  11
BRANCH   1  20
HETATM   20  C   UNL     1     -41.614  57.652 -51.769  1.00  0.00     0.012 A 
HETATM   21  C   UNL     1     -40.682  58.227 -50.887  1.00  0.00     0.015 A 
HETATM   22  C   UNL     1     -40.937  59.443 -50.240  1.00  0.00     0.001 A 
HETATM   23  C   UNL     1     -42.145  60.102 -50.445  1.00  0.00     0.000 A 
HETATM   24  C   UNL     1     -43.096  59.549 -51.295  1.00  0.00     0.001 A 
HETATM   25  C   UNL     1     -42.829  58.343 -51.951  1.00  0.00     0.015 A 
ENDBRANCH   1  20
TORSDOF 6
ENDMDL
MODEL 8
REMARK VINA RESULT:      -6.6      1.414      5.852
REMARK  6 active torsions:
REMARK  status: ('A' for Active; 'I' for Inactive)
REMARK    1  A    between atoms: C_4  and  C_5 
REMARK    2  A    between atoms: C_7  and  N_8 
REMARK    3  A    between atoms: N_8  and  C_9 
REMARK    4  A    between atoms: C_9  and  C_10 
REMARK    5  A    between atoms: C_10  and  C_11 
REMARK    6  A    between atoms: C_11  and  N_12 
ROOT
HETATM    1  C   UNL     1     -41.917  55.143 -54.649  1.00  0.00     0.162 C 
HETATM    2  N   UNL     1     -41.797  55.748 -53.445  1.00  0.00    -0.216 NA
HETATM    3  C   UNL     1     -41.297  54.991 -52.441  1.00  0.00     0.118 C 
HETATM    4  C   UNL     1     -40.713  53.726 -52.664  1.00  0.00     0.033 A 
HETATM    5  C   UNL     1     -40.823  53.242 -53.970  1.00  0.00     0.072 A 
HETATM    6  N   UNL     1     -41.432  53.928 -54.937  1.00  0.00    -0.228 NA
HETATM    7  C   UNL     1     -40.040  52.939 -51.691  1.00  0.00     0.017 A 
HETATM    8  C   UNL     1     -39.503  51.696 -52.021  1.00  0.00     0.001 A 
HETATM    9  C   UNL     1     -39.630  51.222 -53.319  1.00  0.00     0.002 A 
HETATM   10  C   UNL     1     -40.285  51.998 -54.277  1.00  0.00     0.032 A 
ENDROOT
BRANCH   3  11
HETATM   11  N   UNL     1     -41.262  55.545 -51.139  1.00  0.00    -0.277 NA
HETATM   12  H   UNL     1     -41.734  54.882 -50.517  1.00  0.00     0.129 HD
BRANCH  11  13
HETATM   13  C   UNL     1     -41.829  56.878 -50.946  1.00  0.00     0.095 C 
BRANCH  13  14
HETATM   14  C   UNL     1     -40.711  57.915 -50.842  1.00  0.00     0.042 C 
BRANCH  14  15
HETATM   15  C   UNL     1     -40.733  59.008 -51.902  1.00  0.00     0.230 C 
BRANCH  15  16
HETATM   16  N   UNL     1     -40.334  58.490 -53.226  1.00  0.00    -0.079 N 
HETATM   17  H   UNL     1     -40.758  57.552 -53.375  1.00  0.00     0.274 HD
HETATM   18  H   UNL     1     -40.629  59.095 -53.999  1.00  0.00     0.274 HD
HETATM   19  H   UNL     1     -39.318  58.353 -53.287  1.00  0.00     0.274 HD
ENDBRANCH  15  16
ENDBRANCH  14  15
ENDBRANCH  13  14
ENDBRANCH  11  13
ENDBRANCH   3  11
BRANCH   1  20
HETATM   20  C   UNL     1     -42.620  55.858 -55.736  1.00  0.00     0.012 A 
HETATM   21  C   UNL     1     -42.676  55.365 -57.053  1.00  0.00     0.015 A 
HETATM   22  C   UNL     1     -43.360  56.051 -58.065  1.00  0.00     0.001 A 
HETATM   23  C   UNL     1     -43.987  57.261 -57.786  1.00  0.00     0.000 A 
HETATM   24  C   UNL     1     -43.932  57.785 -56.500  1.00  0.00     0.001 A 
HETATM   25  C   UNL     1     -43.261  57.088 -55.490  1.00  0.00     0.015 A 
ENDBRANCH   1  20
TORSDOF 6
ENDMDL
MODEL 9
REMARK VINA RESULT:      -6.5      1.298      2.403
REMARK  6 active torsions:
REMARK  status: ('A' for Active; 'I' for Inactive)
REMARK    1  A    between atoms: C_4  and  C_5 
REMARK    2  A    between atoms: C_7  and  N_8 
REMARK    3  A    between atoms: N_8  and  C_9 
REMARK    4  A    between atoms: C_9  and  C_10 
REMARK    5  A    between atoms: C_10  and  C_11 
REMARK    6  A    between atoms: C_11  and  N_12 
ROOT
HETATM    1  C   UNL     1     -41.484  55.020 -52.593  1.00  0.00     0.162 C 
HETATM    2  N   UNL     1     -42.621  55.321 -53.264  1.00  0.00    -0.216 NA
HETATM    3  C   UNL     1     -43.235  56.476 -52.916  1.00  0.00     0.118 C 
HETATM    4  C   UNL     1     -42.625  57.436 -52.080  1.00  0.00     0.033 A 
HETATM    5  C   UNL     1     -41.410  57.045 -51.513  1.00  0.00     0.072 A 
HETATM    6  N   UNL     1     -40.862  55.852 -51.748  1.00  0.00    -0.228 NA
HETATM    7  C   UNL     1     -43.139  58.728 -51.788  1.00  0.00     0.017 A 
HETATM    8  C   UNL     1     -42.455  59.597 -50.942  1.00  0.00     0.001 A 
HETATM    9  C   UNL     1     -41.254  59.193 -50.376  1.00  0.00     0.002 A 
HETATM   10  C   UNL     1     -40.746  57.925 -50.667  1.00  0.00     0.032 A 
ENDROOT
BRANCH   3  11
HETATM   11  N   UNL     1     -44.486  56.773 -53.508  1.00  0.00    -0.277 NA
HETATM   12  H   UNL     1     -44.884  55.886 -53.830  1.00  0.00     0.129 HD
BRANCH  11  13
HETATM   13  C   UNL     1     -44.513  57.742 -54.600  1.00  0.00     0.095 C 
BRANCH  13  14
HETATM   14  C   UNL     1     -44.103  57.071 -55.910  1.00  0.00     0.042 C 
BRANCH  14  15
HETATM   15  C   UNL     1     -42.659  57.298 -56.337  1.00  0.00     0.230 C 
BRANCH  15  16
HETATM   16  N   UNL     1     -41.869  56.052 -56.270  1.00  0.00    -0.079 N 
HETATM   17  H   UNL     1     -41.129  56.148 -55.545  1.00  0.00     0.274 HD
HETATM   18  H   UNL     1     -42.435  55.231 -56.034  1.00  0.00     0.274 HD
HETATM   19  H   UNL     1     -41.378  55.870 -57.152  1.00  0.00     0.274 HD
ENDBRANCH  15  16
ENDBRANCH  14  15
ENDBRANCH  13  14
ENDBRANCH  11  13
ENDBRANCH   3  11
BRANCH   1  20
HETATM   20  C   UNL     1     -40.868  53.692 -52.799  1.00  0.00     0.012 A 
HETATM   21  C   UNL     1     -40.144  53.029 -51.791  1.00  0.00     0.015 A 
HETATM   22  C   UNL     1     -39.581  51.765 -52.002  1.00  0.00     0.001 A 
HETATM   23  C   UNL     1     -39.711  51.142 -53.239  1.00  0.00     0.000 A 
HETATM   24  C   UNL     1     -40.403  51.779 -54.262  1.00  0.00     0.001 A 
HETATM   25  C   UNL     1     -40.977  53.034 -54.041  1.00  0.00     0.015 A 
ENDBRANCH   1  20
TORSDOF 6
ENDMDL
MODEL 10
REMARK VINA RESULT:      -6.4     14.209     17.081
REMARK  6 active torsions:
REMARK  status: ('A' for Active; 'I' for Inactive)
REMARK    1  A    between atoms: C_4  and  C_5 
REMARK    2  A    between atoms: C_7  and  N_8 
REMARK    3  A    between atoms: N_8  and  C_9 
REMARK    4  A    between atoms: C_9  and  C_10 
REMARK    5  A    between atoms: C_10  and  C_11 
REMARK    6  A    between atoms: C_11  and  N_12 
ROOT
HETATM    1  C   UNL     1     -33.545  40.475 -53.076  1.00  0.00     0.162 C 
HETATM    2  N   UNL     1     -32.580  40.321 -54.014  1.00  0.00    -0.216 NA
HETATM    3  C   UNL     1     -32.948  40.554 -55.295  1.00  0.00     0.118 C 
HETATM    4  C   UNL     1     -34.183  41.147 -55.634  1.00  0.00     0.033 A 
HETATM    5  C   UNL     1     -35.064  41.337 -54.566  1.00  0.00     0.072 A 
HETATM    6  N   UNL     1     -34.758  40.988 -53.316  1.00  0.00    -0.228 NA
HETATM    7  C   UNL     1     -34.579  41.554 -56.936  1.00  0.00     0.017 A 
HETATM    8  C   UNL     1     -35.829  42.127 -57.159  1.00  0.00     0.001 A 
HETATM    9  C   UNL     1     -36.699  42.300 -56.092  1.00  0.00     0.002 A 
HETATM   10  C   UNL     1     -36.308  41.906 -54.811  1.00  0.00     0.032 A 
ENDROOT
BRANCH   3  11
HETATM   11  N   UNL     1     -32.006  40.292 -56.319  1.00  0.00    -0.277 NA
HETATM   12  H   UNL     1     -32.061  41.069 -56.984  1.00  0.00     0.129 HD
BRANCH  11  13
HETATM   13  C   UNL     1     -32.115  39.027 -57.042  1.00  0.00     0.095 C 
BRANCH  13  14
HETATM   14  C   UNL     1     -31.026  38.060 -56.577  1.00  0.00     0.042 C 
BRANCH  14  15
HETATM   15  C   UNL     1     -29.665  38.687 -56.311  1.00  0.00     0.230 C 
BRANCH  15  16
HETATM   16  N   UNL     1     -29.224  39.532 -57.438  1.00  0.00    -0.079 N 
HETATM   17  H   UNL     1     -28.716  38.947 -58.133  1.00  0.00     0.274 HD
HETATM   18  H   UNL     1     -30.002  39.991 -57.924  1.00  0.00     0.274 HD
HETATM   19  H   UNL     1     -28.558  40.251 -57.134  1.00  0.00     0.274 HD
ENDBRANCH  15  16
ENDBRANCH  14  15
ENDBRANCH  13  14
ENDBRANCH  11  13
ENDBRANCH   3  11
BRANCH   1  20
HETATM   20  C   UNL     1     -33.255  40.063 -51.686  1.00  0.00     0.012 A 
HETATM   21  C   UNL     1     -34.252  39.585 -50.815  1.00  0.00     0.015 A 
HETATM   22  C   UNL     1     -33.954  39.186 -49.507  1.00  0.00     0.001 A 
HETATM   23  C   UNL     1     -32.651  39.278 -49.030  1.00  0.00     0.000 A 
HETATM   24  C   UNL     1     -31.646  39.766 -49.858  1.00  0.00     0.001 A 
HETATM   25  C   UNL     1     -31.946  40.148 -51.169  1.00  0.00     0.015 A 
ENDBRANCH   1  20
TORSDOF 6
ENDMDL
