MODEL 1
REMARK VINA RESULT:      -8.6      0.000      0.000
REMARK  2 active torsions:
REMARK  status: ('A' for Active; 'I' for Inactive)
REMARK    1  A    between atoms: C_9  and  N_10 
REMARK    2  A    between atoms: N_13  and  C_15 
ROOT
HETATM    1  N   UNL     1     -42.760  55.487 -54.412  1.00  0.00    -0.376 N 
HETATM    2  C   UNL     1     -43.085  54.423 -55.381  1.00  0.00     0.150 C 
HETATM    3  C   UNL     1     -42.886  54.937 -56.821  1.00  0.00     0.255 C 
HETATM    4  N   UNL     1     -43.700  56.218 -57.109  1.00  0.00    -0.064 N 
HETATM    5  H   UNL     1     -44.693  55.963 -57.053  1.00  0.00     0.280 HD
HETATM    6  C   UNL     1     -43.445  57.260 -56.000  1.00  0.00     0.255 C 
HETATM    7  C   UNL     1     -43.629  56.668 -54.590  1.00  0.00     0.150 C 
ENDROOT
BRANCH   1   8
HETATM    8  C   UNL     1     -42.251  55.177 -53.154  1.00  0.00     0.053 A 
HETATM    9  C   UNL     1     -41.324  54.034 -52.971  1.00  0.00     0.013 A 
HETATM   10  C   UNL     1     -40.883  53.104 -53.906  1.00  0.00     0.015 A 
HETATM   11  C   UNL     1     -40.908  53.878 -51.649  1.00  0.00     0.075 A 
HETATM   12  C   UNL     1     -40.016  52.078 -53.500  1.00  0.00     0.001 A 
HETATM   13  C   UNL     1     -39.605  51.967 -52.163  1.00  0.00     0.002 A 
HETATM   14  C   UNL     1     -40.062  52.875 -51.210  1.00  0.00     0.025 A 
HETATM   15  S   UNL     1     -41.667  55.082 -50.647  1.00  0.00     0.200 S 
HETATM   16  O   UNL     1     -40.647  56.002 -50.193  1.00  0.00    -0.218 OA
HETATM   17  O   UNL     1     -42.594  54.418 -49.758  1.00  0.00    -0.218 OA
HETATM   18  C   UNL     1     -42.530  55.776 -51.982  1.00  0.00     0.144 A 
ENDBRANCH   1   8
BRANCH   4  19
HETATM   19  C   UNL     1     -43.407  56.776 -58.516  1.00  0.00     0.188 C 
HETATM   20  C   UNL     1     -43.270  55.644 -59.550  1.00  0.00     0.033 C 
HETATM   21  C   UNL     1     -44.584  54.906 -59.802  1.00  0.00     0.002 C 
HETATM   22  C   UNL     1     -45.698  55.867 -60.210  1.00  0.00     0.000 C 
HETATM   23  C   UNL     1     -45.848  57.026 -59.229  1.00  0.00     0.002 C 
HETATM   24  C   UNL     1     -44.513  57.733 -58.994  1.00  0.00     0.033 C 
ENDBRANCH   4  19
TORSDOF 2
ENDMDL
MODEL 2
REMARK VINA RESULT:      -8.2      1.291      2.186
REMARK  2 active torsions:
REMARK  status: ('A' for Active; 'I' for Inactive)
REMARK    1  A    between atoms: C_9  and  N_10 
REMARK    2  A    between atoms: N_13  and  C_15 
ROOT
HETATM    1  N   UNL     1     -41.595  55.457 -54.066  1.00  0.00    -0.376 N 
HETATM    2  C   UNL     1     -41.319  56.871 -54.382  1.00  0.00     0.150 C 
HETATM    3  C   UNL     1     -42.347  57.398 -55.404  1.00  0.00     0.255 C 
HETATM    4  N   UNL     1     -42.395  56.541 -56.689  1.00  0.00    -0.064 N 
HETATM    5  H   UNL     1     -41.484  56.642 -57.152  1.00  0.00     0.280 HD
HETATM    6  C   UNL     1     -42.543  55.051 -56.318  1.00  0.00     0.255 C 
HETATM    7  C   UNL     1     -41.507  54.603 -55.270  1.00  0.00     0.150 C 
ENDROOT
BRANCH   1   8
HETATM    8  C   UNL     1     -41.291  54.931 -52.813  1.00  0.00     0.053 A 
HETATM    9  C   UNL     1     -40.679  53.586 -52.685  1.00  0.00     0.013 A 
HETATM   10  C   UNL     1     -40.384  52.657 -53.677  1.00  0.00     0.015 A 
HETATM   11  C   UNL     1     -40.434  53.226 -51.360  1.00  0.00     0.075 A 
HETATM   12  C   UNL     1     -39.824  51.422 -53.319  1.00  0.00     0.001 A 
HETATM   13  C   UNL     1     -39.574  51.105 -51.975  1.00  0.00     0.002 A 
HETATM   14  C   UNL     1     -39.891  52.015 -50.968  1.00  0.00     0.025 A 
HETATM   15  S   UNL     1     -40.978  54.491 -50.296  1.00  0.00     0.200 S 
HETATM   16  O   UNL     1     -39.817  55.096 -49.681  1.00  0.00    -0.218 OA
HETATM   17  O   UNL     1     -42.113  54.000 -49.545  1.00  0.00    -0.218 OA
HETATM   18  C   UNL     1     -41.528  55.481 -51.609  1.00  0.00     0.144 A 
ENDBRANCH   1   8
BRANCH   4  19
HETATM   19  C   UNL     1     -43.500  57.018 -57.652  1.00  0.00     0.188 C 
HETATM   20  C   UNL     1     -43.229  58.450 -58.150  1.00  0.00     0.033 C 
HETATM   21  C   UNL     1     -42.001  58.543 -59.054  1.00  0.00     0.002 C 
HETATM   22  C   UNL     1     -42.097  57.580 -60.234  1.00  0.00     0.000 C 
HETATM   23  C   UNL     1     -42.399  56.151 -59.789  1.00  0.00     0.002 C 
HETATM   24  C   UNL     1     -43.626  56.098 -58.879  1.00  0.00     0.033 C 
ENDBRANCH   4  19
TORSDOF 2
ENDMDL
MODEL 3
REMARK VINA RESULT:      -8.0      1.736      2.606
REMARK  2 active torsions:
REMARK  status: ('A' for Active; 'I' for Inactive)
REMARK    1  A    between atoms: C_9  and  N_10 
REMARK    2  A    between atoms: N_13  and  C_15 
ROOT
HETATM    1  N   UNL     1     -43.143  55.645 -54.459  1.00  0.00    -0.376 N 
HETATM    2  C   UNL     1     -43.077  54.559 -55.454  1.00  0.00     0.150 C 
HETATM    3  C   UNL     1     -42.813  55.139 -56.858  1.00  0.00     0.255 C 
HETATM    4  N   UNL     1     -43.860  56.202 -57.264  1.00  0.00    -0.064 N 
HETATM    5  H   UNL     1     -44.763  55.720 -57.341  1.00  0.00     0.280 HD
HETATM    6  C   UNL     1     -44.007  57.246 -56.138  1.00  0.00     0.255 C 
HETATM    7  C   UNL     1     -44.234  56.594 -54.761  1.00  0.00     0.150 C 
ENDROOT
BRANCH   1   8
HETATM    8  C   UNL     1     -42.748  55.433 -53.140  1.00  0.00     0.053 A 
HETATM    9  C   UNL     1     -41.989  56.469 -52.400  1.00  0.00     0.013 A 
HETATM   10  C   UNL     1     -41.512  57.696 -52.849  1.00  0.00     0.015 A 
HETATM   11  C   UNL     1     -41.687  56.091 -51.092  1.00  0.00     0.075 A 
HETATM   12  C   UNL     1     -40.787  58.516 -51.971  1.00  0.00     0.001 A 
HETATM   13  C   UNL     1     -40.521  58.107 -50.656  1.00  0.00     0.002 A 
HETATM   14  C   UNL     1     -40.968  56.868 -50.201  1.00  0.00     0.025 A 
HETATM   15  S   UNL     1     -42.287  54.485 -50.790  1.00  0.00     0.200 S 
HETATM   16  O   UNL     1     -43.373  54.579 -49.839  1.00  0.00    -0.218 OA
HETATM   17  O   UNL     1     -41.156  53.599 -50.624  1.00  0.00    -0.218 OA
HETATM   18  C   UNL     1     -42.926  54.326 -52.395  1.00  0.00     0.144 A 
ENDBRANCH   1   8
BRANCH   4  19
HETATM   19  C   UNL     1     -43.520  56.847 -58.623  1.00  0.00     0.188 C 
HETATM   20  C   UNL     1     -43.175  55.780 -59.678  1.00  0.00     0.033 C 
HETATM   21  C   UNL     1     -44.372  54.913 -60.063  1.00  0.00     0.002 C 
HETATM   22  C   UNL     1     -45.552  55.762 -60.531  1.00  0.00     0.000 C 
HETATM   23  C   UNL     1     -45.910  56.856 -59.529  1.00  0.00     0.002 C 
HETATM   24  C   UNL     1     -44.686  57.695 -59.160  1.00  0.00     0.033 C 
ENDBRANCH   4  19
TORSDOF 2
ENDMDL
MODEL 4
REMARK VINA RESULT:      -8.0      4.286      6.981
REMARK  2 active torsions:
REMARK  status: ('A' for Active; 'I' for Inactive)
REMARK    1  A    between atoms: C_9  and  N_10 
REMARK    2  A    between atoms: N_13  and  C_15 
ROOT
HETATM    1  N   UNL     1     -42.297  55.352 -52.127  1.00  0.00    -0.376 N 
HETATM    2  C   UNL     1     -42.130  54.360 -51.048  1.00  0.00     0.150 C 
HETATM    3  C   UNL     1     -40.802  53.599 -51.226  1.00  0.00     0.255 C 
HETATM    4  N   UNL     1     -40.684  52.932 -52.615  1.00  0.00    -0.064 N 
HETATM    5  H   UNL     1     -41.412  52.210 -52.665  1.00  0.00     0.280 HD
HETATM    6  C   UNL     1     -41.003  53.963 -53.718  1.00  0.00     0.255 C 
HETATM    7  C   UNL     1     -42.326  54.708 -53.457  1.00  0.00     0.150 C 
ENDROOT
BRANCH   1   8
HETATM    8  C   UNL     1     -42.997  56.536 -51.909  1.00  0.00     0.053 A 
HETATM    9  C   UNL     1     -42.305  57.740 -51.389  1.00  0.00     0.013 A 
HETATM   10  C   UNL     1     -40.981  57.889 -50.993  1.00  0.00     0.015 A 
HETATM   11  C   UNL     1     -43.157  58.834 -51.243  1.00  0.00     0.075 A 
HETATM   12  C   UNL     1     -40.544  59.129 -50.502  1.00  0.00     0.001 A 
HETATM   13  C   UNL     1     -41.429  60.212 -50.389  1.00  0.00     0.002 A 
HETATM   14  C   UNL     1     -42.765  60.069 -50.755  1.00  0.00     0.025 A 
HETATM   15  S   UNL     1     -44.776  58.385 -51.696  1.00  0.00     0.200 S 
HETATM   16  O   UNL     1     -45.118  59.087 -52.913  1.00  0.00    -0.218 OA
HETATM   17  O   UNL     1     -45.603  58.398 -50.509  1.00  0.00    -0.218 OA
HETATM   18  C   UNL     1     -44.315  56.755 -52.069  1.00  0.00     0.144 A 
ENDBRANCH   1   8
BRANCH   4  19
HETATM   19  C   UNL     1     -39.307  52.267 -52.814  1.00  0.00     0.188 C 
HETATM   20  C   UNL     1     -38.883  51.474 -51.565  1.00  0.00     0.033 C 
HETATM   21  C   UNL     1     -39.760  50.248 -51.311  1.00  0.00     0.002 C 
HETATM   22  C   UNL     1     -39.811  49.332 -52.532  1.00  0.00     0.000 C 
HETATM   23  C   UNL     1     -40.195  50.084 -53.803  1.00  0.00     0.002 C 
HETATM   24  C   UNL     1     -39.304  51.308 -54.017  1.00  0.00     0.033 C 
ENDBRANCH   4  19
TORSDOF 2
ENDMDL
MODEL 5
REMARK VINA RESULT:      -7.8      2.065      2.744
REMARK  2 active torsions:
REMARK  status: ('A' for Active; 'I' for Inactive)
REMARK    1  A    between atoms: C_9  and  N_10 
REMARK    2  A    between atoms: N_13  and  C_15 
ROOT
HETATM    1  N   UNL     1     -41.886  55.883 -53.046  1.00  0.00    -0.376 N 
HETATM    2  C   UNL     1     -43.245  55.584 -53.535  1.00  0.00     0.150 C 
HETATM    3  C   UNL     1     -43.437  56.156 -54.954  1.00  0.00     0.255 C 
HETATM    4  N   UNL     1     -43.143  57.671 -55.025  1.00  0.00    -0.064 N 
HETATM    5  H   UNL     1     -43.851  58.143 -54.450  1.00  0.00     0.280 HD
HETATM    6  C   UNL     1     -41.774  57.969 -54.377  1.00  0.00     0.255 C 
HETATM    7  C   UNL     1     -41.641  57.339 -52.978  1.00  0.00     0.150 C 
ENDROOT
BRANCH   1   8
HETATM    8  C   UNL     1     -41.238  55.024 -52.162  1.00  0.00     0.053 A 
HETATM    9  C   UNL     1     -40.691  53.727 -52.630  1.00  0.00     0.013 A 
HETATM   10  C   UNL     1     -40.768  53.145 -53.891  1.00  0.00     0.015 A 
HETATM   11  C   UNL     1     -40.068  53.003 -51.614  1.00  0.00     0.075 A 
HETATM   12  C   UNL     1     -40.193  51.884 -54.103  1.00  0.00     0.001 A 
HETATM   13  C   UNL     1     -39.557  51.195 -53.058  1.00  0.00     0.002 A 
HETATM   14  C   UNL     1     -39.497  51.754 -51.784  1.00  0.00     0.025 A 
HETATM   15  S   UNL     1     -40.186  53.874 -50.112  1.00  0.00     0.200 S 
HETATM   16  O   UNL     1     -38.860  54.319 -49.741  1.00  0.00    -0.218 OA
HETATM   17  O   UNL     1     -41.058  53.137 -49.224  1.00  0.00    -0.218 OA
HETATM   18  C   UNL     1     -41.060  55.184 -50.838  1.00  0.00     0.144 A 
ENDBRANCH   1   8
BRANCH   4  19
HETATM   19  C   UNL     1     -43.236  58.204 -56.469  1.00  0.00     0.188 C 
HETATM   20  C   UNL     1     -44.586  57.840 -57.113  1.00  0.00     0.033 C 
HETATM   21  C   UNL     1     -45.769  58.559 -56.465  1.00  0.00     0.002 C 
HETATM   22  C   UNL     1     -45.572  60.073 -56.461  1.00  0.00     0.000 C 
HETATM   23  C   UNL     1     -44.229  60.479 -55.860  1.00  0.00     0.002 C 
HETATM   24  C   UNL     1     -43.072  59.733 -56.526  1.00  0.00     0.033 C 
ENDBRANCH   4  19
TORSDOF 2
ENDMDL
MODEL 6
REMARK VINA RESULT:      -7.6      4.173      8.083
REMARK  2 active torsions:
REMARK  status: ('A' for Active; 'I' for Inactive)
REMARK    1  A    between atoms: C_9  and  N_10 
REMARK    2  A    between atoms: N_13  and  C_15 
ROOT
HETATM    1  N   UNL     1     -43.118  56.232 -56.226  1.00  0.00    -0.376 N 
HETATM    2  C   UNL     1     -42.941  54.836 -55.787  1.00  0.00     0.150 C 
HETATM    3  C   UNL     1     -43.419  54.671 -54.331  1.00  0.00     0.255 C 
HETATM    4  N   UNL     1     -42.716  55.650 -53.363  1.00  0.00    -0.064 N 
HETATM    5  H   UNL     1     -41.722  55.394 -53.347  1.00  0.00     0.280 HD
HETATM    6  C   UNL     1     -42.797  57.085 -53.923  1.00  0.00     0.255 C 
HETATM    7  C   UNL     1     -42.336  57.168 -55.390  1.00  0.00     0.150 C 
ENDROOT
BRANCH   1   8
HETATM    8  C   UNL     1     -43.375  56.537 -57.560  1.00  0.00     0.053 A 
HETATM    9  C   UNL     1     -44.450  57.491 -57.926  1.00  0.00     0.013 A 
HETATM   10  C   UNL     1     -45.359  58.146 -57.103  1.00  0.00     0.015 A 
HETATM   11  C   UNL     1     -44.559  57.683 -59.302  1.00  0.00     0.075 A 
HETATM   12  C   UNL     1     -46.318  58.996 -57.675  1.00  0.00     0.001 A 
HETATM   13  C   UNL     1     -46.383  59.177 -59.065  1.00  0.00     0.002 A 
HETATM   14  C   UNL     1     -45.496  58.506 -59.903  1.00  0.00     0.025 A 
HETATM   15  S   UNL     1     -43.398  56.686 -60.130  1.00  0.00     0.200 S 
HETATM   16  O   UNL     1     -42.404  57.550 -60.729  1.00  0.00    -0.218 OA
HETATM   17  O   UNL     1     -44.112  55.665 -60.865  1.00  0.00    -0.218 OA
HETATM   18  C   UNL     1     -42.782  56.022 -58.652  1.00  0.00     0.144 A 
ENDBRANCH   1   8
BRANCH   4  19
HETATM   19  C   UNL     1     -43.282  55.544 -51.933  1.00  0.00     0.188 C 
HETATM   20  C   UNL     1     -43.140  54.115 -51.379  1.00  0.00     0.033 C 
HETATM   21  C   UNL     1     -41.686  53.710 -51.142  1.00  0.00     0.002 C 
HETATM   22  C   UNL     1     -40.966  54.706 -50.236  1.00  0.00     0.000 C 
HETATM   23  C   UNL     1     -41.109  56.143 -50.730  1.00  0.00     0.002 C 
HETATM   24  C   UNL     1     -42.574  56.509 -50.965  1.00  0.00     0.033 C 
ENDBRANCH   4  19
TORSDOF 2
ENDMDL
MODEL 7
REMARK VINA RESULT:      -7.6      3.655      7.670
REMARK  2 active torsions:
REMARK  status: ('A' for Active; 'I' for Inactive)
REMARK    1  A    between atoms: C_9  and  N_10 
REMARK    2  A    between atoms: N_13  and  C_15 
ROOT
HETATM    1  N   UNL     1     -42.080  57.081 -54.563  1.00  0.00    -0.376 N 
HETATM    2  C   UNL     1     -40.846  56.283 -54.434  1.00  0.00     0.150 C 
HETATM    3  C   UNL     1     -41.106  55.041 -53.558  1.00  0.00     0.255 C 
HETATM    4  N   UNL     1     -41.678  55.405 -52.170  1.00  0.00    -0.064 N 
HETATM    5  H   UNL     1     -40.951  55.933 -51.674  1.00  0.00     0.280 HD
HETATM    6  C   UNL     1     -42.883  56.355 -52.335  1.00  0.00     0.255 C 
HETATM    7  C   UNL     1     -42.561  57.554 -53.248  1.00  0.00     0.150 C 
ENDROOT
BRANCH   1   8
HETATM    8  C   UNL     1     -42.331  57.831 -55.709  1.00  0.00     0.053 A 
HETATM    9  C   UNL     1     -42.767  57.174 -56.964  1.00  0.00     0.013 A 
HETATM   10  C   UNL     1     -42.928  55.820 -57.236  1.00  0.00     0.015 A 
HETATM   11  C   UNL     1     -42.982  58.078 -58.004  1.00  0.00     0.075 A 
HETATM   12  C   UNL     1     -43.331  55.418 -58.518  1.00  0.00     0.001 A 
HETATM   13  C   UNL     1     -43.555  56.361 -59.533  1.00  0.00     0.002 A 
HETATM   14  C   UNL     1     -43.371  57.719 -59.283  1.00  0.00     0.025 A 
HETATM   15  S   UNL     1     -42.618  59.692 -57.465  1.00  0.00     0.200 S 
HETATM   16  O   UNL     1     -43.854  60.441 -57.407  1.00  0.00    -0.218 OA
HETATM   17  O   UNL     1     -41.439  60.154 -58.166  1.00  0.00    -0.218 OA
HETATM   18  C   UNL     1     -42.182  59.158 -55.874  1.00  0.00     0.144 A 
ENDBRANCH   1   8
BRANCH   4  19
HETATM   19  C   UNL     1     -42.031  54.148 -51.350  1.00  0.00     0.188 C 
HETATM   20  C   UNL     1     -40.868  53.139 -51.345  1.00  0.00     0.033 C 
HETATM   21  C   UNL     1     -39.644  53.645 -50.583  1.00  0.00     0.002 C 
HETATM   22  C   UNL     1     -40.000  54.052 -49.156  1.00  0.00     0.000 C 
HETATM   23  C   UNL     1     -41.173  55.029 -49.110  1.00  0.00     0.002 C 
HETATM   24  C   UNL     1     -42.374  54.495 -49.891  1.00  0.00     0.033 C 
ENDBRANCH   4  19
TORSDOF 2
ENDMDL
MODEL 8
REMARK VINA RESULT:      -7.4     15.949     18.747
REMARK  2 active torsions:
REMARK  status: ('A' for Active; 'I' for Inactive)
REMARK    1  A    between atoms: C_9  and  N_10 
REMARK    2  A    between atoms: N_13  and  C_15 
ROOT
HETATM    1  N   UNL     1     -35.180  39.264 -55.884  1.00  0.00    -0.376 N 
HETATM    2  C   UNL     1     -36.053  39.216 -54.697  1.00  0.00     0.150 C 
HETATM    3  C   UNL     1     -35.545  40.198 -53.622  1.00  0.00     0.255 C 
HETATM    4  N   UNL     1     -34.071  39.942 -53.237  1.00  0.00    -0.064 N 
HETATM    5  H   UNL     1     -34.032  39.017 -52.791  1.00  0.00     0.280 HD
HETATM    6  C   UNL     1     -33.205  39.857 -54.511  1.00  0.00     0.255 C 
HETATM    7  C   UNL     1     -33.790  38.884 -55.552  1.00  0.00     0.150 C 
ENDROOT
BRANCH   1   8
HETATM    8  C   UNL     1     -35.687  39.015 -57.156  1.00  0.00     0.053 A 
HETATM    9  C   UNL     1     -36.230  40.118 -57.985  1.00  0.00     0.013 A 
HETATM   10  C   UNL     1     -36.386  41.462 -57.664  1.00  0.00     0.015 A 
HETATM   11  C   UNL     1     -36.683  39.688 -59.231  1.00  0.00     0.075 A 
HETATM   12  C   UNL     1     -36.953  42.333 -58.606  1.00  0.00     0.001 A 
HETATM   13  C   UNL     1     -37.380  41.864 -59.858  1.00  0.00     0.002 A 
HETATM   14  C   UNL     1     -37.255  40.515 -60.182  1.00  0.00     0.025 A 
HETATM   15  S   UNL     1     -36.485  37.964 -59.368  1.00  0.00     0.200 S 
HETATM   16  O   UNL     1     -35.462  37.702 -60.357  1.00  0.00    -0.218 OA
HETATM   17  O   UNL     1     -37.796  37.354 -59.396  1.00  0.00    -0.218 OA
HETATM   18  C   UNL     1     -35.810  37.827 -57.776  1.00  0.00     0.144 A 
ENDBRANCH   1   8
BRANCH   4  19
HETATM   19  C   UNL     1     -33.549  40.997 -52.242  1.00  0.00     0.188 C 
HETATM   20  C   UNL     1     -34.437  41.070 -50.986  1.00  0.00     0.033 C 
HETATM   21  C   UNL     1     -34.361  39.807 -50.130  1.00  0.00     0.002 C 
HETATM   22  C   UNL     1     -32.922  39.474 -49.745  1.00  0.00     0.000 C 
HETATM   23  C   UNL     1     -31.997  39.425 -50.958  1.00  0.00     0.002 C 
HETATM   24  C   UNL     1     -32.107  40.699 -51.795  1.00  0.00     0.033 C 
ENDBRANCH   4  19
TORSDOF 2
ENDMDL
MODEL 9
REMARK VINA RESULT:      -7.4      2.370      2.599
REMARK  2 active torsions:
REMARK  status: ('A' for Active; 'I' for Inactive)
REMARK    1  A    between atoms: C_9  and  N_10 
REMARK    2  A    between atoms: N_13  and  C_15 
ROOT
HETATM    1  N   UNL     1     -43.216  57.135 -55.051  1.00  0.00    -0.376 N 
HETATM    2  C   UNL     1     -42.808  55.951 -55.830  1.00  0.00     0.150 C 
HETATM    3  C   UNL     1     -42.830  56.272 -57.338  1.00  0.00     0.255 C 
HETATM    4  N   UNL     1     -44.203  56.801 -57.809  1.00  0.00    -0.064 N 
HETATM    5  H   UNL     1     -44.877  56.036 -57.691  1.00  0.00     0.280 HD
HETATM    6  C   UNL     1     -44.667  57.947 -56.886  1.00  0.00     0.255 C 
HETATM    7  C   UNL     1     -44.586  57.567 -55.396  1.00  0.00     0.150 C 
ENDROOT
BRANCH   1   8
HETATM    8  C   UNL     1     -42.715  57.357 -53.771  1.00  0.00     0.053 A 
HETATM    9  C   UNL     1     -42.757  56.287 -52.745  1.00  0.00     0.013 A 
HETATM   10  C   UNL     1     -43.307  55.012 -52.828  1.00  0.00     0.015 A 
HETATM   11  C   UNL     1     -42.205  56.681 -51.527  1.00  0.00     0.075 A 
HETATM   12  C   UNL     1     -43.254  54.165 -51.711  1.00  0.00     0.001 A 
HETATM   13  C   UNL     1     -42.672  54.593 -50.509  1.00  0.00     0.002 A 
HETATM   14  C   UNL     1     -42.142  55.877 -50.402  1.00  0.00     0.025 A 
HETATM   15  S   UNL     1     -41.682  58.338 -51.626  1.00  0.00     0.200 S 
HETATM   16  O   UNL     1     -40.237  58.362 -51.565  1.00  0.00    -0.218 OA
HETATM   17  O   UNL     1     -42.529  59.136 -50.767  1.00  0.00    -0.218 OA
HETATM   18  C   UNL     1     -42.202  58.496 -53.272  1.00  0.00     0.144 A 
ENDBRANCH   1   8
BRANCH   4  19
HETATM   19  C   UNL     1     -44.175  57.217 -59.294  1.00  0.00     0.188 C 
HETATM   20  C   UNL     1     -43.831  56.024 -60.203  1.00  0.00     0.033 C 
HETATM   21  C   UNL     1     -44.923  54.957 -60.225  1.00  0.00     0.002 C 
HETATM   22  C   UNL     1     -46.277  55.547 -60.613  1.00  0.00     0.000 C 
HETATM   23  C   UNL     1     -46.646  56.756 -59.757  1.00  0.00     0.002 C 
HETATM   24  C   UNL     1     -45.526  57.796 -59.750  1.00  0.00     0.033 C 
ENDBRANCH   4  19
TORSDOF 2
ENDMDL
MODEL 10
REMARK VINA RESULT:      -7.3      3.261      6.873
REMARK  2 active torsions:
REMARK  status: ('A' for Active; 'I' for Inactive)
REMARK    1  A    between atoms: C_9  and  N_10 
REMARK    2  A    between atoms: N_13  and  C_15 
ROOT
HETATM    1  N   UNL     1     -42.742  55.317 -52.354  1.00  0.00    -0.376 N 
HETATM    2  C   UNL     1     -42.079  54.661 -51.212  1.00  0.00     0.150 C 
HETATM    3  C   UNL     1     -40.768  53.990 -51.671  1.00  0.00     0.255 C 
HETATM    4  N   UNL     1     -40.989  52.994 -52.832  1.00  0.00    -0.064 N 
HETATM    5  H   UNL     1     -41.565  52.228 -52.465  1.00  0.00     0.280 HD
HETATM    6  C   UNL     1     -41.808  53.670 -53.951  1.00  0.00     0.255 C 
HETATM    7  C   UNL     1     -43.084  54.346 -53.415  1.00  0.00     0.150 C 
ENDROOT
BRANCH   1   8
HETATM    8  C   UNL     1     -43.522  56.455 -52.171  1.00  0.00     0.053 A 
HETATM    9  C   UNL     1     -43.965  57.265 -53.332  1.00  0.00     0.013 A 
HETATM   10  C   UNL     1     -43.663  57.105 -54.680  1.00  0.00     0.015 A 
HETATM   11  C   UNL     1     -44.745  58.360 -52.963  1.00  0.00     0.075 A 
HETATM   12  C   UNL     1     -44.178  58.017 -55.614  1.00  0.00     0.001 A 
HETATM   13  C   UNL     1     -44.976  59.096 -55.204  1.00  0.00     0.002 A 
HETATM   14  C   UNL     1     -45.263  59.284 -53.854  1.00  0.00     0.025 A 
HETATM   15  S   UNL     1     -44.899  58.418 -51.231  1.00  0.00     0.200 S 
HETATM   16  O   UNL     1     -46.274  58.127 -50.888  1.00  0.00    -0.218 OA
HETATM   17  O   UNL     1     -44.185  59.579 -50.746  1.00  0.00    -0.218 OA
HETATM   18  C   UNL     1     -43.928  56.998 -51.009  1.00  0.00     0.144 A 
ENDBRANCH   1   8
BRANCH   4  19
HETATM   19  C   UNL     1     -39.657  52.415 -53.348  1.00  0.00     0.188 C 
HETATM   20  C   UNL     1     -38.878  51.712 -52.221  1.00  0.00     0.033 C 
HETATM   21  C   UNL     1     -39.568  50.444 -51.721  1.00  0.00     0.002 C 
HETATM   22  C   UNL     1     -39.847  49.469 -52.863  1.00  0.00     0.000 C 
HETATM   23  C   UNL     1     -40.590  50.132 -54.019  1.00  0.00     0.002 C 
HETATM   24  C   UNL     1     -39.877  51.402 -54.485  1.00  0.00     0.033 C 
ENDBRANCH   4  19
TORSDOF 2
ENDMDL
