MODEL 1
REMARK VINA RESULT:      -8.6      0.000      0.000
REMARK  8 active torsions:
REMARK  status: ('A' for Active; 'I' for Inactive)
REMARK    1  A    between atoms: O_2  and  C_3 
REMARK    2  A    between atoms: C_4  and  O_5 
REMARK    3  A    between atoms: C_8  and  C_9 
REMARK    4  A    between atoms: C_9  and  N_10 
REMARK    5  A    between atoms: C_19  and  C_20 
REMARK    6  A    between atoms: C_20  and  N_21 
REMARK    7  A    between atoms: C_25  and  O_26 
REMARK    8  A    between atoms: C_25  and  C_27 
ROOT
HETATM    1  N   UNL     1     -42.307  56.309 -51.786  1.00  0.00    -0.061 N 
HETATM    2  H   UNL     1     -41.575  55.792 -51.285  1.00  0.00     0.280 HD
HETATM    3  C   UNL     1     -41.646  57.626 -52.146  1.00  0.00     0.276 C 
HETATM    4  C   UNL     1     -42.447  58.538 -53.034  1.00  0.00     0.002 A 
HETATM    5  C   UNL     1     -43.683  59.030 -52.613  1.00  0.00     0.076 A 
HETATM    6  O   UNL     1     -44.173  58.732 -51.374  1.00  0.00    -0.349 OA
HETATM    7  C   UNL     1     -44.577  57.360 -51.273  1.00  0.00     0.203 C 
HETATM    8  C   UNL     1     -43.431  56.474 -50.773  1.00  0.00     0.262 C 
HETATM    9  C   UNL     1     -41.962  58.943 -54.293  1.00  0.00     0.020 A 
HETATM   10  C   UNL     1     -42.716  59.780 -55.137  1.00  0.00    -0.032 A 
HETATM   11  C   UNL     1     -43.947  60.265 -54.675  1.00  0.00     0.011 A 
HETATM   12  C   UNL     1     -44.416  59.907 -53.409  1.00  0.00     0.038 A 
ENDROOT
BRANCH  10  13
HETATM   13  C   UNL     1     -42.219  60.120 -56.523  1.00  0.00     0.273 C 
BRANCH  13  14
HETATM   14  N   UNL     1     -42.048  58.932 -57.452  1.00  0.00    -0.067 N 
HETATM   15  H   UNL     1     -41.099  58.566 -57.298  1.00  0.00     0.280 HD
HETATM   16  C   UNL     1     -43.018  57.814 -57.147  1.00  0.00     0.238 C 
HETATM   17  C   UNL     1     -42.818  56.670 -58.126  1.00  0.00     0.071 C 
HETATM   18  C   UNL     1     -43.033  57.119 -59.585  1.00  0.00     0.089 C 
HETATM   19  C   UNL     1     -41.986  58.220 -59.848  1.00  0.00     0.071 C 
HETATM   20  C   UNL     1     -42.123  59.395 -58.894  1.00  0.00     0.238 C 
BRANCH  18  21
HETATM   21  O   UNL     1     -42.666  56.009 -60.406  1.00  0.00    -0.385 OA
HETATM   22  H   UNL     1     -42.470  55.229 -59.853  1.00  0.00     0.211 HD
ENDBRANCH  18  21
BRANCH  18  23
HETATM   23  C   UNL     1     -44.478  57.492 -59.900  1.00  0.00    -0.006 A 
HETATM   24  C   UNL     1     -44.839  58.728 -60.437  1.00  0.00     0.126 A 
HETATM   25  N   UNL     1     -46.108  59.129 -60.662  1.00  0.00    -0.272 NA
HETATM   26  C   UNL     1     -47.091  58.239 -60.425  1.00  0.00     0.116 A 
HETATM   27  C   UNL     1     -46.852  56.962 -59.958  1.00  0.00     0.020 A 
HETATM   28  C   UNL     1     -45.534  56.588 -59.701  1.00  0.00     0.013 A 
ENDBRANCH  18  23
ENDBRANCH  13  14
ENDBRANCH  10  13
BRANCH   1  29
HETATM   29  C   UNL     1     -42.679  55.406 -52.948  1.00  0.00     0.274 C 
BRANCH  29  30
HETATM   30  C   UNL     1     -41.652  54.350 -53.252  1.00  0.00    -0.030 A 
HETATM   31  C   UNL     1     -41.103  53.591 -52.210  1.00  0.00     0.048 A 
HETATM   32  C   UNL     1     -40.264  52.510 -52.480  1.00  0.00     0.102 A 
HETATM   33  C   UNL     1     -39.926  52.176 -53.798  1.00  0.00     0.101 A 
HETATM   34  C   UNL     1     -40.417  52.974 -54.836  1.00  0.00     0.040 A 
HETATM   35  C   UNL     1     -41.277  54.049 -54.568  1.00  0.00     0.012 A 
BRANCH  32  36
HETATM   36  O   UNL     1     -39.916  51.734 -51.402  1.00  0.00    -0.353 OA
HETATM   37  C   UNL     1     -40.381  52.311 -50.178  1.00  0.00     0.210 C 
ENDBRANCH  32  36
BRANCH  33  38
HETATM   38  O   UNL     1     -39.171  51.049 -53.974  1.00  0.00    -0.353 OA
HETATM   39  C   UNL     1     -39.843  49.879 -54.429  1.00  0.00     0.210 C 
ENDBRANCH  33  38
ENDBRANCH  29  30
ENDBRANCH   1  29
TORSDOF 8
ENDMDL
MODEL 2
REMARK VINA RESULT:      -8.2      1.993      5.934
REMARK  8 active torsions:
REMARK  status: ('A' for Active; 'I' for Inactive)
REMARK    1  A    between atoms: O_2  and  C_3 
REMARK    2  A    between atoms: C_4  and  O_5 
REMARK    3  A    between atoms: C_8  and  C_9 
REMARK    4  A    between atoms: C_9  and  N_10 
REMARK    5  A    between atoms: C_19  and  C_20 
REMARK    6  A    between atoms: C_20  and  N_21 
REMARK    7  A    between atoms: C_25  and  O_26 
REMARK    8  A    between atoms: C_25  and  C_27 
ROOT
HETATM    1  N   UNL     1     -42.495  56.253 -50.287  1.00  0.00    -0.061 N 
HETATM    2  H   UNL     1     -43.144  56.632 -49.588  1.00  0.00     0.280 HD
HETATM    3  C   UNL     1     -43.307  55.194 -51.008  1.00  0.00     0.276 C 
HETATM    4  C   UNL     1     -42.648  54.568 -52.207  1.00  0.00     0.002 A 
HETATM    5  C   UNL     1     -41.454  53.859 -52.069  1.00  0.00     0.076 A 
HETATM    6  O   UNL     1     -40.880  53.682 -50.843  1.00  0.00    -0.349 OA
HETATM    7  C   UNL     1     -40.328  54.901 -50.327  1.00  0.00     0.203 C 
HETATM    8  C   UNL     1     -41.350  55.661 -49.475  1.00  0.00     0.262 C 
HETATM    9  C   UNL     1     -43.229  54.652 -53.487  1.00  0.00     0.020 A 
HETATM   10  C   UNL     1     -42.607  54.086 -54.616  1.00  0.00    -0.032 A 
HETATM   11  C   UNL     1     -41.415  53.370 -54.437  1.00  0.00     0.011 A 
HETATM   12  C   UNL     1     -40.854  53.241 -53.164  1.00  0.00     0.038 A 
ENDROOT
BRANCH  10  13
HETATM   13  C   UNL     1     -43.199  54.275 -55.994  1.00  0.00     0.273 C 
BRANCH  13  14
HETATM   14  N   UNL     1     -42.641  55.450 -56.776  1.00  0.00    -0.067 N 
HETATM   15  H   UNL     1     -41.622  55.321 -56.823  1.00  0.00     0.280 HD
HETATM   16  C   UNL     1     -43.156  55.496 -58.196  1.00  0.00     0.238 C 
HETATM   17  C   UNL     1     -42.587  56.706 -58.916  1.00  0.00     0.071 C 
HETATM   18  C   UNL     1     -42.969  58.024 -58.215  1.00  0.00     0.089 C 
HETATM   19  C   UNL     1     -42.376  57.935 -56.794  1.00  0.00     0.071 C 
HETATM   20  C   UNL     1     -42.898  56.737 -56.019  1.00  0.00     0.238 C 
BRANCH  18  21
HETATM   21  O   UNL     1     -42.254  59.061 -58.887  1.00  0.00    -0.385 OA
HETATM   22  H   UNL     1     -42.783  59.414 -59.627  1.00  0.00     0.211 HD
ENDBRANCH  18  21
BRANCH  18  23
HETATM   23  C   UNL     1     -44.459  58.343 -58.290  1.00  0.00    -0.006 A 
HETATM   24  C   UNL     1     -45.255  57.981 -59.378  1.00  0.00     0.126 A 
HETATM   25  N   UNL     1     -46.558  58.306 -59.520  1.00  0.00    -0.272 NA
HETATM   26  C   UNL     1     -47.150  58.956 -58.501  1.00  0.00     0.116 A 
HETATM   27  C   UNL     1     -46.483  59.307 -57.344  1.00  0.00     0.020 A 
HETATM   28  C   UNL     1     -45.130  58.990 -57.239  1.00  0.00     0.013 A 
ENDBRANCH  18  23
ENDBRANCH  13  14
ENDBRANCH  10  13
BRANCH   1  29
HETATM   29  C   UNL     1     -42.081  57.457 -51.111  1.00  0.00     0.274 C 
BRANCH  29  30
HETATM   30  C   UNL     1     -43.236  58.202 -51.725  1.00  0.00    -0.030 A 
HETATM   31  C   UNL     1     -44.306  58.611 -50.921  1.00  0.00     0.048 A 
HETATM   32  C   UNL     1     -45.313  59.429 -51.435  1.00  0.00     0.102 A 
HETATM   33  C   UNL     1     -45.292  59.834 -52.777  1.00  0.00     0.101 A 
HETATM   34  C   UNL     1     -44.261  59.370 -53.599  1.00  0.00     0.040 A 
HETATM   35  C   UNL     1     -43.238  58.564 -53.079  1.00  0.00     0.012 A 
BRANCH  32  36
HETATM   36  O   UNL     1     -46.222  59.909 -50.526  1.00  0.00    -0.353 OA
HETATM   37  C   UNL     1     -45.613  60.842 -49.628  1.00  0.00     0.210 C 
ENDBRANCH  32  36
BRANCH  33  38
HETATM   38  O   UNL     1     -46.270  60.705 -53.172  1.00  0.00    -0.353 OA
HETATM   39  C   UNL     1     -45.868  61.822 -53.958  1.00  0.00     0.210 C 
ENDBRANCH  33  38
ENDBRANCH  29  30
ENDBRANCH   1  29
TORSDOF 8
ENDMDL
MODEL 3
REMARK VINA RESULT:      -8.2      2.365      5.970
REMARK  8 active torsions:
REMARK  status: ('A' for Active; 'I' for Inactive)
REMARK    1  A    between atoms: O_2  and  C_3 
REMARK    2  A    between atoms: C_4  and  O_5 
REMARK    3  A    between atoms: C_8  and  C_9 
REMARK    4  A    between atoms: C_9  and  N_10 
REMARK    5  A    between atoms: C_19  and  C_20 
REMARK    6  A    between atoms: C_20  and  N_21 
REMARK    7  A    between atoms: C_25  and  O_26 
REMARK    8  A    between atoms: C_25  and  C_27 
ROOT
HETATM    1  N   UNL     1     -41.887  54.464 -50.371  1.00  0.00    -0.061 N 
HETATM    2  H   UNL     1     -42.522  54.459 -49.565  1.00  0.00     0.280 HD
HETATM    3  C   UNL     1     -42.728  53.911 -51.507  1.00  0.00     0.276 C 
HETATM    4  C   UNL     1     -42.092  53.947 -52.869  1.00  0.00     0.002 A 
HETATM    5  C   UNL     1     -40.913  53.244 -53.119  1.00  0.00     0.076 A 
HETATM    6  O   UNL     1     -40.334  52.476 -52.150  1.00  0.00    -0.349 OA
HETATM    7  C   UNL     1     -39.752  53.274 -51.110  1.00  0.00     0.203 C 
HETATM    8  C   UNL     1     -40.750  53.532 -49.977  1.00  0.00     0.262 C 
HETATM    9  C   UNL     1     -42.681  54.661 -53.931  1.00  0.00     0.020 A 
HETATM   10  C   UNL     1     -42.080  54.714 -55.203  1.00  0.00    -0.032 A 
HETATM   11  C   UNL     1     -40.903  53.985 -55.421  1.00  0.00     0.011 A 
HETATM   12  C   UNL     1     -40.336  53.237 -54.386  1.00  0.00     0.038 A 
ENDROOT
BRANCH  10  13
HETATM   13  C   UNL     1     -42.678  55.567 -56.298  1.00  0.00     0.273 C 
BRANCH  13  14
HETATM   14  N   UNL     1     -42.053  56.941 -56.455  1.00  0.00    -0.067 N 
HETATM   15  H   UNL     1     -41.033  56.810 -56.438  1.00  0.00     0.280 HD
HETATM   16  C   UNL     1     -42.402  57.589 -57.775  1.00  0.00     0.238 C 
HETATM   17  C   UNL     1     -41.773  58.969 -57.860  1.00  0.00     0.071 C 
HETATM   18  C   UNL     1     -42.255  59.890 -56.721  1.00  0.00     0.089 C 
HETATM   19  C   UNL     1     -41.827  59.201 -55.410  1.00  0.00     0.071 C 
HETATM   20  C   UNL     1     -42.415  57.807 -55.265  1.00  0.00     0.238 C 
BRANCH  18  21
HETATM   21  O   UNL     1     -41.484  61.087 -56.818  1.00  0.00    -0.385 OA
HETATM   22  H   UNL     1     -40.533  60.886 -56.725  1.00  0.00     0.211 HD
ENDBRANCH  18  21
BRANCH  18  23
HETATM   23  C   UNL     1     -43.731  60.260 -56.822  1.00  0.00    -0.006 A 
HETATM   24  C   UNL     1     -44.576  60.309 -55.713  1.00  0.00     0.126 A 
HETATM   25  N   UNL     1     -45.902  60.559 -55.764  1.00  0.00    -0.272 NA
HETATM   26  C   UNL     1     -46.430  60.861 -56.965  1.00  0.00     0.116 A 
HETATM   27  C   UNL     1     -45.681  60.912 -58.125  1.00  0.00     0.020 A 
HETATM   28  C   UNL     1     -44.321  60.615 -58.047  1.00  0.00     0.013 A 
ENDBRANCH  18  23
ENDBRANCH  13  14
ENDBRANCH  10  13
BRANCH   1  29
HETATM   29  C   UNL     1     -41.453  55.912 -50.502  1.00  0.00     0.274 C 
BRANCH  29  30
HETATM   30  C   UNL     1     -42.571  56.854 -50.856  1.00  0.00    -0.030 A 
HETATM   31  C   UNL     1     -42.276  58.150 -51.299  1.00  0.00     0.048 A 
HETATM   32  C   UNL     1     -43.285  58.989 -51.774  1.00  0.00     0.102 A 
HETATM   33  C   UNL     1     -44.621  58.566 -51.788  1.00  0.00     0.101 A 
HETATM   34  C   UNL     1     -44.926  57.299 -51.283  1.00  0.00     0.040 A 
HETATM   35  C   UNL     1     -43.911  56.447 -50.824  1.00  0.00     0.012 A 
BRANCH  32  36
HETATM   36  O   UNL     1     -42.871  60.169 -52.338  1.00  0.00    -0.353 OA
HETATM   37  C   UNL     1     -42.706  61.187 -51.346  1.00  0.00     0.210 C 
ENDBRANCH  32  36
BRANCH  33  38
HETATM   38  O   UNL     1     -45.530  59.418 -52.351  1.00  0.00    -0.353 OA
HETATM   39  C   UNL     1     -46.334  60.192 -51.466  1.00  0.00     0.210 C 
ENDBRANCH  33  38
ENDBRANCH  29  30
ENDBRANCH   1  29
TORSDOF 8
ENDMDL
MODEL 4
REMARK VINA RESULT:      -8.1      2.989      6.354
REMARK  8 active torsions:
REMARK  status: ('A' for Active; 'I' for Inactive)
REMARK    1  A    between atoms: O_2  and  C_3 
REMARK    2  A    between atoms: C_4  and  O_5 
REMARK    3  A    between atoms: C_8  and  C_9 
REMARK    4  A    between atoms: C_9  and  N_10 
REMARK    5  A    between atoms: C_19  and  C_20 
REMARK    6  A    between atoms: C_20  and  N_21 
REMARK    7  A    between atoms: C_25  and  O_26 
REMARK    8  A    between atoms: C_25  and  C_27 
ROOT
HETATM    1  N   UNL     1     -42.586  54.654 -55.389  1.00  0.00    -0.061 N 
HETATM    2  H   UNL     1     -42.814  53.656 -55.317  1.00  0.00     0.280 HD
HETATM    3  C   UNL     1     -43.475  55.312 -54.351  1.00  0.00     0.276 C 
HETATM    4  C   UNL     1     -43.240  56.779 -54.123  1.00  0.00     0.002 A 
HETATM    5  C   UNL     1     -43.417  57.694 -55.161  1.00  0.00     0.076 A 
HETATM    6  O   UNL     1     -43.848  57.286 -56.391  1.00  0.00    -0.349 OA
HETATM    7  C   UNL     1     -42.842  56.541 -57.091  1.00  0.00     0.203 C 
HETATM    8  C   UNL     1     -42.965  55.039 -56.813  1.00  0.00     0.262 C 
HETATM    9  C   UNL     1     -42.867  57.272 -52.857  1.00  0.00     0.020 A 
HETATM   10  C   UNL     1     -42.625  58.642 -52.643  1.00  0.00    -0.032 A 
HETATM   11  C   UNL     1     -42.826  59.533 -53.706  1.00  0.00     0.011 A 
HETATM   12  C   UNL     1     -43.241  59.060 -54.954  1.00  0.00     0.038 A 
ENDROOT
BRANCH  10  13
HETATM   13  C   UNL     1     -42.130  59.133 -51.302  1.00  0.00     0.273 C 
BRANCH  13  14
HETATM   14  N   UNL     1     -43.198  59.723 -50.400  1.00  0.00    -0.067 N 
HETATM   15  H   UNL     1     -43.024  59.360 -49.454  1.00  0.00     0.280 HD
HETATM   16  C   UNL     1     -43.124  61.231 -50.325  1.00  0.00     0.238 C 
HETATM   17  C   UNL     1     -44.233  61.762 -49.434  1.00  0.00     0.071 C 
HETATM   18  C   UNL     1     -45.629  61.367 -49.956  1.00  0.00     0.089 C 
HETATM   19  C   UNL     1     -45.657  59.825 -49.962  1.00  0.00     0.071 C 
HETATM   20  C   UNL     1     -44.563  59.225 -50.830  1.00  0.00     0.238 C 
BRANCH  18  21
HETATM   21  O   UNL     1     -46.564  61.784 -48.961  1.00  0.00    -0.385 OA
HETATM   22  H   UNL     1     -46.768  62.733 -49.064  1.00  0.00     0.211 HD
ENDBRANCH  18  21
BRANCH  18  23
HETATM   23  C   UNL     1     -45.997  62.040 -51.274  1.00  0.00    -0.006 A 
HETATM   24  C   UNL     1     -45.528  63.304 -51.635  1.00  0.00     0.126 A 
HETATM   25  N   UNL     1     -45.886  63.967 -52.755  1.00  0.00    -0.272 NA
HETATM   26  C   UNL     1     -46.692  63.329 -53.624  1.00  0.00     0.116 A 
HETATM   27  C   UNL     1     -47.166  62.050 -53.409  1.00  0.00     0.020 A 
HETATM   28  C   UNL     1     -46.808  61.402 -52.228  1.00  0.00     0.013 A 
ENDBRANCH  18  23
ENDBRANCH  13  14
ENDBRANCH  10  13
BRANCH   1  29
HETATM   29  C   UNL     1     -41.092  54.720 -55.130  1.00  0.00     0.274 C 
BRANCH  29  30
HETATM   30  C   UNL     1     -40.623  53.806 -54.031  1.00  0.00    -0.030 A 
HETATM   31  C   UNL     1     -40.728  54.212 -52.695  1.00  0.00     0.048 A 
HETATM   32  C   UNL     1     -40.440  53.328 -51.655  1.00  0.00     0.102 A 
HETATM   33  C   UNL     1     -40.008  52.022 -51.925  1.00  0.00     0.101 A 
HETATM   34  C   UNL     1     -39.836  51.636 -53.257  1.00  0.00     0.040 A 
HETATM   35  C   UNL     1     -40.145  52.517 -54.303  1.00  0.00     0.012 A 
BRANCH  32  36
HETATM   36  O   UNL     1     -40.735  53.769 -50.390  1.00  0.00    -0.353 OA
HETATM   37  C   UNL     1     -40.721  55.199 -50.324  1.00  0.00     0.210 C 
ENDBRANCH  32  36
BRANCH  33  38
HETATM   38  O   UNL     1     -39.834  51.197 -50.847  1.00  0.00    -0.353 OA
HETATM   39  C   UNL     1     -39.483  49.843 -51.113  1.00  0.00     0.210 C 
ENDBRANCH  33  38
ENDBRANCH  29  30
ENDBRANCH   1  29
TORSDOF 8
ENDMDL
MODEL 5
REMARK VINA RESULT:      -8.1      3.704      7.616
REMARK  8 active torsions:
REMARK  status: ('A' for Active; 'I' for Inactive)
REMARK    1  A    between atoms: O_2  and  C_3 
REMARK    2  A    between atoms: C_4  and  O_5 
REMARK    3  A    between atoms: C_8  and  C_9 
REMARK    4  A    between atoms: C_9  and  N_10 
REMARK    5  A    between atoms: C_19  and  C_20 
REMARK    6  A    between atoms: C_20  and  N_21 
REMARK    7  A    between atoms: C_25  and  O_26 
REMARK    8  A    between atoms: C_25  and  C_27 
ROOT
HETATM    1  N   UNL     1     -42.651  54.703 -55.573  1.00  0.00    -0.061 N 
HETATM    2  H   UNL     1     -42.696  53.678 -55.531  1.00  0.00     0.280 HD
HETATM    3  C   UNL     1     -43.818  55.157 -54.717  1.00  0.00     0.276 C 
HETATM    4  C   UNL     1     -43.909  56.637 -54.467  1.00  0.00     0.002 A 
HETATM    5  C   UNL     1     -44.071  57.525 -55.531  1.00  0.00     0.076 A 
HETATM    6  O   UNL     1     -44.193  57.072 -56.813  1.00  0.00    -0.349 OA
HETATM    7  C   UNL     1     -42.957  56.545 -57.315  1.00  0.00     0.203 C 
HETATM    8  C   UNL     1     -42.839  55.041 -57.046  1.00  0.00     0.262 C 
HETATM    9  C   UNL     1     -43.865  57.162 -53.161  1.00  0.00     0.020 A 
HETATM   10  C   UNL     1     -43.930  58.548 -52.923  1.00  0.00    -0.032 A 
HETATM   11  C   UNL     1     -44.105  59.409 -54.015  1.00  0.00     0.011 A 
HETATM   12  C   UNL     1     -44.197  58.895 -55.311  1.00  0.00     0.038 A 
ENDROOT
BRANCH  10  13
HETATM   13  C   UNL     1     -43.781  59.094 -51.521  1.00  0.00     0.273 C 
BRANCH  13  14
HETATM   14  N   UNL     1     -44.002  60.589 -51.388  1.00  0.00    -0.067 N 
HETATM   15  H   UNL     1     -43.641  61.023 -52.248  1.00  0.00     0.280 HD
HETATM   16  C   UNL     1     -45.466  60.950 -51.281  1.00  0.00     0.238 C 
HETATM   17  C   UNL     1     -45.621  62.452 -51.121  1.00  0.00     0.071 C 
HETATM   18  C   UNL     1     -44.896  62.973 -49.864  1.00  0.00     0.089 C 
HETATM   19  C   UNL     1     -43.408  62.620 -50.057  1.00  0.00     0.071 C 
HETATM   20  C   UNL     1     -43.181  61.127 -50.233  1.00  0.00     0.238 C 
BRANCH  18  21
HETATM   21  O   UNL     1     -44.982  64.398 -49.911  1.00  0.00    -0.385 OA
HETATM   22  H   UNL     1     -45.809  64.702 -49.490  1.00  0.00     0.211 HD
ENDBRANCH  18  21
BRANCH  18  23
HETATM   23  C   UNL     1     -45.525  62.497 -48.558  1.00  0.00    -0.006 A 
HETATM   24  C   UNL     1     -46.893  62.590 -48.301  1.00  0.00     0.126 A 
HETATM   25  N   UNL     1     -47.481  62.250 -47.134  1.00  0.00    -0.272 NA
HETATM   26  C   UNL     1     -46.701  61.709 -46.180  1.00  0.00     0.116 A 
HETATM   27  C   UNL     1     -45.345  61.505 -46.343  1.00  0.00     0.020 A 
HETATM   28  C   UNL     1     -44.758  61.897 -47.546  1.00  0.00     0.013 A 
ENDBRANCH  18  23
ENDBRANCH  13  14
ENDBRANCH  10  13
BRANCH   1  29
HETATM   29  C   UNL     1     -41.267  55.043 -55.055  1.00  0.00     0.274 C 
BRANCH  29  30
HETATM   30  C   UNL     1     -40.761  54.097 -54.000  1.00  0.00    -0.030 A 
HETATM   31  C   UNL     1     -40.872  54.439 -52.646  1.00  0.00     0.048 A 
HETATM   32  C   UNL     1     -40.549  53.519 -51.649  1.00  0.00     0.102 A 
HETATM   33  C   UNL     1     -40.075  52.241 -51.978  1.00  0.00     0.101 A 
HETATM   34  C   UNL     1     -39.898  51.922 -53.327  1.00  0.00     0.040 A 
HETATM   35  C   UNL     1     -40.242  52.839 -54.332  1.00  0.00     0.012 A 
BRANCH  32  36
HETATM   36  O   UNL     1     -40.851  53.893 -50.363  1.00  0.00    -0.353 OA
HETATM   37  C   UNL     1     -41.108  55.298 -50.280  1.00  0.00     0.210 C 
ENDBRANCH  32  36
BRANCH  33  38
HETATM   38  O   UNL     1     -39.867  51.376 -50.940  1.00  0.00    -0.353 OA
HETATM   39  C   UNL     1     -39.513  50.036 -51.269  1.00  0.00     0.210 C 
ENDBRANCH  33  38
ENDBRANCH  29  30
ENDBRANCH   1  29
TORSDOF 8
ENDMDL
MODEL 6
REMARK VINA RESULT:      -8.0      2.147      8.203
REMARK  8 active torsions:
REMARK  status: ('A' for Active; 'I' for Inactive)
REMARK    1  A    between atoms: O_2  and  C_3 
REMARK    2  A    between atoms: C_4  and  O_5 
REMARK    3  A    between atoms: C_8  and  C_9 
REMARK    4  A    between atoms: C_9  and  N_10 
REMARK    5  A    between atoms: C_19  and  C_20 
REMARK    6  A    between atoms: C_20  and  N_21 
REMARK    7  A    between atoms: C_25  and  O_26 
REMARK    8  A    between atoms: C_25  and  C_27 
ROOT
HETATM    1  N   UNL     1     -43.937  60.566 -58.308  1.00  0.00    -0.061 N 
HETATM    2  H   UNL     1     -43.550  61.468 -58.007  1.00  0.00     0.280 HD
HETATM    3  C   UNL     1     -42.747  59.626 -58.275  1.00  0.00     0.276 C 
HETATM    4  C   UNL     1     -43.052  58.175 -58.525  1.00  0.00     0.002 A 
HETATM    5  C   UNL     1     -43.608  57.768 -59.739  1.00  0.00     0.076 A 
HETATM    6  O   UNL     1     -43.847  58.666 -60.739  1.00  0.00    -0.349 OA
HETATM    7  C   UNL     1     -44.937  59.542 -60.423  1.00  0.00     0.203 C 
HETATM    8  C   UNL     1     -44.448  60.814 -59.721  1.00  0.00     0.262 C 
HETATM    9  C   UNL     1     -42.761  57.190 -57.562  1.00  0.00     0.020 A 
HETATM   10  C   UNL     1     -43.063  55.833 -57.783  1.00  0.00    -0.032 A 
HETATM   11  C   UNL     1     -43.609  55.459 -59.018  1.00  0.00     0.011 A 
HETATM   12  C   UNL     1     -43.859  56.423 -59.999  1.00  0.00     0.038 A 
ENDROOT
BRANCH  10  13
HETATM   13  C   UNL     1     -42.832  54.808 -56.695  1.00  0.00     0.273 C 
BRANCH  13  14
HETATM   14  N   UNL     1     -42.717  55.376 -55.293  1.00  0.00    -0.067 N 
HETATM   15  H   UNL     1     -43.206  56.282 -55.296  1.00  0.00     0.280 HD
HETATM   16  C   UNL     1     -43.389  54.504 -54.258  1.00  0.00     0.238 C 
HETATM   17  C   UNL     1     -43.215  55.109 -52.876  1.00  0.00     0.071 C 
HETATM   18  C   UNL     1     -41.727  55.258 -52.498  1.00  0.00     0.089 C 
HETATM   19  C   UNL     1     -41.114  56.194 -53.558  1.00  0.00     0.071 C 
HETATM   20  C   UNL     1     -41.262  55.652 -54.970  1.00  0.00     0.238 C 
BRANCH  18  21
HETATM   21  O   UNL     1     -41.696  55.973 -51.262  1.00  0.00    -0.385 OA
HETATM   22  H   UNL     1     -42.430  56.615 -51.223  1.00  0.00     0.211 HD
ENDBRANCH  18  21
BRANCH  18  23
HETATM   23  C   UNL     1     -41.013  53.925 -52.300  1.00  0.00    -0.006 A 
HETATM   24  C   UNL     1     -40.867  53.324 -51.049  1.00  0.00     0.126 A 
HETATM   25  N   UNL     1     -40.181  52.184 -50.818  1.00  0.00    -0.272 NA
HETATM   26  C   UNL     1     -39.669  51.541 -51.884  1.00  0.00     0.116 A 
HETATM   27  C   UNL     1     -39.807  52.002 -53.178  1.00  0.00     0.020 A 
HETATM   28  C   UNL     1     -40.491  53.199 -53.383  1.00  0.00     0.013 A 
ENDBRANCH  18  23
ENDBRANCH  13  14
ENDBRANCH  10  13
BRANCH   1  29
HETATM   29  C   UNL     1     -45.046  60.279 -57.314  1.00  0.00     0.274 C 
BRANCH  29  30
HETATM   30  C   UNL     1     -44.562  59.715 -56.006  1.00  0.00    -0.030 A 
HETATM   31  C   UNL     1     -43.613  60.418 -55.253  1.00  0.00     0.048 A 
HETATM   32  C   UNL     1     -43.261  59.993 -53.972  1.00  0.00     0.102 A 
HETATM   33  C   UNL     1     -43.825  58.834 -53.422  1.00  0.00     0.101 A 
HETATM   34  C   UNL     1     -44.720  58.093 -54.198  1.00  0.00     0.040 A 
HETATM   35  C   UNL     1     -45.091  58.530 -55.478  1.00  0.00     0.012 A 
BRANCH  32  36
HETATM   36  O   UNL     1     -42.453  60.841 -53.256  1.00  0.00    -0.353 OA
HETATM   37  C   UNL     1     -43.177  61.991 -52.809  1.00  0.00     0.210 C 
ENDBRANCH  32  36
BRANCH  33  38
HETATM   38  O   UNL     1     -43.489  58.541 -52.128  1.00  0.00    -0.353 OA
HETATM   39  C   UNL     1     -44.556  58.296 -51.217  1.00  0.00     0.210 C 
ENDBRANCH  33  38
ENDBRANCH  29  30
ENDBRANCH   1  29
TORSDOF 8
ENDMDL
MODEL 7
REMARK VINA RESULT:      -7.6      1.874      2.675
REMARK  8 active torsions:
REMARK  status: ('A' for Active; 'I' for Inactive)
REMARK    1  A    between atoms: O_2  and  C_3 
REMARK    2  A    between atoms: C_4  and  O_5 
REMARK    3  A    between atoms: C_8  and  C_9 
REMARK    4  A    between atoms: C_9  and  N_10 
REMARK    5  A    between atoms: C_19  and  C_20 
REMARK    6  A    between atoms: C_20  and  N_21 
REMARK    7  A    between atoms: C_25  and  O_26 
REMARK    8  A    between atoms: C_25  and  C_27 
ROOT
HETATM    1  N   UNL     1     -42.479  56.231 -51.799  1.00  0.00    -0.061 N 
HETATM    2  H   UNL     1     -41.683  56.068 -51.173  1.00  0.00     0.280 HD
HETATM    3  C   UNL     1     -41.893  57.046 -52.937  1.00  0.00     0.276 C 
HETATM    4  C   UNL     1     -42.812  57.304 -54.098  1.00  0.00     0.002 A 
HETATM    5  C   UNL     1     -43.997  58.018 -53.918  1.00  0.00     0.076 A 
HETATM    6  O   UNL     1     -44.329  58.532 -52.698  1.00  0.00    -0.349 OA
HETATM    7  C   UNL     1     -44.691  57.507 -51.763  1.00  0.00     0.203 C 
HETATM    8  C   UNL     1     -43.476  57.023 -50.965  1.00  0.00     0.262 C 
HETATM    9  C   UNL     1     -42.490  56.863 -55.397  1.00  0.00     0.020 A 
HETATM   10  C   UNL     1     -43.356  57.084 -56.484  1.00  0.00    -0.032 A 
HETATM   11  C   UNL     1     -44.532  57.816 -56.268  1.00  0.00     0.011 A 
HETATM   12  C   UNL     1     -44.838  58.298 -54.993  1.00  0.00     0.038 A 
ENDROOT
BRANCH  10  13
HETATM   13  C   UNL     1     -43.037  56.515 -57.848  1.00  0.00     0.273 C 
BRANCH  13  14
HETATM   14  N   UNL     1     -42.888  57.544 -58.953  1.00  0.00    -0.067 N 
HETATM   15  H   UNL     1     -42.311  57.112 -59.688  1.00  0.00     0.280 HD
HETATM   16  C   UNL     1     -44.213  57.914 -59.580  1.00  0.00     0.238 C 
HETATM   17  C   UNL     1     -44.003  58.965 -60.656  1.00  0.00     0.071 C 
HETATM   18  C   UNL     1     -43.354  60.245 -60.091  1.00  0.00     0.089 C 
HETATM   19  C   UNL     1     -41.993  59.809 -59.513  1.00  0.00     0.071 C 
HETATM   20  C   UNL     1     -42.130  58.748 -58.434  1.00  0.00     0.238 C 
BRANCH  18  21
HETATM   21  O   UNL     1     -43.068  61.081 -61.212  1.00  0.00    -0.385 OA
HETATM   22  H   UNL     1     -42.426  61.773 -60.964  1.00  0.00     0.211 HD
ENDBRANCH  18  21
BRANCH  18  23
HETATM   23  C   UNL     1     -44.261  61.015 -59.136  1.00  0.00    -0.006 A 
HETATM   24  C   UNL     1     -45.586  61.329 -59.441  1.00  0.00     0.126 A 
HETATM   25  N   UNL     1     -46.401  62.070 -58.660  1.00  0.00    -0.272 NA
HETATM   26  C   UNL     1     -45.924  62.466 -57.465  1.00  0.00     0.116 A 
HETATM   27  C   UNL     1     -44.652  62.158 -57.024  1.00  0.00     0.020 A 
HETATM   28  C   UNL     1     -43.821  61.421 -57.866  1.00  0.00     0.013 A 
ENDBRANCH  18  23
ENDBRANCH  13  14
ENDBRANCH  10  13
BRANCH   1  29
HETATM   29  C   UNL     1     -42.971  54.841 -52.155  1.00  0.00     0.274 C 
BRANCH  29  30
HETATM   30  C   UNL     1     -41.892  53.924 -52.663  1.00  0.00    -0.030 A 
HETATM   31  C   UNL     1     -40.991  53.342 -51.762  1.00  0.00     0.048 A 
HETATM   32  C   UNL     1     -40.080  52.375 -52.188  1.00  0.00     0.102 A 
HETATM   33  C   UNL     1     -40.023  51.988 -53.533  1.00  0.00     0.101 A 
HETATM   34  C   UNL     1     -40.874  52.617 -54.447  1.00  0.00     0.040 A 
HETATM   35  C   UNL     1     -41.804  53.574 -54.017  1.00  0.00     0.012 A 
BRANCH  32  36
HETATM   36  O   UNL     1     -39.360  51.749 -51.201  1.00  0.00    -0.353 OA
HETATM   37  C   UNL     1     -40.182  50.846 -50.455  1.00  0.00     0.210 C 
ENDBRANCH  32  36
BRANCH  33  38
HETATM   38  O   UNL     1     -39.161  50.972 -53.845  1.00  0.00    -0.353 OA
HETATM   39  C   UNL     1     -39.726  49.776 -54.372  1.00  0.00     0.210 C 
ENDBRANCH  33  38
ENDBRANCH  29  30
ENDBRANCH   1  29
TORSDOF 8
ENDMDL
MODEL 8
REMARK VINA RESULT:      -7.5      2.353      5.929
REMARK  8 active torsions:
REMARK  status: ('A' for Active; 'I' for Inactive)
REMARK    1  A    between atoms: O_2  and  C_3 
REMARK    2  A    between atoms: C_4  and  O_5 
REMARK    3  A    between atoms: C_8  and  C_9 
REMARK    4  A    between atoms: C_9  and  N_10 
REMARK    5  A    between atoms: C_19  and  C_20 
REMARK    6  A    between atoms: C_20  and  N_21 
REMARK    7  A    between atoms: C_25  and  O_26 
REMARK    8  A    between atoms: C_25  and  C_27 
ROOT
HETATM    1  N   UNL     1     -42.057  57.037 -50.339  1.00  0.00    -0.061 N 
HETATM    2  H   UNL     1     -42.304  57.530 -49.473  1.00  0.00     0.280 HD
HETATM    3  C   UNL     1     -43.394  56.773 -51.007  1.00  0.00     0.276 C 
HETATM    4  C   UNL     1     -43.329  56.189 -52.391  1.00  0.00     0.002 A 
HETATM    5  C   UNL     1     -42.738  54.944 -52.607  1.00  0.00     0.076 A 
HETATM    6  O   UNL     1     -42.243  54.211 -51.566  1.00  0.00    -0.349 OA
HETATM    7  C   UNL     1     -41.051  54.791 -51.020  1.00  0.00     0.203 C 
HETATM    8  C   UNL     1     -41.372  55.758 -49.876  1.00  0.00     0.262 C 
HETATM    9  C   UNL     1     -43.887  56.862 -53.495  1.00  0.00     0.020 A 
HETATM   10  C   UNL     1     -43.812  56.330 -54.796  1.00  0.00    -0.032 A 
HETATM   11  C   UNL     1     -43.222  55.071 -54.973  1.00  0.00     0.011 A 
HETATM   12  C   UNL     1     -42.706  54.373 -53.877  1.00  0.00     0.038 A 
ENDROOT
BRANCH  10  13
HETATM   13  C   UNL     1     -44.330  57.116 -55.978  1.00  0.00     0.273 C 
BRANCH  13  14
HETATM   14  N   UNL     1     -43.432  57.102 -57.201  1.00  0.00    -0.067 N 
HETATM   15  H   UNL     1     -42.802  56.294 -57.100  1.00  0.00     0.280 HD
HETATM   16  C   UNL     1     -44.206  56.912 -58.485  1.00  0.00     0.238 C 
HETATM   17  C   UNL     1     -43.258  56.935 -59.672  1.00  0.00     0.071 C 
HETATM   18  C   UNL     1     -42.482  58.264 -59.761  1.00  0.00     0.089 C 
HETATM   19  C   UNL     1     -41.679  58.373 -58.450  1.00  0.00     0.071 C 
HETATM   20  C   UNL     1     -42.568  58.347 -57.217  1.00  0.00     0.238 C 
BRANCH  18  21
HETATM   21  O   UNL     1     -41.525  58.102 -60.808  1.00  0.00    -0.385 OA
HETATM   22  H   UNL     1     -41.795  57.378 -61.405  1.00  0.00     0.211 HD
ENDBRANCH  18  21
BRANCH  18  23
HETATM   23  C   UNL     1     -43.364  59.462 -60.098  1.00  0.00    -0.006 A 
HETATM   24  C   UNL     1     -42.997  60.776 -59.807  1.00  0.00     0.126 A 
HETATM   25  N   UNL     1     -43.776  61.858 -60.020  1.00  0.00    -0.272 NA
HETATM   26  C   UNL     1     -44.960  61.661 -60.629  1.00  0.00     0.116 A 
HETATM   27  C   UNL     1     -45.403  60.414 -61.026  1.00  0.00     0.020 A 
HETATM   28  C   UNL     1     -44.592  59.311 -60.762  1.00  0.00     0.013 A 
ENDBRANCH  18  23
ENDBRANCH  13  14
ENDBRANCH  10  13
BRANCH   1  29
HETATM   29  C   UNL     1     -41.122  57.987 -51.062  1.00  0.00     0.274 C 
BRANCH  29  30
HETATM   30  C   UNL     1     -41.702  59.356 -51.294  1.00  0.00    -0.030 A 
HETATM   31  C   UNL     1     -41.943  59.798 -52.601  1.00  0.00     0.048 A 
HETATM   32  C   UNL     1     -42.616  60.997 -52.836  1.00  0.00     0.102 A 
HETATM   33  C   UNL     1     -43.038  61.802 -51.770  1.00  0.00     0.101 A 
HETATM   34  C   UNL     1     -42.738  61.397 -50.466  1.00  0.00     0.040 A 
HETATM   35  C   UNL     1     -42.080  60.182 -50.228  1.00  0.00     0.012 A 
BRANCH  32  36
HETATM   36  O   UNL     1     -42.948  61.255 -54.143  1.00  0.00    -0.353 OA
HETATM   37  C   UNL     1     -44.076  60.477 -54.553  1.00  0.00     0.210 C 
ENDBRANCH  32  36
BRANCH  33  38
HETATM   38  O   UNL     1     -43.767  62.915 -52.090  1.00  0.00    -0.353 OA
HETATM   39  C   UNL     1     -45.158  62.893 -51.787  1.00  0.00     0.210 C 
ENDBRANCH  33  38
ENDBRANCH  29  30
ENDBRANCH   1  29
TORSDOF 8
ENDMDL
MODEL 9
REMARK VINA RESULT:      -7.5      2.267      6.064
REMARK  8 active torsions:
REMARK  status: ('A' for Active; 'I' for Inactive)
REMARK    1  A    between atoms: O_2  and  C_3 
REMARK    2  A    between atoms: C_4  and  O_5 
REMARK    3  A    between atoms: C_8  and  C_9 
REMARK    4  A    between atoms: C_9  and  N_10 
REMARK    5  A    between atoms: C_19  and  C_20 
REMARK    6  A    between atoms: C_20  and  N_21 
REMARK    7  A    between atoms: C_25  and  O_26 
REMARK    8  A    between atoms: C_25  and  C_27 
ROOT
HETATM    1  N   UNL     1     -42.314  56.508 -50.601  1.00  0.00    -0.061 N 
HETATM    2  H   UNL     1     -42.879  57.080 -49.963  1.00  0.00     0.280 HD
HETATM    3  C   UNL     1     -43.314  55.999 -51.623  1.00  0.00     0.276 C 
HETATM    4  C   UNL     1     -42.733  55.247 -52.788  1.00  0.00     0.002 A 
HETATM    5  C   UNL     1     -42.022  54.064 -52.583  1.00  0.00     0.076 A 
HETATM    6  O   UNL     1     -41.873  53.542 -51.330  1.00  0.00    -0.349 OA
HETATM    7  C   UNL     1     -40.986  54.328 -50.523  1.00  0.00     0.203 C 
HETATM    8  C   UNL     1     -41.749  55.395 -49.730  1.00  0.00     0.262 C 
HETATM    9  C   UNL     1     -42.916  55.694 -54.111  1.00  0.00     0.020 A 
HETATM   10  C   UNL     1     -42.357  55.005 -55.204  1.00  0.00    -0.032 A 
HETATM   11  C   UNL     1     -41.660  53.814 -54.961  1.00  0.00     0.011 A 
HETATM   12  C   UNL     1     -41.513  53.336 -53.656  1.00  0.00     0.038 A 
ENDROOT
BRANCH  10  13
HETATM   13  C   UNL     1     -42.483  55.558 -56.605  1.00  0.00     0.273 C 
BRANCH  13  14
HETATM   14  N   UNL     1     -43.620  56.543 -56.806  1.00  0.00    -0.067 N 
HETATM   15  H   UNL     1     -44.410  56.208 -56.239  1.00  0.00     0.280 HD
HETATM   16  C   UNL     1     -43.274  57.932 -56.321  1.00  0.00     0.238 C 
HETATM   17  C   UNL     1     -44.437  58.876 -56.576  1.00  0.00     0.071 C 
HETATM   18  C   UNL     1     -44.794  58.956 -58.073  1.00  0.00     0.089 C 
HETATM   19  C   UNL     1     -45.183  57.524 -58.492  1.00  0.00     0.071 C 
HETATM   20  C   UNL     1     -44.064  56.523 -58.255  1.00  0.00     0.238 C 
BRANCH  18  21
HETATM   21  O   UNL     1     -45.985  59.739 -58.162  1.00  0.00    -0.385 OA
HETATM   22  H   UNL     1     -46.743  59.247 -57.792  1.00  0.00     0.211 HD
ENDBRANCH  18  21
BRANCH  18  23
HETATM   23  C   UNL     1     -43.716  59.623 -58.921  1.00  0.00    -0.006 A 
HETATM   24  C   UNL     1     -43.448  59.245 -60.237  1.00  0.00     0.126 A 
HETATM   25  N   UNL     1     -42.457  59.756 -60.998  1.00  0.00    -0.272 NA
HETATM   26  C   UNL     1     -41.726  60.759 -60.474  1.00  0.00     0.116 A 
HETATM   27  C   UNL     1     -41.942  61.264 -59.207  1.00  0.00     0.020 A 
HETATM   28  C   UNL     1     -42.950  60.694 -58.431  1.00  0.00     0.013 A 
ENDBRANCH  18  23
ENDBRANCH  13  14
ENDBRANCH  10  13
BRANCH   1  29
HETATM   29  C   UNL     1     -41.251  57.458 -51.120  1.00  0.00     0.274 C 
BRANCH  29  30
HETATM   30  C   UNL     1     -41.805  58.691 -51.781  1.00  0.00    -0.030 A 
HETATM   31  C   UNL     1     -42.458  59.661 -51.010  1.00  0.00     0.048 A 
HETATM   32  C   UNL     1     -42.847  60.877 -51.573  1.00  0.00     0.102 A 
HETATM   33  C   UNL     1     -42.621  61.143 -52.930  1.00  0.00     0.101 A 
HETATM   34  C   UNL     1     -42.031  60.149 -53.717  1.00  0.00     0.040 A 
HETATM   35  C   UNL     1     -41.622  58.934 -53.149  1.00  0.00     0.012 A 
BRANCH  32  36
HETATM   36  O   UNL     1     -43.325  61.820 -50.698  1.00  0.00    -0.353 OA
HETATM   37  C   UNL     1     -44.633  61.476 -50.231  1.00  0.00     0.210 C 
ENDBRANCH  32  36
BRANCH  33  38
HETATM   38  O   UNL     1     -42.954  62.392 -53.376  1.00  0.00    -0.353 OA
HETATM   39  C   UNL     1     -44.172  62.522 -54.102  1.00  0.00     0.210 C 
ENDBRANCH  33  38
ENDBRANCH  29  30
ENDBRANCH   1  29
TORSDOF 8
ENDMDL
MODEL 10
REMARK VINA RESULT:      -7.5      1.838      2.619
REMARK  8 active torsions:
REMARK  status: ('A' for Active; 'I' for Inactive)
REMARK    1  A    between atoms: O_2  and  C_3 
REMARK    2  A    between atoms: C_4  and  O_5 
REMARK    3  A    between atoms: C_8  and  C_9 
REMARK    4  A    between atoms: C_9  and  N_10 
REMARK    5  A    between atoms: C_19  and  C_20 
REMARK    6  A    between atoms: C_20  and  N_21 
REMARK    7  A    between atoms: C_25  and  O_26 
REMARK    8  A    between atoms: C_25  and  C_27 
ROOT
HETATM    1  N   UNL     1     -41.106  58.422 -51.424  1.00  0.00    -0.061 N 
HETATM    2  H   UNL     1     -40.161  58.049 -51.279  1.00  0.00     0.280 HD
HETATM    3  C   UNL     1     -41.080  58.950 -52.846  1.00  0.00     0.276 C 
HETATM    4  C   UNL     1     -42.398  59.425 -53.392  1.00  0.00     0.002 A 
HETATM    5  C   UNL     1     -43.074  60.485 -52.787  1.00  0.00     0.076 A 
HETATM    6  O   UNL     1     -42.538  61.140 -51.715  1.00  0.00    -0.349 OA
HETATM    7  C   UNL     1     -42.548  60.332 -50.532  1.00  0.00     0.203 C 
HETATM    8  C   UNL     1     -41.249  59.531 -50.390  1.00  0.00     0.262 C 
HETATM    9  C   UNL     1     -42.968  58.839 -54.538  1.00  0.00     0.020 A 
HETATM   10  C   UNL     1     -44.211  59.265 -55.042  1.00  0.00    -0.032 A 
HETATM   11  C   UNL     1     -44.856  60.341 -54.416  1.00  0.00     0.011 A 
HETATM   12  C   UNL     1     -44.276  60.960 -53.305  1.00  0.00     0.038 A 
ENDROOT
BRANCH  10  13
HETATM   13  C   UNL     1     -44.849  58.555 -56.214  1.00  0.00     0.273 C 
BRANCH  13  14
HETATM   14  N   UNL     1     -43.875  57.890 -57.168  1.00  0.00    -0.067 N 
HETATM   15  H   UNL     1     -43.509  57.056 -56.689  1.00  0.00     0.280 HD
HETATM   16  C   UNL     1     -44.541  57.422 -58.441  1.00  0.00     0.238 C 
HETATM   17  C   UNL     1     -43.512  56.792 -59.365  1.00  0.00     0.071 C 
HETATM   18  C   UNL     1     -42.391  57.784 -59.736  1.00  0.00     0.089 C 
HETATM   19  C   UNL     1     -41.722  58.183 -58.405  1.00  0.00     0.071 C 
HETATM   20  C   UNL     1     -42.701  58.812 -57.427  1.00  0.00     0.238 C 
BRANCH  18  21
HETATM   21  O   UNL     1     -41.419  57.037 -60.467  1.00  0.00    -0.385 OA
HETATM   22  H   UNL     1     -40.555  57.492 -60.446  1.00  0.00     0.211 HD
ENDBRANCH  18  21
BRANCH  18  23
HETATM   23  C   UNL     1     -42.866  58.940 -60.610  1.00  0.00    -0.006 A 
HETATM   24  C   UNL     1     -44.216  59.227 -60.815  1.00  0.00     0.126 A 
HETATM   25  N   UNL     1     -44.682  60.191 -61.636  1.00  0.00    -0.272 NA
HETATM   26  C   UNL     1     -43.776  60.984 -62.239  1.00  0.00     0.116 A 
HETATM   27  C   UNL     1     -42.415  60.841 -62.060  1.00  0.00     0.020 A 
HETATM   28  C   UNL     1     -41.961  59.814 -61.233  1.00  0.00     0.013 A 
ENDBRANCH  18  23
ENDBRANCH  13  14
ENDBRANCH  10  13
BRANCH   1  29
HETATM   29  C   UNL     1     -42.023  57.242 -51.164  1.00  0.00     0.274 C 
BRANCH  29  30
HETATM   30  C   UNL     1     -41.362  55.903 -51.352  1.00  0.00    -0.030 A 
HETATM   31  C   UNL     1     -41.006  55.139 -50.234  1.00  0.00     0.048 A 
HETATM   32  C   UNL     1     -40.531  53.836 -50.381  1.00  0.00     0.102 A 
HETATM   33  C   UNL     1     -40.369  53.272 -51.654  1.00  0.00     0.101 A 
HETATM   34  C   UNL     1     -40.659  54.057 -52.774  1.00  0.00     0.040 A 
HETATM   35  C   UNL     1     -41.156  55.360 -52.627  1.00  0.00     0.012 A 
BRANCH  32  36
HETATM   36  O   UNL     1     -40.370  53.118 -49.223  1.00  0.00    -0.353 OA
HETATM   37  C   UNL     1     -40.313  53.982 -48.083  1.00  0.00     0.210 C 
ENDBRANCH  32  36
BRANCH  33  38
HETATM   38  O   UNL     1     -39.983  51.961 -51.702  1.00  0.00    -0.353 OA
HETATM   39  C   UNL     1     -39.714  51.407 -52.986  1.00  0.00     0.210 C 
ENDBRANCH  33  38
ENDBRANCH  29  30
ENDBRANCH   1  29
TORSDOF 8
ENDMDL
