MODEL 1
REMARK VINA RESULT:      -8.0      0.000      0.000
REMARK  4 active torsions:
REMARK  status: ('A' for Active; 'I' for Inactive)
REMARK    1  A    between atoms: N_6  and  N_7 
REMARK       I    between atoms: N_7  and  C_8 
REMARK    2  A    between atoms: C_8  and  C_9 
REMARK    3  A    between atoms: C_10  and  O_11 
REMARK    4  A    between atoms: C_14  and  N_15 
ROOT
HETATM    1  N   UNL     1     -40.896  54.323 -55.430  1.00  0.00    -0.242 N 
HETATM    2  C   UNL     1     -42.205  54.725 -55.645  1.00  0.00     0.274 C 
HETATM    3  O   UNL     1     -43.209  54.041 -55.466  1.00  0.00    -0.266 OA
HETATM    4  H   UNL     1     -40.127  54.962 -55.574  1.00  0.00     0.192 HD
ENDROOT
BRANCH   1   5
HETATM    5  N   UNL     1     -40.615  53.031 -55.125  1.00  0.00    -0.166 NA
HETATM    6  C   UNL     1     -40.396  52.708 -53.888  1.00  0.00     0.157 A 
HETATM    7  C   UNL     1     -39.887  51.304 -53.511  1.00  0.00     0.279 A 
HETATM    8  C   UNL     1     -40.538  53.441 -52.621  1.00  0.00     0.028 A 
HETATM    9  N   UNL     1     -39.713  51.336 -52.140  1.00  0.00    -0.316 N 
HETATM   10  O   UNL     1     -39.675  50.398 -54.288  1.00  0.00    -0.265 OA
HETATM   11  C   UNL     1     -39.260  50.219 -51.355  1.00  0.00     0.159 C 
HETATM   12  C   UNL     1     -40.099  52.575 -51.613  1.00  0.00     0.050 A 
HETATM   13  C   UNL     1     -40.105  52.957 -50.281  1.00  0.00     0.032 A 
HETATM   14  C   UNL     1     -40.579  54.234 -49.967  1.00  0.00     0.021 A 
HETATM   15  C   UNL     1     -41.050  55.086 -50.978  1.00  0.00     0.012 A 
HETATM   16  C   UNL     1     -41.048  54.693 -52.319  1.00  0.00     0.035 A 
HETATM   17 BR   UNL     1     -41.713  56.797 -50.517  1.00  0.00    -0.051 Br
ENDBRANCH   1   5
BRANCH   2  18
HETATM   18  C   UNL     1     -42.382  56.154 -56.015  1.00  0.00     0.068 A 
HETATM   19  C   UNL     1     -43.157  56.476 -57.135  1.00  0.00     0.081 A 
HETATM   20  C   UNL     1     -43.440  57.804 -57.433  1.00  0.00     0.039 A 
HETATM   21  C   UNL     1     -42.917  58.822 -56.632  1.00  0.00     0.026 A 
HETATM   22  C   UNL     1     -42.056  58.525 -55.572  1.00  0.00     0.006 A 
HETATM   23  C   UNL     1     -41.826  57.186 -55.242  1.00  0.00     0.043 A 
BRANCH  19  24
HETATM   24  O   UNL     1     -43.699  55.533 -57.966  1.00  0.00    -0.360 OA
HETATM   25  H   UNL     1     -43.713  55.904 -58.878  1.00  0.00     0.217 HD
ENDBRANCH  19  24
BRANCH  22  26
HETATM   26  N   UNL     1     -41.623  59.541 -54.710  1.00  0.00    -0.303 NA
HETATM   27  H   UNL     1     -41.076  59.202 -53.923  1.00  0.00     0.124 HD
HETATM   28  H   UNL     1     -42.358  60.173 -54.407  1.00  0.00     0.124 HD
ENDBRANCH  22  26
ENDBRANCH   2  18
TORSDOF 4
ENDMDL
MODEL 2
REMARK VINA RESULT:      -7.9      4.166      5.050
REMARK  4 active torsions:
REMARK  status: ('A' for Active; 'I' for Inactive)
REMARK    1  A    between atoms: N_6  and  N_7 
REMARK       I    between atoms: N_7  and  C_8 
REMARK    2  A    between atoms: C_8  and  C_9 
REMARK    3  A    between atoms: C_10  and  O_11 
REMARK    4  A    between atoms: C_14  and  N_15 
ROOT
HETATM    1  N   UNL     1     -42.690  57.274 -50.914  1.00  0.00    -0.242 N 
HETATM    2  C   UNL     1     -44.065  57.109 -50.960  1.00  0.00     0.274 C 
HETATM    3  O   UNL     1     -44.699  56.185 -50.458  1.00  0.00    -0.266 OA
HETATM    4  H   UNL     1     -42.250  58.083 -51.328  1.00  0.00     0.192 HD
ENDROOT
BRANCH   1   5
HETATM    5  N   UNL     1     -41.897  56.298 -50.403  1.00  0.00    -0.166 NA
HETATM    6  C   UNL     1     -41.431  55.383 -51.195  1.00  0.00     0.157 A 
HETATM    7  C   UNL     1     -40.690  54.152 -50.640  1.00  0.00     0.279 A 
HETATM    8  C   UNL     1     -41.438  55.226 -52.658  1.00  0.00     0.028 A 
HETATM    9  N   UNL     1     -40.394  53.377 -51.746  1.00  0.00    -0.316 N 
HETATM   10  O   UNL     1     -40.456  53.938 -49.470  1.00  0.00    -0.265 OA
HETATM   11  C   UNL     1     -39.682  52.128 -51.691  1.00  0.00     0.159 C 
HETATM   12  C   UNL     1     -40.819  53.999 -52.926  1.00  0.00     0.050 A 
HETATM   13  C   UNL     1     -40.656  53.544 -54.223  1.00  0.00     0.032 A 
HETATM   14  C   UNL     1     -41.116  54.352 -55.267  1.00  0.00     0.021 A 
HETATM   15  C   UNL     1     -41.706  55.597 -54.994  1.00  0.00     0.012 A 
HETATM   16  C   UNL     1     -41.861  56.055 -53.683  1.00  0.00     0.035 A 
HETATM   17 BR   UNL     1     -42.291  56.681 -56.429  1.00  0.00    -0.051 Br
ENDBRANCH   1   5
BRANCH   2  18
HETATM   18  C   UNL     1     -44.822  58.228 -51.580  1.00  0.00     0.068 A 
HETATM   19  C   UNL     1     -45.632  59.033 -50.770  1.00  0.00     0.081 A 
HETATM   20  C   UNL     1     -46.254  60.157 -51.299  1.00  0.00     0.039 A 
HETATM   21  C   UNL     1     -46.101  60.462 -52.654  1.00  0.00     0.026 A 
HETATM   22  C   UNL     1     -45.383  59.614 -53.501  1.00  0.00     0.006 A 
HETATM   23  C   UNL     1     -44.710  58.520 -52.949  1.00  0.00     0.043 A 
BRANCH  19  24
HETATM   24  O   UNL     1     -45.831  58.792 -49.437  1.00  0.00    -0.360 OA
HETATM   25  H   UNL     1     -45.783  59.654 -48.963  1.00  0.00     0.217 HD
ENDBRANCH  19  24
BRANCH  22  26
HETATM   26  N   UNL     1     -45.144  59.983 -54.831  1.00  0.00    -0.303 NA
HETATM   27  H   UNL     1     -45.991  60.081 -55.384  1.00  0.00     0.124 HD
HETATM   28  H   UNL     1     -44.453  59.411 -55.306  1.00  0.00     0.124 HD
ENDBRANCH  22  26
ENDBRANCH   2  18
TORSDOF 4
ENDMDL
MODEL 3
REMARK VINA RESULT:      -7.6      4.093      7.778
REMARK  4 active torsions:
REMARK  status: ('A' for Active; 'I' for Inactive)
REMARK    1  A    between atoms: N_6  and  N_7 
REMARK       I    between atoms: N_7  and  C_8 
REMARK    2  A    between atoms: C_8  and  C_9 
REMARK    3  A    between atoms: C_10  and  O_11 
REMARK    4  A    between atoms: C_14  and  N_15 
ROOT
HETATM    1  N   UNL     1     -43.625  55.514 -50.906  1.00  0.00    -0.242 N 
HETATM    2  C   UNL     1     -42.290  55.584 -50.543  1.00  0.00     0.274 C 
HETATM    3  O   UNL     1     -41.780  56.443 -49.829  1.00  0.00    -0.266 OA
HETATM    4  H   UNL     1     -43.969  54.752 -51.473  1.00  0.00     0.192 HD
ENDROOT
BRANCH   1   5
HETATM    5  N   UNL     1     -44.476  56.524 -50.595  1.00  0.00    -0.166 NA
HETATM    6  C   UNL     1     -44.738  57.426 -51.488  1.00  0.00     0.157 A 
HETATM    7  C   UNL     1     -45.541  58.691 -51.129  1.00  0.00     0.279 A 
HETATM    8  C   UNL     1     -44.423  57.540 -52.920  1.00  0.00     0.028 A 
HETATM    9  N   UNL     1     -45.577  59.441 -52.290  1.00  0.00    -0.316 N 
HETATM   10  O   UNL     1     -46.007  58.946 -50.040  1.00  0.00    -0.265 OA
HETATM   11  C   UNL     1     -46.245  60.709 -52.415  1.00  0.00     0.159 C 
HETATM   12  C   UNL     1     -44.935  58.773 -53.340  1.00  0.00     0.050 A 
HETATM   13  C   UNL     1     -44.810  59.195 -54.654  1.00  0.00     0.032 A 
HETATM   14  C   UNL     1     -44.168  58.345 -55.559  1.00  0.00     0.021 A 
HETATM   15  C   UNL     1     -43.687  57.094 -55.140  1.00  0.00     0.012 A 
HETATM   16  C   UNL     1     -43.821  56.671 -53.815  1.00  0.00     0.035 A 
HETATM   17 BR   UNL     1     -42.848  55.954 -56.395  1.00  0.00    -0.051 Br
ENDBRANCH   1   5
BRANCH   2  18
HETATM   18  C   UNL     1     -41.448  54.438 -50.976  1.00  0.00     0.068 A 
HETATM   19  C   UNL     1     -40.941  53.561 -50.009  1.00  0.00     0.081 A 
HETATM   20  C   UNL     1     -40.255  52.415 -50.393  1.00  0.00     0.039 A 
HETATM   21  C   UNL     1     -40.038  52.158 -51.748  1.00  0.00     0.026 A 
HETATM   22  C   UNL     1     -40.444  53.073 -52.724  1.00  0.00     0.006 A 
HETATM   23  C   UNL     1     -41.187  54.191 -52.333  1.00  0.00     0.043 A 
BRANCH  19  24
HETATM   24  O   UNL     1     -41.112  53.752 -48.664  1.00  0.00    -0.360 OA
HETATM   25  H   UNL     1     -40.582  54.539 -48.399  1.00  0.00     0.217 HD
ENDBRANCH  19  24
BRANCH  22  26
HETATM   26  N   UNL     1     -40.319  52.756 -54.082  1.00  0.00    -0.303 NA
HETATM   27  H   UNL     1     -40.297  51.757 -54.267  1.00  0.00     0.124 HD
HETATM   28  H   UNL     1     -39.562  53.239 -54.556  1.00  0.00     0.124 HD
ENDBRANCH  22  26
ENDBRANCH   2  18
TORSDOF 4
ENDMDL
MODEL 4
REMARK VINA RESULT:      -7.6      1.772      6.618
REMARK  4 active torsions:
REMARK  status: ('A' for Active; 'I' for Inactive)
REMARK    1  A    between atoms: N_6  and  N_7 
REMARK       I    between atoms: N_7  and  C_8 
REMARK    2  A    between atoms: C_8  and  C_9 
REMARK    3  A    between atoms: C_10  and  O_11 
REMARK    4  A    between atoms: C_14  and  N_15 
ROOT
HETATM    1  N   UNL     1     -42.225  54.271 -54.722  1.00  0.00    -0.242 N 
HETATM    2  C   UNL     1     -40.959  53.804 -54.406  1.00  0.00     0.274 C 
HETATM    3  O   UNL     1     -39.971  53.847 -55.134  1.00  0.00    -0.266 OA
HETATM    4  H   UNL     1     -42.977  54.225 -54.050  1.00  0.00     0.192 HD
ENDROOT
BRANCH   1   5
HETATM    5  N   UNL     1     -42.505  54.703 -55.977  1.00  0.00    -0.166 NA
HETATM    6  C   UNL     1     -42.556  55.978 -56.209  1.00  0.00     0.157 A 
HETATM    7  C   UNL     1     -43.055  56.521 -57.562  1.00  0.00     0.279 A 
HETATM    8  C   UNL     1     -42.208  57.158 -55.403  1.00  0.00     0.028 A 
HETATM    9  N   UNL     1     -43.029  57.897 -57.433  1.00  0.00    -0.316 N 
HETATM   10  O   UNL     1     -43.408  55.848 -58.505  1.00  0.00    -0.265 OA
HETATM   11  C   UNL     1     -43.405  58.815 -58.475  1.00  0.00     0.159 C 
HETATM   12  C   UNL     1     -42.529  58.277 -56.181  1.00  0.00     0.050 A 
HETATM   13  C   UNL     1     -42.318  59.563 -55.713  1.00  0.00     0.032 A 
HETATM   14  C   UNL     1     -41.760  59.717 -54.441  1.00  0.00     0.021 A 
HETATM   15  C   UNL     1     -41.408  58.592 -53.679  1.00  0.00     0.012 A 
HETATM   16  C   UNL     1     -41.616  57.296 -54.158  1.00  0.00     0.035 A 
HETATM   17 BR   UNL     1     -40.627  58.834 -51.973  1.00  0.00    -0.051 Br
ENDBRANCH   1   5
BRANCH   2  18
HETATM   18  C   UNL     1     -40.786  53.318 -53.012  1.00  0.00     0.068 A 
HETATM   19  C   UNL     1     -39.993  52.188 -52.778  1.00  0.00     0.081 A 
HETATM   20  C   UNL     1     -39.715  51.784 -51.477  1.00  0.00     0.039 A 
HETATM   21  C   UNL     1     -40.261  52.487 -50.401  1.00  0.00     0.026 A 
HETATM   22  C   UNL     1     -41.139  53.553 -50.614  1.00  0.00     0.006 A 
HETATM   23  C   UNL     1     -41.364  53.991 -51.924  1.00  0.00     0.043 A 
BRANCH  19  24
HETATM   24  O   UNL     1     -39.429  51.449 -53.783  1.00  0.00    -0.360 OA
HETATM   25  H   UNL     1     -39.592  51.919 -54.633  1.00  0.00     0.217 HD
ENDBRANCH  19  24
BRANCH  22  26
HETATM   26  N   UNL     1     -41.595  54.318 -49.534  1.00  0.00    -0.303 NA
HETATM   27  H   UNL     1     -42.527  54.063 -49.220  1.00  0.00     0.124 HD
HETATM   28  H   UNL     1     -41.507  55.321 -49.665  1.00  0.00     0.124 HD
ENDBRANCH  22  26
ENDBRANCH   2  18
TORSDOF 4
ENDMDL
MODEL 5
REMARK VINA RESULT:      -7.5      4.020      4.915
REMARK  4 active torsions:
REMARK  status: ('A' for Active; 'I' for Inactive)
REMARK    1  A    between atoms: N_6  and  N_7 
REMARK       I    between atoms: N_7  and  C_8 
REMARK    2  A    between atoms: C_8  and  C_9 
REMARK    3  A    between atoms: C_10  and  O_11 
REMARK    4  A    between atoms: C_14  and  N_15 
ROOT
HETATM    1  N   UNL     1     -41.805  57.342 -50.535  1.00  0.00    -0.242 N 
HETATM    2  C   UNL     1     -41.111  58.487 -50.892  1.00  0.00     0.274 C 
HETATM    3  O   UNL     1     -39.891  58.629 -50.868  1.00  0.00    -0.266 OA
HETATM    4  H   UNL     1     -42.810  57.299 -50.616  1.00  0.00     0.192 HD
ENDROOT
BRANCH   1   5
HETATM    5  N   UNL     1     -41.156  56.292 -49.970  1.00  0.00    -0.166 NA
HETATM    6  C   UNL     1     -40.976  55.213 -50.666  1.00  0.00     0.157 A 
HETATM    7  C   UNL     1     -40.420  53.931 -50.016  1.00  0.00     0.279 A 
HETATM    8  C   UNL     1     -41.195  54.885 -52.083  1.00  0.00     0.028 A 
HETATM    9  N   UNL     1     -40.418  52.984 -51.023  1.00  0.00    -0.316 N 
HETATM   10  O   UNL     1     -40.088  53.815 -48.856  1.00  0.00    -0.265 OA
HETATM   11  C   UNL     1     -39.958  51.631 -50.861  1.00  0.00     0.159 C 
HETATM   12  C   UNL     1     -40.860  53.535 -52.233  1.00  0.00     0.050 A 
HETATM   13  C   UNL     1     -40.950  52.902 -53.462  1.00  0.00     0.032 A 
HETATM   14  C   UNL     1     -41.374  53.657 -54.559  1.00  0.00     0.021 A 
HETATM   15  C   UNL     1     -41.676  55.020 -54.411  1.00  0.00     0.012 A 
HETATM   16  C   UNL     1     -41.576  55.655 -53.170  1.00  0.00     0.035 A 
HETATM   17 BR   UNL     1     -42.217  56.021 -55.922  1.00  0.00    -0.051 Br
ENDBRANCH   1   5
BRANCH   2  18
HETATM   18  C   UNL     1     -41.936  59.583 -51.462  1.00  0.00     0.068 A 
HETATM   19  C   UNL     1     -41.737  59.964 -52.795  1.00  0.00     0.081 A 
HETATM   20  C   UNL     1     -42.575  60.900 -53.389  1.00  0.00     0.039 A 
HETATM   21  C   UNL     1     -43.596  61.491 -52.641  1.00  0.00     0.026 A 
HETATM   22  C   UNL     1     -43.745  61.203 -51.282  1.00  0.00     0.006 A 
HETATM   23  C   UNL     1     -42.938  60.215 -50.708  1.00  0.00     0.043 A 
BRANCH  19  24
HETATM   24  O   UNL     1     -40.755  59.431 -53.586  1.00  0.00    -0.360 OA
HETATM   25  H   UNL     1     -40.636  58.488 -53.327  1.00  0.00     0.217 HD
ENDBRANCH  19  24
BRANCH  22  26
HETATM   26  N   UNL     1     -44.836  61.716 -50.568  1.00  0.00    -0.303 NA
HETATM   27  H   UNL     1     -45.706  61.706 -51.092  1.00  0.00     0.124 HD
HETATM   28  H   UNL     1     -44.667  62.623 -50.143  1.00  0.00     0.124 HD
ENDBRANCH  22  26
ENDBRANCH   2  18
TORSDOF 4
ENDMDL
MODEL 6
REMARK VINA RESULT:      -7.3      4.321      7.793
REMARK  4 active torsions:
REMARK  status: ('A' for Active; 'I' for Inactive)
REMARK    1  A    between atoms: N_6  and  N_7 
REMARK       I    between atoms: N_7  and  C_8 
REMARK    2  A    between atoms: C_8  and  C_9 
REMARK    3  A    between atoms: C_10  and  O_11 
REMARK    4  A    between atoms: C_14  and  N_15 
ROOT
HETATM    1  N   UNL     1     -43.877  56.281 -51.668  1.00  0.00    -0.242 N 
HETATM    2  C   UNL     1     -43.558  55.026 -51.174  1.00  0.00     0.274 C 
HETATM    3  O   UNL     1     -44.031  54.504 -50.169  1.00  0.00    -0.266 OA
HETATM    4  H   UNL     1     -43.463  56.623 -52.523  1.00  0.00     0.192 HD
ENDROOT
BRANCH   1   5
HETATM    5  N   UNL     1     -44.673  57.119 -50.956  1.00  0.00    -0.166 NA
HETATM    6  C   UNL     1     -45.062  58.231 -51.496  1.00  0.00     0.157 A 
HETATM    7  C   UNL     1     -45.803  59.300 -50.670  1.00  0.00     0.279 A 
HETATM    8  C   UNL     1     -44.958  58.774 -52.860  1.00  0.00     0.028 A 
HETATM    9  N   UNL     1     -46.006  60.355 -51.540  1.00  0.00    -0.316 N 
HETATM   10  O   UNL     1     -46.104  59.204 -49.500  1.00  0.00    -0.265 OA
HETATM   11  C   UNL     1     -46.685  61.574 -51.189  1.00  0.00     0.159 C 
HETATM   12  C   UNL     1     -45.525  60.053 -52.820  1.00  0.00     0.050 A 
HETATM   13  C   UNL     1     -45.593  60.846 -53.954  1.00  0.00     0.032 A 
HETATM   14  C   UNL     1     -45.090  60.326 -55.150  1.00  0.00     0.021 A 
HETATM   15  C   UNL     1     -44.554  59.030 -55.192  1.00  0.00     0.012 A 
HETATM   16  C   UNL     1     -44.495  58.231 -54.047  1.00  0.00     0.035 A 
HETATM   17 BR   UNL     1     -43.909  58.344 -56.833  1.00  0.00    -0.051 Br
ENDBRANCH   1   5
BRANCH   2  18
HETATM   18  C   UNL     1     -42.645  54.218 -52.024  1.00  0.00     0.068 A 
HETATM   19  C   UNL     1     -42.885  54.143 -53.402  1.00  0.00     0.081 A 
HETATM   20  C   UNL     1     -41.980  53.496 -54.236  1.00  0.00     0.039 A 
HETATM   21  C   UNL     1     -40.848  52.886 -53.692  1.00  0.00     0.026 A 
HETATM   22  C   UNL     1     -40.645  52.859 -52.309  1.00  0.00     0.006 A 
HETATM   23  C   UNL     1     -41.526  53.564 -51.484  1.00  0.00     0.043 A 
BRANCH  19  24
HETATM   24  O   UNL     1     -43.974  54.714 -54.003  1.00  0.00    -0.360 OA
HETATM   25  H   UNL     1     -44.429  54.017 -54.531  1.00  0.00     0.217 HD
ENDBRANCH  19  24
BRANCH  22  26
HETATM   26  N   UNL     1     -39.456  52.341 -51.782  1.00  0.00    -0.303 NA
HETATM   27  H   UNL     1     -38.675  52.373 -52.431  1.00  0.00     0.124 HD
HETATM   28  H   UNL     1     -39.552  51.423 -51.359  1.00  0.00     0.124 HD
ENDBRANCH  22  26
ENDBRANCH   2  18
TORSDOF 4
ENDMDL
MODEL 7
REMARK VINA RESULT:      -7.1      3.128      7.221
REMARK  4 active torsions:
REMARK  status: ('A' for Active; 'I' for Inactive)
REMARK    1  A    between atoms: N_6  and  N_7 
REMARK       I    between atoms: N_7  and  C_8 
REMARK    2  A    between atoms: C_8  and  C_9 
REMARK    3  A    between atoms: C_10  and  O_11 
REMARK    4  A    between atoms: C_14  and  N_15 
ROOT
HETATM    1  N   UNL     1     -41.247  54.746 -51.661  1.00  0.00    -0.242 N 
HETATM    2  C   UNL     1     -40.224  53.932 -51.203  1.00  0.00     0.274 C 
HETATM    3  O   UNL     1     -39.499  54.157 -50.237  1.00  0.00    -0.266 OA
HETATM    4  H   UNL     1     -41.818  54.469 -52.446  1.00  0.00     0.192 HD
ENDROOT
BRANCH   1   5
HETATM    5  N   UNL     1     -41.435  55.980 -51.128  1.00  0.00    -0.166 NA
HETATM    6  C   UNL     1     -41.731  56.968 -51.914  1.00  0.00     0.157 A 
HETATM    7  C   UNL     1     -41.766  58.417 -51.391  1.00  0.00     0.279 A 
HETATM    8  C   UNL     1     -42.085  57.044 -53.340  1.00  0.00     0.028 A 
HETATM    9  N   UNL     1     -42.054  59.195 -52.496  1.00  0.00    -0.316 N 
HETATM   10  O   UNL     1     -41.557  58.759 -50.247  1.00  0.00    -0.265 OA
HETATM   11  C   UNL     1     -42.198  60.626 -52.463  1.00  0.00     0.159 C 
HETATM   12  C   UNL     1     -42.249  58.402 -53.634  1.00  0.00     0.050 A 
HETATM   13  C   UNL     1     -42.594  58.827 -54.907  1.00  0.00     0.032 A 
HETATM   14  C   UNL     1     -42.789  57.855 -55.893  1.00  0.00     0.021 A 
HETATM   15  C   UNL     1     -42.657  56.493 -55.584  1.00  0.00     0.012 A 
HETATM   16  C   UNL     1     -42.315  56.070 -54.297  1.00  0.00     0.035 A 
HETATM   17 BR   UNL     1     -42.956  55.201 -56.933  1.00  0.00    -0.051 Br
ENDBRANCH   1   5
BRANCH   2  18
HETATM   18  C   UNL     1     -40.092  52.622 -51.892  1.00  0.00     0.068 A 
HETATM   19  C   UNL     1     -40.083  52.586 -53.292  1.00  0.00     0.081 A 
HETATM   20  C   UNL     1     -39.839  51.392 -53.961  1.00  0.00     0.039 A 
HETATM   21  C   UNL     1     -39.640  50.217 -53.233  1.00  0.00     0.026 A 
HETATM   22  C   UNL     1     -39.749  50.212 -51.840  1.00  0.00     0.006 A 
HETATM   23  C   UNL     1     -39.933  51.427 -51.172  1.00  0.00     0.043 A 
BRANCH  19  24
HETATM   24  O   UNL     1     -40.274  53.697 -54.069  1.00  0.00    -0.360 OA
HETATM   25  H   UNL     1     -39.393  54.004 -54.382  1.00  0.00     0.217 HD
ENDBRANCH  19  24
BRANCH  22  26
HETATM   26  N   UNL     1     -39.442  49.054 -51.113  1.00  0.00    -0.303 NA
HETATM   27  H   UNL     1     -38.617  48.568 -51.453  1.00  0.00     0.124 HD
HETATM   28  H   UNL     1     -40.225  48.419 -50.989  1.00  0.00     0.124 HD
ENDBRANCH  22  26
ENDBRANCH   2  18
TORSDOF 4
ENDMDL
MODEL 8
REMARK VINA RESULT:      -7.1      1.953      6.834
REMARK  4 active torsions:
REMARK  status: ('A' for Active; 'I' for Inactive)
REMARK    1  A    between atoms: N_6  and  N_7 
REMARK       I    between atoms: N_7  and  C_8 
REMARK    2  A    between atoms: C_8  and  C_9 
REMARK    3  A    between atoms: C_10  and  O_11 
REMARK    4  A    between atoms: C_14  and  N_15 
ROOT
HETATM    1  N   UNL     1     -41.427  55.565 -55.498  1.00  0.00    -0.242 N 
HETATM    2  C   UNL     1     -41.990  54.381 -55.051  1.00  0.00     0.274 C 
HETATM    3  O   UNL     1     -43.040  53.884 -55.450  1.00  0.00    -0.266 OA
HETATM    4  H   UNL     1     -40.541  55.887 -55.136  1.00  0.00     0.192 HD
ENDROOT
BRANCH   1   5
HETATM    5  N   UNL     1     -42.106  56.369 -56.355  1.00  0.00    -0.166 NA
HETATM    6  C   UNL     1     -42.473  57.547 -55.957  1.00  0.00     0.157 A 
HETATM    7  C   UNL     1     -43.407  58.421 -56.817  1.00  0.00     0.279 A 
HETATM    8  C   UNL     1     -42.174  58.338 -54.754  1.00  0.00     0.028 A 
HETATM    9  N   UNL     1     -43.628  59.562 -56.068  1.00  0.00    -0.316 N 
HETATM   10  O   UNL     1     -43.849  58.123 -57.905  1.00  0.00    -0.265 OA
HETATM   11  C   UNL     1     -44.439  60.669 -56.500  1.00  0.00     0.159 C 
HETATM   12  C   UNL     1     -42.906  59.525 -54.869  1.00  0.00     0.050 A 
HETATM   13  C   UNL     1     -42.846  60.506 -53.892  1.00  0.00     0.032 A 
HETATM   14  C   UNL     1     -42.019  60.283 -52.788  1.00  0.00     0.021 A 
HETATM   15  C   UNL     1     -41.260  59.106 -52.694  1.00  0.00     0.012 A 
HETATM   16  C   UNL     1     -41.319  58.123 -53.685  1.00  0.00     0.035 A 
HETATM   17 BR   UNL     1     -40.127  58.848 -51.201  1.00  0.00    -0.051 Br
ENDBRANCH   1   5
BRANCH   2  18
HETATM   18  C   UNL     1     -41.168  53.607 -54.083  1.00  0.00     0.068 A 
HETATM   19  C   UNL     1     -41.060  54.063 -52.764  1.00  0.00     0.081 A 
HETATM   20  C   UNL     1     -40.401  53.298 -51.810  1.00  0.00     0.039 A 
HETATM   21  C   UNL     1     -39.810  52.087 -52.179  1.00  0.00     0.026 A 
HETATM   22  C   UNL     1     -39.817  51.665 -53.511  1.00  0.00     0.006 A 
HETATM   23  C   UNL     1     -40.535  52.410 -54.452  1.00  0.00     0.043 A 
BRANCH  19  24
HETATM   24  O   UNL     1     -41.609  55.241 -52.333  1.00  0.00    -0.360 OA
HETATM   25  H   UNL     1     -41.738  55.177 -51.358  1.00  0.00     0.217 HD
ENDBRANCH  19  24
BRANCH  22  26
HETATM   26  N   UNL     1     -39.319  50.401 -53.852  1.00  0.00    -0.303 NA
HETATM   27  H   UNL     1     -38.528  50.434 -54.490  1.00  0.00     0.124 HD
HETATM   28  H   UNL     1     -40.026  49.745 -54.170  1.00  0.00     0.124 HD
ENDBRANCH  22  26
ENDBRANCH   2  18
TORSDOF 4
ENDMDL
MODEL 9
REMARK VINA RESULT:      -7.0     14.535     15.852
REMARK  4 active torsions:
REMARK  status: ('A' for Active; 'I' for Inactive)
REMARK    1  A    between atoms: N_6  and  N_7 
REMARK       I    between atoms: N_7  and  C_8 
REMARK    2  A    between atoms: C_8  and  C_9 
REMARK    3  A    between atoms: C_10  and  O_11 
REMARK    4  A    between atoms: C_14  and  N_15 
ROOT
HETATM    1  N   UNL     1     -36.726  40.851 -55.396  1.00  0.00    -0.242 N 
HETATM    2  C   UNL     1     -37.865  40.951 -56.179  1.00  0.00     0.274 C 
HETATM    3  O   UNL     1     -38.999  41.197 -55.776  1.00  0.00    -0.266 OA
HETATM    4  H   UNL     1     -35.823  40.676 -55.814  1.00  0.00     0.192 HD
ENDROOT
BRANCH   1   5
HETATM    5  N   UNL     1     -36.817  40.880 -54.043  1.00  0.00    -0.166 NA
HETATM    6  C   UNL     1     -35.804  40.491 -53.334  1.00  0.00     0.157 A 
HETATM    7  C   UNL     1     -35.920  40.323 -51.806  1.00  0.00     0.279 A 
HETATM    8  C   UNL     1     -34.417  40.138 -53.675  1.00  0.00     0.028 A 
HETATM    9  N   UNL     1     -34.687  39.848 -51.399  1.00  0.00    -0.316 N 
HETATM   10  O   UNL     1     -36.909  40.550 -51.145  1.00  0.00    -0.265 OA
HETATM   11  C   UNL     1     -34.341  39.562 -50.032  1.00  0.00     0.159 C 
HETATM   12  C   UNL     1     -33.803  39.746 -52.480  1.00  0.00     0.050 A 
HETATM   13  C   UNL     1     -32.476  39.350 -52.448  1.00  0.00     0.032 A 
HETATM   14  C   UNL     1     -31.757  39.367 -53.647  1.00  0.00     0.021 A 
HETATM   15  C   UNL     1     -32.367  39.794 -54.836  1.00  0.00     0.012 A 
HETATM   16  C   UNL     1     -33.704  40.199 -54.861  1.00  0.00     0.035 A 
HETATM   17 BR   UNL     1     -31.358  39.834 -56.436  1.00  0.00    -0.051 Br
ENDBRANCH   1   5
BRANCH   2  18
HETATM   18  C   UNL     1     -37.643  40.864 -57.646  1.00  0.00     0.068 A 
HETATM   19  C   UNL     1     -37.710  39.613 -58.272  1.00  0.00     0.081 A 
HETATM   20  C   UNL     1     -37.627  39.517 -59.656  1.00  0.00     0.039 A 
HETATM   21  C   UNL     1     -37.438  40.669 -60.422  1.00  0.00     0.026 A 
HETATM   22  C   UNL     1     -37.264  41.914 -59.810  1.00  0.00     0.006 A 
HETATM   23  C   UNL     1     -37.410  42.010 -58.422  1.00  0.00     0.043 A 
BRANCH  19  24
HETATM   24  O   UNL     1     -37.889  38.442 -57.585  1.00  0.00    -0.360 OA
HETATM   25  H   UNL     1     -38.791  38.105 -57.791  1.00  0.00     0.217 HD
ENDBRANCH  19  24
BRANCH  22  26
HETATM   26  N   UNL     1     -37.183  43.076 -60.587  1.00  0.00    -0.303 NA
HETATM   27  H   UNL     1     -36.593  43.797 -60.181  1.00  0.00     0.124 HD
HETATM   28  H   UNL     1     -38.083  43.449 -60.875  1.00  0.00     0.124 HD
ENDBRANCH  22  26
ENDBRANCH   2  18
TORSDOF 4
ENDMDL
MODEL 10
REMARK VINA RESULT:      -6.9      3.915      5.834
REMARK  4 active torsions:
REMARK  status: ('A' for Active; 'I' for Inactive)
REMARK    1  A    between atoms: N_6  and  N_7 
REMARK       I    between atoms: N_7  and  C_8 
REMARK    2  A    between atoms: C_8  and  C_9 
REMARK    3  A    between atoms: C_10  and  O_11 
REMARK    4  A    between atoms: C_14  and  N_15 
ROOT
HETATM    1  N   UNL     1     -42.596  58.539 -56.473  1.00  0.00    -0.242 N 
HETATM    2  C   UNL     1     -43.588  58.819 -57.400  1.00  0.00     0.274 C 
HETATM    3  O   UNL     1     -44.207  59.875 -57.498  1.00  0.00    -0.266 OA
HETATM    4  H   UNL     1     -42.113  57.652 -56.482  1.00  0.00     0.192 HD
ENDROOT
BRANCH   1   5
HETATM    5  N   UNL     1     -42.327  59.411 -55.469  1.00  0.00    -0.166 NA
HETATM    6  C   UNL     1     -42.045  58.950 -54.291  1.00  0.00     0.157 A 
HETATM    7  C   UNL     1     -41.921  59.891 -53.077  1.00  0.00     0.279 A 
HETATM    8  C   UNL     1     -41.781  57.596 -53.781  1.00  0.00     0.028 A 
HETATM    9  N   UNL     1     -41.675  59.062 -51.998  1.00  0.00    -0.316 N 
HETATM   10  O   UNL     1     -42.042  61.097 -53.104  1.00  0.00    -0.265 OA
HETATM   11  C   UNL     1     -41.474  59.525 -50.651  1.00  0.00     0.159 C 
HETATM   12  C   UNL     1     -41.584  57.724 -52.402  1.00  0.00     0.050 A 
HETATM   13  C   UNL     1     -41.306  56.623 -51.608  1.00  0.00     0.032 A 
HETATM   14  C   UNL     1     -41.212  55.374 -52.228  1.00  0.00     0.021 A 
HETATM   15  C   UNL     1     -41.377  55.256 -53.617  1.00  0.00     0.012 A 
HETATM   16  C   UNL     1     -41.650  56.370 -54.414  1.00  0.00     0.035 A 
HETATM   17 BR   UNL     1     -41.214  53.555 -54.430  1.00  0.00    -0.051 Br
ENDBRANCH   1   5
BRANCH   2  18
HETATM   18  C   UNL     1     -43.819  57.769 -58.426  1.00  0.00     0.068 A 
HETATM   19  C   UNL     1     -42.717  57.178 -59.055  1.00  0.00     0.081 A 
HETATM   20  C   UNL     1     -42.897  56.111 -59.928  1.00  0.00     0.039 A 
HETATM   21  C   UNL     1     -44.187  55.653 -60.207  1.00  0.00     0.026 A 
HETATM   22  C   UNL     1     -45.306  56.296 -59.671  1.00  0.00     0.006 A 
HETATM   23  C   UNL     1     -45.112  57.328 -58.747  1.00  0.00     0.043 A 
BRANCH  19  24
HETATM   24  O   UNL     1     -41.426  57.577 -58.834  1.00  0.00    -0.360 OA
HETATM   25  H   UNL     1     -40.927  57.473 -59.677  1.00  0.00     0.217 HD
ENDBRANCH  19  24
BRANCH  22  26
HETATM   26  N   UNL     1     -46.586  55.765 -59.868  1.00  0.00    -0.303 NA
HETATM   27  H   UNL     1     -47.330  56.451 -59.774  1.00  0.00     0.124 HD
HETATM   28  H   UNL     1     -46.780  54.929 -59.326  1.00  0.00     0.124 HD
ENDBRANCH  22  26
ENDBRANCH   2  18
TORSDOF 4
ENDMDL
