MODEL 1
REMARK VINA RESULT:      -8.3      0.000      0.000
REMARK  4 active torsions:
REMARK  status: ('A' for Active; 'I' for Inactive)
REMARK    1  A    between atoms: C_9  and  C_10 
REMARK    2  A    between atoms: C_22  and  C_23 
REMARK    3  A    between atoms: C_23  and  C_24 
REMARK    4  A    between atoms: C_24  and  O_25 
ROOT
HETATM    1  C   UNL     1     -44.373  54.053 -59.379  1.00  0.00     0.069 C 
HETATM    2  C   UNL     1     -44.074  55.320 -58.614  1.00  0.00     0.018 A 
HETATM    3  N   UNL     1     -43.403  55.143 -57.412  1.00  0.00    -0.343 N 
HETATM    4  C   UNL     1     -42.974  56.188 -56.668  1.00  0.00     0.146 A 
HETATM    5  N   UNL     1     -43.301  57.460 -57.077  1.00  0.00    -0.179 N 
HETATM    6  N   UNL     1     -42.817  58.412 -56.237  1.00  0.00    -0.167 NA
HETATM    7  C   UNL     1     -42.160  57.718 -55.297  1.00  0.00     0.066 A 
HETATM    8  C   UNL     1     -41.483  58.441 -54.190  1.00  0.00     0.073 C 
HETATM    9  C   UNL     1     -42.219  56.312 -55.524  1.00  0.00     0.047 A 
HETATM   10  C   UNL     1     -44.029  57.756 -58.240  1.00  0.00     0.278 A 
HETATM   11  O   UNL     1     -44.302  58.909 -58.554  1.00  0.00    -0.265 OA
HETATM   12  C   UNL     1     -44.402  56.554 -59.069  1.00  0.00     0.036 A 
HETATM   13  H   UNL     1     -43.175  54.184 -57.145  1.00  0.00     0.167 HD
ENDROOT
BRANCH   9  14
HETATM   14  C   UNL     1     -41.694  55.198 -54.746  1.00  0.00    -0.009 A 
HETATM   15  C   UNL     1     -42.129  54.911 -53.418  1.00  0.00    -0.015 A 
HETATM   16  C   UNL     1     -41.501  53.847 -52.720  1.00  0.00    -0.025 A 
HETATM   17  C   UNL     1     -43.155  55.614 -52.736  1.00  0.00     0.013 A 
HETATM   18  C   UNL     1     -41.870  53.555 -51.396  1.00  0.00     0.012 A 
HETATM   19  C   UNL     1     -40.509  53.081 -53.352  1.00  0.00     0.012 A 
HETATM   20  C   UNL     1     -42.860  54.289 -50.746  1.00  0.00     0.001 A 
HETATM   21  C   UNL     1     -43.509  55.314 -51.419  1.00  0.00     0.001 A 
HETATM   22  C   UNL     1     -40.116  53.354 -54.659  1.00  0.00     0.002 A 
HETATM   23  C   UNL     1     -40.700  54.410 -55.350  1.00  0.00     0.013 A 
ENDBRANCH   9  14
BRANCH  12  24
HETATM   24  C   UNL     1     -45.151  56.873 -60.341  1.00  0.00     0.072 C 
BRANCH  24  25
HETATM   25  C   UNL     1     -46.645  57.107 -60.113  1.00  0.00     0.169 C 
BRANCH  25  26
HETATM   26  O   UNL     1     -47.339  55.867 -60.008  1.00  0.00    -0.401 OA
HETATM   27  H   UNL     1     -47.381  55.486 -60.902  1.00  0.00     0.209 HD
ENDBRANCH  25  26
ENDBRANCH  24  25
ENDBRANCH  12  24
TORSDOF 4
ENDMDL
MODEL 2
REMARK VINA RESULT:      -8.2      1.841      3.034
REMARK  4 active torsions:
REMARK  status: ('A' for Active; 'I' for Inactive)
REMARK    1  A    between atoms: C_9  and  C_10 
REMARK    2  A    between atoms: C_22  and  C_23 
REMARK    3  A    between atoms: C_23  and  C_24 
REMARK    4  A    between atoms: C_24  and  O_25 
ROOT
HETATM    1  C   UNL     1     -43.675  55.478 -58.552  1.00  0.00     0.069 C 
HETATM    2  C   UNL     1     -43.188  56.657 -57.744  1.00  0.00     0.018 A 
HETATM    3  N   UNL     1     -42.952  56.400 -56.401  1.00  0.00    -0.343 N 
HETATM    4  C   UNL     1     -42.415  57.326 -55.575  1.00  0.00     0.146 A 
HETATM    5  N   UNL     1     -42.187  58.590 -56.071  1.00  0.00    -0.179 N 
HETATM    6  N   UNL     1     -41.656  59.421 -55.136  1.00  0.00    -0.167 NA
HETATM    7  C   UNL     1     -41.534  58.654 -54.044  1.00  0.00     0.066 A 
HETATM    8  C   UNL     1     -40.972  59.235 -52.798  1.00  0.00     0.073 C 
HETATM    9  C   UNL     1     -41.989  57.322 -54.266  1.00  0.00     0.047 A 
HETATM   10  C   UNL     1     -42.446  58.981 -57.393  1.00  0.00     0.278 A 
HETATM   11  O   UNL     1     -42.233  60.124 -57.781  1.00  0.00    -0.265 OA
HETATM   12  C   UNL     1     -42.961  57.880 -58.284  1.00  0.00     0.036 A 
HETATM   13  H   UNL     1     -43.130  55.449 -56.073  1.00  0.00     0.167 HD
ENDROOT
BRANCH   9  14
HETATM   14  C   UNL     1     -42.082  56.182 -53.363  1.00  0.00    -0.009 A 
HETATM   15  C   UNL     1     -41.400  54.952 -53.602  1.00  0.00    -0.015 A 
HETATM   16  C   UNL     1     -41.615  53.878 -52.700  1.00  0.00    -0.025 A 
HETATM   17  C   UNL     1     -40.511  54.719 -54.682  1.00  0.00     0.013 A 
HETATM   18  C   UNL     1     -40.996  52.636 -52.918  1.00  0.00     0.012 A 
HETATM   19  C   UNL     1     -42.448  54.054 -51.585  1.00  0.00     0.012 A 
HETATM   20  C   UNL     1     -40.153  52.433 -54.010  1.00  0.00     0.001 A 
HETATM   21  C   UNL     1     -39.904  53.479 -54.889  1.00  0.00     0.001 A 
HETATM   22  C   UNL     1     -43.083  55.270 -51.348  1.00  0.00     0.002 A 
HETATM   23  C   UNL     1     -42.906  56.325 -52.236  1.00  0.00     0.013 A 
ENDBRANCH   9  14
BRANCH  12  24
HETATM   24  C   UNL     1     -43.203  58.289 -59.717  1.00  0.00     0.072 C 
BRANCH  24  25
HETATM   25  C   UNL     1     -41.929  58.288 -60.563  1.00  0.00     0.169 C 
BRANCH  25  26
HETATM   26  O   UNL     1     -41.260  57.035 -60.465  1.00  0.00    -0.401 OA
HETATM   27  H   UNL     1     -41.911  56.345 -60.680  1.00  0.00     0.209 HD
ENDBRANCH  25  26
ENDBRANCH  24  25
ENDBRANCH  12  24
TORSDOF 4
ENDMDL
MODEL 3
REMARK VINA RESULT:      -7.8      5.184      7.321
REMARK  4 active torsions:
REMARK  status: ('A' for Active; 'I' for Inactive)
REMARK    1  A    between atoms: C_9  and  C_10 
REMARK    2  A    between atoms: C_22  and  C_23 
REMARK    3  A    between atoms: C_23  and  C_24 
REMARK    4  A    between atoms: C_24  and  O_25 
ROOT
HETATM    1  C   UNL     1     -40.973  53.530 -55.545  1.00  0.00     0.069 C 
HETATM    2  C   UNL     1     -40.636  53.378 -54.081  1.00  0.00     0.018 A 
HETATM    3  N   UNL     1     -41.131  54.375 -53.251  1.00  0.00    -0.343 N 
HETATM    4  C   UNL     1     -41.002  54.321 -51.906  1.00  0.00     0.146 A 
HETATM    5  N   UNL     1     -40.274  53.289 -51.360  1.00  0.00    -0.179 N 
HETATM    6  N   UNL     1     -40.216  53.360 -50.004  1.00  0.00    -0.167 NA
HETATM    7  C   UNL     1     -40.939  54.447 -49.700  1.00  0.00     0.066 A 
HETATM    8  C   UNL     1     -41.105  54.845 -48.279  1.00  0.00     0.073 C 
HETATM    9  C   UNL     1     -41.465  55.087 -50.860  1.00  0.00     0.047 A 
HETATM   10  C   UNL     1     -39.675  52.261 -52.104  1.00  0.00     0.278 A 
HETATM   11  O   UNL     1     -39.027  51.369 -51.568  1.00  0.00    -0.265 OA
HETATM   12  C   UNL     1     -39.929  52.331 -53.589  1.00  0.00     0.036 A 
HETATM   13  H   UNL     1     -41.670  55.121 -53.694  1.00  0.00     0.167 HD
ENDROOT
BRANCH   9  14
HETATM   14  C   UNL     1     -42.256  56.302 -51.004  1.00  0.00    -0.009 A 
HETATM   15  C   UNL     1     -41.694  57.607 -50.879  1.00  0.00    -0.015 A 
HETATM   16  C   UNL     1     -42.565  58.725 -50.962  1.00  0.00    -0.025 A 
HETATM   17  C   UNL     1     -40.316  57.876 -50.680  1.00  0.00     0.013 A 
HETATM   18  C   UNL     1     -42.061  60.027 -50.806  1.00  0.00     0.012 A 
HETATM   19  C   UNL     1     -43.933  58.532 -51.204  1.00  0.00     0.012 A 
HETATM   20  C   UNL     1     -40.705  60.252 -50.577  1.00  0.00     0.001 A 
HETATM   21  C   UNL     1     -39.830  59.176 -50.522  1.00  0.00     0.001 A 
HETATM   22  C   UNL     1     -44.463  57.253 -51.354  1.00  0.00     0.002 A 
HETATM   23  C   UNL     1     -43.630  56.145 -51.247  1.00  0.00     0.013 A 
ENDBRANCH   9  14
BRANCH  12  24
HETATM   24  C   UNL     1     -39.319  51.204 -54.387  1.00  0.00     0.072 C 
BRANCH  24  25
HETATM   25  C   UNL     1     -40.095  49.893 -54.261  1.00  0.00     0.169 C 
BRANCH  25  26
HETATM   26  O   UNL     1     -39.484  49.035 -53.302  1.00  0.00    -0.401 OA
HETATM   27  H   UNL     1     -40.136  48.884 -52.596  1.00  0.00     0.209 HD
ENDBRANCH  25  26
ENDBRANCH  24  25
ENDBRANCH  12  24
TORSDOF 4
ENDMDL
MODEL 4
REMARK VINA RESULT:      -7.8      4.251      7.330
REMARK  4 active torsions:
REMARK  status: ('A' for Active; 'I' for Inactive)
REMARK    1  A    between atoms: C_9  and  C_10 
REMARK    2  A    between atoms: C_22  and  C_23 
REMARK    3  A    between atoms: C_23  and  C_24 
REMARK    4  A    between atoms: C_24  and  O_25 
ROOT
HETATM    1  C   UNL     1     -40.402  53.052 -49.391  1.00  0.00     0.069 C 
HETATM    2  C   UNL     1     -40.544  53.204 -50.887  1.00  0.00     0.018 A 
HETATM    3  N   UNL     1     -41.270  54.310 -51.306  1.00  0.00    -0.343 N 
HETATM    4  C   UNL     1     -41.393  54.636 -52.612  1.00  0.00     0.146 A 
HETATM    5  N   UNL     1     -40.857  53.785 -53.552  1.00  0.00    -0.179 N 
HETATM    6  N   UNL     1     -41.059  54.227 -54.821  1.00  0.00    -0.167 NA
HETATM    7  C   UNL     1     -41.718  55.384 -54.667  1.00  0.00     0.066 A 
HETATM    8  C   UNL     1     -42.112  56.170 -55.863  1.00  0.00     0.073 C 
HETATM    9  C   UNL     1     -41.947  55.695 -53.295  1.00  0.00     0.047 A 
HETATM   10  C   UNL     1     -40.158  52.608 -53.248  1.00  0.00     0.278 A 
HETATM   11  O   UNL     1     -39.708  51.879 -54.125  1.00  0.00    -0.265 OA
HETATM   12  C   UNL     1     -39.980  52.347 -51.774  1.00  0.00     0.036 A 
HETATM   13  H   UNL     1     -41.647  54.919 -50.578  1.00  0.00     0.167 HD
ENDROOT
BRANCH   9  14
HETATM   14  C   UNL     1     -42.650  56.810 -52.674  1.00  0.00    -0.009 A 
HETATM   15  C   UNL     1     -41.975  57.853 -51.973  1.00  0.00    -0.015 A 
HETATM   16  C   UNL     1     -42.757  58.854 -51.341  1.00  0.00    -0.025 A 
HETATM   17  C   UNL     1     -40.565  57.968 -51.861  1.00  0.00     0.013 A 
HETATM   18  C   UNL     1     -42.135  59.878 -50.606  1.00  0.00     0.012 A 
HETATM   19  C   UNL     1     -44.155  58.826 -51.451  1.00  0.00     0.012 A 
HETATM   20  C   UNL     1     -40.748  59.941 -50.490  1.00  0.00     0.001 A 
HETATM   21  C   UNL     1     -39.961  58.989 -51.124  1.00  0.00     0.001 A 
HETATM   22  C   UNL     1     -44.799  57.819 -52.164  1.00  0.00     0.002 A 
HETATM   23  C   UNL     1     -44.051  56.813 -52.766  1.00  0.00     0.013 A 
ENDBRANCH   9  14
BRANCH  12  24
HETATM   24  C   UNL     1     -39.194  51.100 -51.444  1.00  0.00     0.072 C 
BRANCH  24  25
HETATM   25  C   UNL     1     -40.004  49.816 -51.629  1.00  0.00     0.169 C 
BRANCH  25  26
HETATM   26  O   UNL     1     -39.462  49.026 -52.683  1.00  0.00    -0.401 OA
HETATM   27  H   UNL     1     -40.048  49.133 -53.452  1.00  0.00     0.209 HD
ENDBRANCH  25  26
ENDBRANCH  24  25
ENDBRANCH  12  24
TORSDOF 4
ENDMDL
MODEL 5
REMARK VINA RESULT:      -7.6      3.296      4.562
REMARK  4 active torsions:
REMARK  status: ('A' for Active; 'I' for Inactive)
REMARK    1  A    between atoms: C_9  and  C_10 
REMARK    2  A    between atoms: C_22  and  C_23 
REMARK    3  A    between atoms: C_23  and  C_24 
REMARK    4  A    between atoms: C_24  and  O_25 
ROOT
HETATM    1  C   UNL     1     -45.490  57.804 -55.447  1.00  0.00     0.069 C 
HETATM    2  C   UNL     1     -44.433  58.533 -54.652  1.00  0.00     0.018 A 
HETATM    3  N   UNL     1     -43.669  57.737 -53.810  1.00  0.00    -0.343 N 
HETATM    4  C   UNL     1     -42.618  58.228 -53.116  1.00  0.00     0.146 A 
HETATM    5  N   UNL     1     -42.365  59.579 -53.180  1.00  0.00    -0.179 N 
HETATM    6  N   UNL     1     -41.290  59.939 -52.430  1.00  0.00    -0.167 NA
HETATM    7  C   UNL     1     -40.854  58.785 -51.905  1.00  0.00     0.066 A 
HETATM    8  C   UNL     1     -39.666  58.787 -51.014  1.00  0.00     0.073 C 
HETATM    9  C   UNL     1     -41.649  57.674 -52.310  1.00  0.00     0.047 A 
HETATM   10  C   UNL     1     -43.109  60.489 -53.947  1.00  0.00     0.278 A 
HETATM   11  O   UNL     1     -42.847  61.687 -53.960  1.00  0.00    -0.265 OA
HETATM   12  C   UNL     1     -44.212  59.866 -54.764  1.00  0.00     0.036 A 
HETATM   13  H   UNL     1     -43.884  56.739 -53.794  1.00  0.00     0.167 HD
ENDROOT
BRANCH   9  14
HETATM   14  C   UNL     1     -41.569  56.263 -51.953  1.00  0.00    -0.009 A 
HETATM   15  C   UNL     1     -41.094  55.265 -52.855  1.00  0.00    -0.015 A 
HETATM   16  C   UNL     1     -41.126  53.910 -52.436  1.00  0.00    -0.025 A 
HETATM   17  C   UNL     1     -40.584  55.528 -54.152  1.00  0.00     0.013 A 
HETATM   18  C   UNL     1     -40.705  52.890 -53.306  1.00  0.00     0.012 A 
HETATM   19  C   UNL     1     -41.576  53.584 -51.147  1.00  0.00     0.012 A 
HETATM   20  C   UNL     1     -40.241  53.183 -54.587  1.00  0.00     0.001 A 
HETATM   21  C   UNL     1     -40.173  54.504 -55.008  1.00  0.00     0.001 A 
HETATM   22  C   UNL     1     -42.007  54.572 -50.267  1.00  0.00     0.002 A 
HETATM   23  C   UNL     1     -42.011  55.903 -50.670  1.00  0.00     0.013 A 
ENDBRANCH   9  14
BRANCH  12  24
HETATM   24  C   UNL     1     -44.989  60.837 -55.620  1.00  0.00     0.072 C 
BRANCH  24  25
HETATM   25  C   UNL     1     -44.387  61.020 -57.014  1.00  0.00     0.169 C 
BRANCH  25  26
HETATM   26  O   UNL     1     -43.344  61.990 -56.990  1.00  0.00    -0.401 OA
HETATM   27  H   UNL     1     -43.384  62.431 -56.124  1.00  0.00     0.209 HD
ENDBRANCH  25  26
ENDBRANCH  24  25
ENDBRANCH  12  24
TORSDOF 4
ENDMDL
MODEL 6
REMARK VINA RESULT:      -7.5      3.312      6.921
REMARK  4 active torsions:
REMARK  status: ('A' for Active; 'I' for Inactive)
REMARK    1  A    between atoms: C_9  and  C_10 
REMARK    2  A    between atoms: C_22  and  C_23 
REMARK    3  A    between atoms: C_23  and  C_24 
REMARK    4  A    between atoms: C_24  and  O_25 
ROOT
HETATM    1  C   UNL     1     -40.168  53.219 -54.439  1.00  0.00     0.069 C 
HETATM    2  C   UNL     1     -41.263  54.207 -54.116  1.00  0.00     0.018 A 
HETATM    3  N   UNL     1     -41.672  55.007 -55.174  1.00  0.00    -0.343 N 
HETATM    4  C   UNL     1     -42.714  55.863 -55.067  1.00  0.00     0.146 A 
HETATM    5  N   UNL     1     -43.318  56.006 -53.840  1.00  0.00    -0.179 N 
HETATM    6  N   UNL     1     -44.341  56.901 -53.870  1.00  0.00    -0.167 NA
HETATM    7  C   UNL     1     -44.384  57.309 -55.147  1.00  0.00     0.066 A 
HETATM    8  C   UNL     1     -45.401  58.307 -55.565  1.00  0.00     0.073 C 
HETATM    9  C   UNL     1     -43.386  56.680 -55.947  1.00  0.00     0.047 A 
HETATM   10  C   UNL     1     -42.949  55.298 -52.686  1.00  0.00     0.278 A 
HETATM   11  O   UNL     1     -43.516  55.471 -51.613  1.00  0.00    -0.265 OA
HETATM   12  C   UNL     1     -41.841  54.297 -52.893  1.00  0.00     0.036 A 
HETATM   13  H   UNL     1     -41.202  54.867 -56.070  1.00  0.00     0.167 HD
ENDROOT
BRANCH   9  14
HETATM   14  C   UNL     1     -43.044  56.851 -57.353  1.00  0.00    -0.009 A 
HETATM   15  C   UNL     1     -42.542  58.078 -57.881  1.00  0.00    -0.015 A 
HETATM   16  C   UNL     1     -42.309  58.164 -59.278  1.00  0.00    -0.025 A 
HETATM   17  C   UNL     1     -42.251  59.230 -57.106  1.00  0.00     0.013 A 
HETATM   18  C   UNL     1     -41.853  59.364 -59.847  1.00  0.00     0.012 A 
HETATM   19  C   UNL     1     -42.533  57.047 -60.097  1.00  0.00     0.012 A 
HETATM   20  C   UNL     1     -41.609  60.488 -59.058  1.00  0.00     0.001 A 
HETATM   21  C   UNL     1     -41.801  60.418 -57.685  1.00  0.00     0.001 A 
HETATM   22  C   UNL     1     -42.994  55.846 -59.563  1.00  0.00     0.002 A 
HETATM   23  C   UNL     1     -43.255  55.752 -58.201  1.00  0.00     0.013 A 
ENDBRANCH   9  14
BRANCH  12  24
HETATM   24  C   UNL     1     -41.468  53.505 -51.663  1.00  0.00     0.072 C 
BRANCH  24  25
HETATM   25  C   UNL     1     -40.494  54.247 -50.746  1.00  0.00     0.169 C 
BRANCH  25  26
HETATM   26  O   UNL     1     -41.189  54.873 -49.672  1.00  0.00    -0.401 OA
HETATM   27  H   UNL     1     -40.576  55.511 -49.267  1.00  0.00     0.209 HD
ENDBRANCH  25  26
ENDBRANCH  24  25
ENDBRANCH  12  24
TORSDOF 4
ENDMDL
MODEL 7
REMARK VINA RESULT:      -7.3      5.340      6.912
REMARK  4 active torsions:
REMARK  status: ('A' for Active; 'I' for Inactive)
REMARK    1  A    between atoms: C_9  and  C_10 
REMARK    2  A    between atoms: C_22  and  C_23 
REMARK    3  A    between atoms: C_23  and  C_24 
REMARK    4  A    between atoms: C_24  and  O_25 
ROOT
HETATM    1  C   UNL     1     -46.280  58.724 -51.111  1.00  0.00     0.069 C 
HETATM    2  C   UNL     1     -44.898  59.271 -50.847  1.00  0.00     0.018 A 
HETATM    3  N   UNL     1     -43.851  58.408 -51.137  1.00  0.00    -0.343 N 
HETATM    4  C   UNL     1     -42.557  58.792 -51.053  1.00  0.00     0.146 A 
HETATM    5  N   UNL     1     -42.280  60.051 -50.573  1.00  0.00    -0.179 N 
HETATM    6  N   UNL     1     -40.945  60.304 -50.532  1.00  0.00    -0.167 NA
HETATM    7  C   UNL     1     -40.383  59.187 -51.014  1.00  0.00     0.066 A 
HETATM    8  C   UNL     1     -38.905  59.096 -51.123  1.00  0.00     0.073 C 
HETATM    9  C   UNL     1     -41.353  58.204 -51.366  1.00  0.00     0.047 A 
HETATM   10  C   UNL     1     -43.253  60.986 -50.190  1.00  0.00     0.278 A 
HETATM   11  O   UNL     1     -42.951  62.093 -49.759  1.00  0.00    -0.265 OA
HETATM   12  C   UNL     1     -44.676  60.528 -50.390  1.00  0.00     0.036 A 
HETATM   13  H   UNL     1     -44.098  57.484 -51.495  1.00  0.00     0.167 HD
ENDROOT
BRANCH   9  14
HETATM   14  C   UNL     1     -41.196  56.848 -51.878  1.00  0.00    -0.009 A 
HETATM   15  C   UNL     1     -41.051  55.714 -51.024  1.00  0.00    -0.015 A 
HETATM   16  C   UNL     1     -40.829  54.447 -51.623  1.00  0.00    -0.025 A 
HETATM   17  C   UNL     1     -41.116  55.757 -49.608  1.00  0.00     0.013 A 
HETATM   18  C   UNL     1     -40.642  53.309 -50.821  1.00  0.00     0.012 A 
HETATM   19  C   UNL     1     -40.799  54.326 -53.020  1.00  0.00     0.012 A 
HETATM   20  C   UNL     1     -40.679  53.394 -49.430  1.00  0.00     0.001 A 
HETATM   21  C   UNL     1     -40.925  54.618 -48.823  1.00  0.00     0.001 A 
HETATM   22  C   UNL     1     -40.972  55.437 -53.841  1.00  0.00     0.002 A 
HETATM   23  C   UNL     1     -41.162  56.692 -53.273  1.00  0.00     0.013 A 
ENDBRANCH   9  14
BRANCH  12  24
HETATM   24  C   UNL     1     -45.725  61.547 -50.015  1.00  0.00     0.072 C 
BRANCH  24  25
HETATM   25  C   UNL     1     -45.988  61.610 -48.510  1.00  0.00     0.169 C 
BRANCH  25  26
HETATM   26  O   UNL     1     -45.850  60.321 -47.920  1.00  0.00    -0.401 OA
HETATM   27  H   UNL     1     -45.533  60.455 -47.010  1.00  0.00     0.209 HD
ENDBRANCH  25  26
ENDBRANCH  24  25
ENDBRANCH  12  24
TORSDOF 4
ENDMDL
MODEL 8
REMARK VINA RESULT:      -7.2      4.150      7.204
REMARK  4 active torsions:
REMARK  status: ('A' for Active; 'I' for Inactive)
REMARK    1  A    between atoms: C_9  and  C_10 
REMARK    2  A    between atoms: C_22  and  C_23 
REMARK    3  A    between atoms: C_23  and  C_24 
REMARK    4  A    between atoms: C_24  and  O_25 
ROOT
HETATM    1  C   UNL     1     -39.451  53.968 -49.758  1.00  0.00     0.069 C 
HETATM    2  C   UNL     1     -40.018  53.790 -51.146  1.00  0.00     0.018 A 
HETATM    3  N   UNL     1     -40.638  54.909 -51.682  1.00  0.00    -0.343 N 
HETATM    4  C   UNL     1     -41.100  54.937 -52.953  1.00  0.00     0.146 A 
HETATM    5  N   UNL     1     -41.032  53.782 -53.698  1.00  0.00    -0.179 N 
HETATM    6  N   UNL     1     -41.536  53.945 -54.949  1.00  0.00    -0.167 NA
HETATM    7  C   UNL     1     -41.909  55.232 -54.988  1.00  0.00     0.066 A 
HETATM    8  C   UNL     1     -42.513  55.784 -56.227  1.00  0.00     0.073 C 
HETATM    9  C   UNL     1     -41.649  55.907 -53.760  1.00  0.00     0.047 A 
HETATM   10  C   UNL     1     -40.483  52.574 -53.240  1.00  0.00     0.278 A 
HETATM   11  O   UNL     1     -40.456  51.570 -53.942  1.00  0.00    -0.265 OA
HETATM   12  C   UNL     1     -39.908  52.635 -51.847  1.00  0.00     0.036 A 
HETATM   13  H   UNL     1     -40.665  55.748 -51.099  1.00  0.00     0.167 HD
ENDROOT
BRANCH   9  14
HETATM   14  C   UNL     1     -41.927  57.276 -53.346  1.00  0.00    -0.009 A 
HETATM   15  C   UNL     1     -43.011  57.616 -52.483  1.00  0.00    -0.015 A 
HETATM   16  C   UNL     1     -43.240  58.987 -52.200  1.00  0.00    -0.025 A 
HETATM   17  C   UNL     1     -43.884  56.676 -51.876  1.00  0.00     0.013 A 
HETATM   18  C   UNL     1     -44.320  59.370 -51.386  1.00  0.00     0.012 A 
HETATM   19  C   UNL     1     -42.387  59.966 -52.730  1.00  0.00     0.012 A 
HETATM   20  C   UNL     1     -45.178  58.421 -50.834  1.00  0.00     0.001 A 
HETATM   21  C   UNL     1     -44.955  57.071 -51.073  1.00  0.00     0.001 A 
HETATM   22  C   UNL     1     -41.315  59.617 -53.547  1.00  0.00     0.002 A 
HETATM   23  C   UNL     1     -41.091  58.281 -53.859  1.00  0.00     0.013 A 
ENDBRANCH   9  14
BRANCH  12  24
HETATM   24  C   UNL     1     -39.282  51.347 -51.367  1.00  0.00     0.072 C 
BRANCH  24  25
HETATM   25  C   UNL     1     -40.241  50.488 -50.541  1.00  0.00     0.169 C 
BRANCH  25  26
HETATM   26  O   UNL     1     -40.100  49.111 -50.877  1.00  0.00    -0.401 OA
HETATM   27  H   UNL     1     -40.121  49.050 -51.848  1.00  0.00     0.209 HD
ENDBRANCH  25  26
ENDBRANCH  24  25
ENDBRANCH  12  24
TORSDOF 4
ENDMDL
MODEL 9
REMARK VINA RESULT:      -7.2      2.050      2.644
REMARK  4 active torsions:
REMARK  status: ('A' for Active; 'I' for Inactive)
REMARK    1  A    between atoms: C_9  and  C_10 
REMARK    2  A    between atoms: C_22  and  C_23 
REMARK    3  A    between atoms: C_23  and  C_24 
REMARK    4  A    between atoms: C_24  and  O_25 
ROOT
HETATM    1  C   UNL     1     -44.269  57.148 -58.528  1.00  0.00     0.069 C 
HETATM    2  C   UNL     1     -43.577  58.005 -57.495  1.00  0.00     0.018 A 
HETATM    3  N   UNL     1     -43.047  57.317 -56.412  1.00  0.00    -0.343 N 
HETATM    4  C   UNL     1     -42.309  57.933 -55.461  1.00  0.00     0.146 A 
HETATM    5  N   UNL     1     -42.163  59.299 -55.529  1.00  0.00    -0.179 N 
HETATM    6  N   UNL     1     -41.408  59.789 -54.511  1.00  0.00    -0.167 NA
HETATM    7  C   UNL     1     -41.062  58.702 -53.806  1.00  0.00     0.066 A 
HETATM    8  C   UNL     1     -40.213  58.850 -52.597  1.00  0.00     0.073 C 
HETATM    9  C   UNL     1     -41.595  57.504 -54.365  1.00  0.00     0.047 A 
HETATM   10  C   UNL     1     -42.706  60.105 -56.542  1.00  0.00     0.278 A 
HETATM   11  O   UNL     1     -42.554  61.321 -56.550  1.00  0.00    -0.265 OA
HETATM   12  C   UNL     1     -43.444  59.348 -57.617  1.00  0.00     0.036 A 
HETATM   13  H   UNL     1     -43.173  56.304 -56.401  1.00  0.00     0.167 HD
ENDROOT
BRANCH   9  14
HETATM   14  C   UNL     1     -41.512  56.121 -53.914  1.00  0.00    -0.009 A 
HETATM   15  C   UNL     1     -42.247  55.630 -52.794  1.00  0.00    -0.015 A 
HETATM   16  C   UNL     1     -42.039  54.286 -52.390  1.00  0.00    -0.025 A 
HETATM   17  C   UNL     1     -43.183  56.391 -52.048  1.00  0.00     0.013 A 
HETATM   18  C   UNL     1     -42.712  53.772 -51.269  1.00  0.00     0.012 A 
HETATM   19  C   UNL     1     -41.161  53.464 -53.112  1.00  0.00     0.012 A 
HETATM   20  C   UNL     1     -43.600  54.559 -50.539  1.00  0.00     0.001 A 
HETATM   21  C   UNL     1     -43.842  55.868 -50.933  1.00  0.00     0.001 A 
HETATM   22  C   UNL     1     -40.473  53.948 -54.222  1.00  0.00     0.002 A 
HETATM   23  C   UNL     1     -40.642  55.271 -54.616  1.00  0.00     0.013 A 
ENDBRANCH   9  14
BRANCH  12  24
HETATM   24  C   UNL     1     -43.995  60.209 -58.729  1.00  0.00     0.072 C 
BRANCH  24  25
HETATM   25  C   UNL     1     -45.429  60.675 -58.470  1.00  0.00     0.169 C 
BRANCH  25  26
HETATM   26  O   UNL     1     -45.446  61.771 -57.560  1.00  0.00    -0.401 OA
HETATM   27  H   UNL     1     -45.448  62.585 -58.092  1.00  0.00     0.209 HD
ENDBRANCH  25  26
ENDBRANCH  24  25
ENDBRANCH  12  24
TORSDOF 4
ENDMDL
MODEL 10
REMARK VINA RESULT:      -7.2     15.989     18.251
REMARK  4 active torsions:
REMARK  status: ('A' for Active; 'I' for Inactive)
REMARK    1  A    between atoms: C_9  and  C_10 
REMARK    2  A    between atoms: C_22  and  C_23 
REMARK    3  A    between atoms: C_23  and  C_24 
REMARK    4  A    between atoms: C_24  and  O_25 
ROOT
HETATM    1  C   UNL     1     -38.730  41.177 -52.419  1.00  0.00     0.069 C 
HETATM    2  C   UNL     1     -37.310  40.899 -52.852  1.00  0.00     0.018 A 
HETATM    3  N   UNL     1     -37.110  40.834 -54.224  1.00  0.00    -0.343 N 
HETATM    4  C   UNL     1     -35.878  40.697 -54.765  1.00  0.00     0.146 A 
HETATM    5  N   UNL     1     -34.807  40.524 -53.918  1.00  0.00    -0.179 N 
HETATM    6  N   UNL     1     -33.634  40.390 -54.590  1.00  0.00    -0.167 NA
HETATM    7  C   UNL     1     -33.980  40.501 -55.881  1.00  0.00     0.066 A 
HETATM    8  C   UNL     1     -32.935  40.408 -56.932  1.00  0.00     0.073 C 
HETATM    9  C   UNL     1     -35.381  40.704 -56.049  1.00  0.00     0.047 A 
HETATM   10  C   UNL     1     -34.899  40.510 -52.518  1.00  0.00     0.278 A 
HETATM   11  O   UNL     1     -33.913  40.342 -51.808  1.00  0.00    -0.265 OA
HETATM   12  C   UNL     1     -36.285  40.754 -51.977  1.00  0.00     0.036 A 
HETATM   13  H   UNL     1     -37.928  40.971 -54.819  1.00  0.00     0.167 HD
ENDROOT
BRANCH   9  14
HETATM   14  C   UNL     1     -36.188  40.832 -57.254  1.00  0.00    -0.009 A 
HETATM   15  C   UNL     1     -36.925  39.743 -57.808  1.00  0.00    -0.015 A 
HETATM   16  C   UNL     1     -37.621  39.952 -59.026  1.00  0.00    -0.025 A 
HETATM   17  C   UNL     1     -37.019  38.454 -57.224  1.00  0.00     0.013 A 
HETATM   18  C   UNL     1     -38.327  38.897 -59.627  1.00  0.00     0.012 A 
HETATM   19  C   UNL     1     -37.608  41.216 -59.634  1.00  0.00     0.012 A 
HETATM   20  C   UNL     1     -38.370  37.633 -59.042  1.00  0.00     0.001 A 
HETATM   21  C   UNL     1     -37.722  37.413 -57.834  1.00  0.00     0.001 A 
HETATM   22  C   UNL     1     -36.909  42.278 -59.067  1.00  0.00     0.002 A 
HETATM   23  C   UNL     1     -36.198  42.085 -57.888  1.00  0.00     0.013 A 
ENDBRANCH   9  14
BRANCH  12  24
HETATM   24  C   UNL     1     -36.379  40.778 -50.470  1.00  0.00     0.072 C 
BRANCH  24  25
HETATM   25  C   UNL     1     -36.831  39.443 -49.877  1.00  0.00     0.169 C 
BRANCH  25  26
HETATM   26  O   UNL     1     -37.611  39.650 -48.703  1.00  0.00    -0.401 OA
HETATM   27  H   UNL     1     -38.228  40.378 -48.894  1.00  0.00     0.209 HD
ENDBRANCH  25  26
ENDBRANCH  24  25
ENDBRANCH  12  24
TORSDOF 4
ENDMDL
