MODEL 1
REMARK VINA RESULT:      -8.6      0.000      0.000
REMARK  7 active torsions:
REMARK  status: ('A' for Active; 'I' for Inactive)
REMARK       I    between atoms: C_2  and  N_3 
REMARK    1  A    between atoms: N_3  and  C_4 
REMARK    2  A    between atoms: C_6  and  N_7 
REMARK       I    between atoms: N_7  and  C_8 
REMARK    3  A    between atoms: C_8  and  C_9 
REMARK       I    between atoms: C_9  and  N_10 
REMARK    4  A    between atoms: N_10  and  C_11 
REMARK    5  A    between atoms: C_11  and  C_12 
REMARK    6  A    between atoms: C_12  and  O_13 
REMARK    7  A    between atoms: C_12  and  C_14 
ROOT
HETATM    1  C   UNL     1     -43.989  56.749 -51.398  1.00  0.00     0.309 C 
HETATM    2  N   UNL     1     -42.797  56.067 -51.276  1.00  0.00    -0.350 N 
HETATM    3  O   UNL     1     -44.867  56.829 -50.551  1.00  0.00    -0.262 OA
HETATM    4  H   UNL     1     -42.282  55.944 -52.146  1.00  0.00     0.163 HD
ENDROOT
BRANCH   1   5
HETATM    5  C   UNL     1     -44.186  57.432 -52.769  1.00  0.00     0.313 C 
HETATM    6  N   UNL     1     -43.288  56.966 -53.703  1.00  0.00    -0.319 N 
HETATM    7  H   UNL     1     -42.641  56.263 -53.348  1.00  0.00     0.169 HD
HETATM    8  O   UNL     1     -45.057  58.283 -52.881  1.00  0.00    -0.262 OA
BRANCH   6   9
HETATM    9  C   UNL     1     -43.152  57.356 -55.046  1.00  0.00     0.037 A 
HETATM   10  C   UNL     1     -43.720  56.662 -56.119  1.00  0.00     0.059 A 
HETATM   11  C   UNL     1     -43.548  57.107 -57.440  1.00  0.00     0.036 A 
HETATM   12  C   UNL     1     -42.802  58.260 -57.676  1.00  0.00     0.029 A 
HETATM   13  C   UNL     1     -42.228  58.959 -56.611  1.00  0.00     0.004 A 
HETATM   14  C   UNL     1     -42.401  58.507 -55.302  1.00  0.00     0.029 A 
BRANCH  11  15
HETATM   15  N   UNL     1     -44.154  56.339 -58.458  1.00  0.00    -0.327 N 
HETATM   16  C   UNL     1     -43.555  55.822 -59.593  1.00  0.00     0.218 C 
HETATM   17  C   UNL     1     -44.530  55.042 -60.439  1.00  0.00     0.117 C 
HETATM   18  O   UNL     1     -42.379  55.924 -59.923  1.00  0.00    -0.274 OA
HETATM   19  H   UNL     1     -45.139  56.142 -58.334  1.00  0.00     0.169 HD
ENDBRANCH  11  15
ENDBRANCH   6   9
ENDBRANCH   1   5
BRANCH   2  20
HETATM   20  C   UNL     1     -42.565  55.162 -50.158  1.00  0.00     0.159 C 
BRANCH  20  21
HETATM   21  C   UNL     1     -41.066  54.879 -49.940  1.00  0.00     0.171 C 
BRANCH  21  22
HETATM   22  O   UNL     1     -40.805  54.770 -48.533  1.00  0.00    -0.389 OA
HETATM   23  H   UNL     1     -41.073  55.618 -48.138  1.00  0.00     0.210 HD
ENDBRANCH  21  22
BRANCH  21  24
HETATM   24  C   UNL     1     -40.633  53.644 -50.669  1.00  0.00     0.000 A 
HETATM   25  C   UNL     1     -40.484  53.494 -52.087  1.00  0.00     0.001 A 
HETATM   26  C   UNL     1     -40.089  52.175 -52.337  1.00  0.00     0.044 A 
HETATM   27  C   UNL     1     -40.655  54.368 -53.184  1.00  0.00     0.014 A 
HETATM   28  C   UNL     1     -39.855  51.704 -53.640  1.00  0.00     0.030 A 
HETATM   29  N   UNL     1     -40.001  51.547 -51.114  1.00  0.00    -0.360 N 
HETATM   30  C   UNL     1     -40.035  52.590 -54.707  1.00  0.00     0.002 A 
HETATM   31  C   UNL     1     -40.429  53.904 -54.484  1.00  0.00     0.001 A 
HETATM   32  C   UNL     1     -39.622  50.170 -50.884  1.00  0.00     0.155 C 
HETATM   33  C   UNL     1     -40.325  52.418 -50.111  1.00  0.00     0.101 A 
ENDBRANCH  21  24
ENDBRANCH  20  21
ENDBRANCH   2  20
TORSDOF 7
ENDMDL
MODEL 2
REMARK VINA RESULT:      -8.4      2.014      2.853
REMARK  7 active torsions:
REMARK  status: ('A' for Active; 'I' for Inactive)
REMARK       I    between atoms: C_2  and  N_3 
REMARK    1  A    between atoms: N_3  and  C_4 
REMARK    2  A    between atoms: C_6  and  N_7 
REMARK       I    between atoms: N_7  and  C_8 
REMARK    3  A    between atoms: C_8  and  C_9 
REMARK       I    between atoms: C_9  and  N_10 
REMARK    4  A    between atoms: N_10  and  C_11 
REMARK    5  A    between atoms: C_11  and  C_12 
REMARK    6  A    between atoms: C_12  and  O_13 
REMARK    7  A    between atoms: C_12  and  C_14 
ROOT
HETATM    1  C   UNL     1     -41.451  58.169 -51.593  1.00  0.00     0.309 C 
HETATM    2  N   UNL     1     -41.033  56.884 -51.321  1.00  0.00    -0.350 N 
HETATM    3  O   UNL     1     -42.072  58.904 -50.839  1.00  0.00    -0.262 OA
HETATM    4  H   UNL     1     -40.708  56.358 -52.130  1.00  0.00     0.163 HD
ENDROOT
BRANCH   1   5
HETATM    5  C   UNL     1     -41.094  58.659 -53.013  1.00  0.00     0.313 C 
HETATM    6  N   UNL     1     -42.128  58.450 -53.899  1.00  0.00    -0.319 N 
HETATM    7  H   UNL     1     -42.947  58.007 -53.488  1.00  0.00     0.169 HD
HETATM    8  O   UNL     1     -39.986  59.140 -53.207  1.00  0.00    -0.262 OA
BRANCH   6   9
HETATM    9  C   UNL     1     -42.170  58.751 -55.271  1.00  0.00     0.037 A 
HETATM   10  C   UNL     1     -42.345  57.790 -56.272  1.00  0.00     0.059 A 
HETATM   11  C   UNL     1     -42.381  58.157 -57.627  1.00  0.00     0.036 A 
HETATM   12  C   UNL     1     -42.241  59.501 -57.970  1.00  0.00     0.029 A 
HETATM   13  C   UNL     1     -42.063  60.467 -56.977  1.00  0.00     0.004 A 
HETATM   14  C   UNL     1     -42.025  60.093 -55.634  1.00  0.00     0.029 A 
BRANCH  11  15
HETATM   15  N   UNL     1     -42.556  57.119 -58.568  1.00  0.00    -0.327 N 
HETATM   16  C   UNL     1     -43.749  56.615 -59.054  1.00  0.00     0.218 C 
HETATM   17  C   UNL     1     -43.527  55.514 -60.061  1.00  0.00     0.117 C 
HETATM   18  O   UNL     1     -44.882  56.984 -58.767  1.00  0.00    -0.274 OA
HETATM   19  H   UNL     1     -41.706  56.704 -58.930  1.00  0.00     0.169 HD
ENDBRANCH  11  15
ENDBRANCH   6   9
ENDBRANCH   1   5
BRANCH   2  20
HETATM   20  C   UNL     1     -41.507  56.180 -50.136  1.00  0.00     0.159 C 
BRANCH  20  21
HETATM   21  C   UNL     1     -42.603  55.149 -50.471  1.00  0.00     0.171 C 
BRANCH  21  22
HETATM   22  O   UNL     1     -43.888  55.781 -50.385  1.00  0.00    -0.389 OA
HETATM   23  H   UNL     1     -43.895  56.275 -49.547  1.00  0.00     0.210 HD
ENDBRANCH  21  22
BRANCH  21  24
HETATM   24  C   UNL     1     -42.386  54.546 -51.825  1.00  0.00     0.000 A 
HETATM   25  C   UNL     1     -41.409  53.556 -52.175  1.00  0.00     0.001 A 
HETATM   26  C   UNL     1     -41.537  53.297 -53.545  1.00  0.00     0.044 A 
HETATM   27  C   UNL     1     -40.421  52.860 -51.445  1.00  0.00     0.014 A 
HETATM   28  C   UNL     1     -40.717  52.365 -54.204  1.00  0.00     0.030 A 
HETATM   29  N   UNL     1     -42.556  54.100 -54.009  1.00  0.00    -0.360 N 
HETATM   30  C   UNL     1     -39.746  51.693 -53.456  1.00  0.00     0.002 A 
HETATM   31  C   UNL     1     -39.598  51.935 -52.096  1.00  0.00     0.001 A 
HETATM   32  C   UNL     1     -43.042  54.166 -55.370  1.00  0.00     0.155 C 
HETATM   33  C   UNL     1     -43.069  54.850 -52.987  1.00  0.00     0.101 A 
ENDBRANCH  21  24
ENDBRANCH  20  21
ENDBRANCH   2  20
TORSDOF 7
ENDMDL
MODEL 3
REMARK VINA RESULT:      -8.3      3.153      4.828
REMARK  7 active torsions:
REMARK  status: ('A' for Active; 'I' for Inactive)
REMARK       I    between atoms: C_2  and  N_3 
REMARK    1  A    between atoms: N_3  and  C_4 
REMARK    2  A    between atoms: C_6  and  N_7 
REMARK       I    between atoms: N_7  and  C_8 
REMARK    3  A    between atoms: C_8  and  C_9 
REMARK       I    between atoms: C_9  and  N_10 
REMARK    4  A    between atoms: N_10  and  C_11 
REMARK    5  A    between atoms: C_11  and  C_12 
REMARK    6  A    between atoms: C_12  and  O_13 
REMARK    7  A    between atoms: C_12  and  C_14 
ROOT
HETATM    1  C   UNL     1     -43.063  56.186 -55.634  1.00  0.00     0.309 C 
HETATM    2  N   UNL     1     -42.088  55.307 -56.053  1.00  0.00    -0.350 N 
HETATM    3  O   UNL     1     -43.723  56.101 -54.608  1.00  0.00    -0.262 OA
HETATM    4  H   UNL     1     -41.788  55.427 -57.019  1.00  0.00     0.163 HD
ENDROOT
BRANCH   1   5
HETATM    5  C   UNL     1     -43.321  57.354 -56.611  1.00  0.00     0.313 C 
HETATM    6  N   UNL     1     -42.227  57.597 -57.413  1.00  0.00    -0.319 N 
HETATM    7  H   UNL     1     -41.433  56.985 -57.234  1.00  0.00     0.169 HD
HETATM    8  O   UNL     1     -44.400  57.927 -56.569  1.00  0.00    -0.262 OA
BRANCH   6   9
HETATM    9  C   UNL     1     -42.080  58.580 -58.406  1.00  0.00     0.037 A 
HETATM   10  C   UNL     1     -41.900  59.939 -58.133  1.00  0.00     0.059 A 
HETATM   11  C   UNL     1     -41.757  60.872 -59.173  1.00  0.00     0.036 A 
HETATM   12  C   UNL     1     -41.793  60.427 -60.493  1.00  0.00     0.029 A 
HETATM   13  C   UNL     1     -41.976  59.071 -60.775  1.00  0.00     0.004 A 
HETATM   14  C   UNL     1     -42.121  58.153 -59.736  1.00  0.00     0.029 A 
BRANCH  11  15
HETATM   15  N   UNL     1     -41.585  62.224 -58.803  1.00  0.00    -0.327 N 
HETATM   16  C   UNL     1     -40.436  62.987 -58.908  1.00  0.00     0.218 C 
HETATM   17  C   UNL     1     -40.650  64.397 -58.420  1.00  0.00     0.117 C 
HETATM   18  O   UNL     1     -39.350  62.635 -59.355  1.00  0.00    -0.274 OA
HETATM   19  H   UNL     1     -42.403  62.684 -58.423  1.00  0.00     0.169 HD
ENDBRANCH  11  15
ENDBRANCH   6   9
ENDBRANCH   1   5
BRANCH   2  20
HETATM   20  C   UNL     1     -41.901  54.025 -55.386  1.00  0.00     0.159 C 
BRANCH  20  21
HETATM   21  C   UNL     1     -40.427  53.772 -55.016  1.00  0.00     0.171 C 
BRANCH  21  22
HETATM   22  O   UNL     1     -39.672  54.973 -55.233  1.00  0.00    -0.389 OA
HETATM   23  H   UNL     1     -39.646  55.110 -56.196  1.00  0.00     0.210 HD
ENDBRANCH  21  22
BRANCH  21  24
HETATM   24  C   UNL     1     -40.294  53.296 -53.602  1.00  0.00     0.000 A 
HETATM   25  C   UNL     1     -40.035  51.953 -53.170  1.00  0.00     0.001 A 
HETATM   26  C   UNL     1     -40.017  51.952 -51.771  1.00  0.00     0.044 A 
HETATM   27  C   UNL     1     -39.819  50.735 -53.850  1.00  0.00     0.014 A 
HETATM   28  C   UNL     1     -39.785  50.779 -51.033  1.00  0.00     0.030 A 
HETATM   29  N   UNL     1     -40.254  53.247 -51.367  1.00  0.00    -0.360 N 
HETATM   30  C   UNL     1     -39.577  49.586 -51.733  1.00  0.00     0.002 A 
HETATM   31  C   UNL     1     -39.593  49.562 -53.122  1.00  0.00     0.001 A 
HETATM   32  C   UNL     1     -40.323  53.720 -50.002  1.00  0.00     0.155 C 
HETATM   33  C   UNL     1     -40.422  54.059 -52.456  1.00  0.00     0.101 A 
ENDBRANCH  21  24
ENDBRANCH  20  21
ENDBRANCH   2  20
TORSDOF 7
ENDMDL
MODEL 4
REMARK VINA RESULT:      -8.3      4.343      7.155
REMARK  7 active torsions:
REMARK  status: ('A' for Active; 'I' for Inactive)
REMARK       I    between atoms: C_2  and  N_3 
REMARK    1  A    between atoms: N_3  and  C_4 
REMARK    2  A    between atoms: C_6  and  N_7 
REMARK       I    between atoms: N_7  and  C_8 
REMARK    3  A    between atoms: C_8  and  C_9 
REMARK       I    between atoms: C_9  and  N_10 
REMARK    4  A    between atoms: N_10  and  C_11 
REMARK    5  A    between atoms: C_11  and  C_12 
REMARK    6  A    between atoms: C_12  and  O_13 
REMARK    7  A    between atoms: C_12  and  C_14 
ROOT
HETATM    1  C   UNL     1     -44.535  57.412 -51.205  1.00  0.00     0.309 C 
HETATM    2  N   UNL     1     -43.893  57.456 -52.424  1.00  0.00    -0.350 N 
HETATM    3  O   UNL     1     -44.758  56.411 -50.539  1.00  0.00    -0.262 OA
HETATM    4  H   UNL     1     -43.974  58.342 -52.920  1.00  0.00     0.163 HD
ENDROOT
BRANCH   1   5
HETATM    5  C   UNL     1     -45.019  58.788 -50.698  1.00  0.00     0.313 C 
HETATM    6  N   UNL     1     -43.964  59.628 -50.419  1.00  0.00    -0.319 N 
HETATM    7  H   UNL     1     -43.047  59.215 -50.581  1.00  0.00     0.169 HD
HETATM    8  O   UNL     1     -46.221  58.981 -50.583  1.00  0.00    -0.262 OA
BRANCH   6   9
HETATM    9  C   UNL     1     -44.008  60.944 -49.930  1.00  0.00     0.037 A 
HETATM   10  C   UNL     1     -44.731  61.328 -48.796  1.00  0.00     0.059 A 
HETATM   11  C   UNL     1     -44.732  62.663 -48.357  1.00  0.00     0.036 A 
HETATM   12  C   UNL     1     -43.996  63.610 -49.066  1.00  0.00     0.029 A 
HETATM   13  C   UNL     1     -43.273  63.236 -50.201  1.00  0.00     0.004 A 
HETATM   14  C   UNL     1     -43.281  61.910 -50.632  1.00  0.00     0.029 A 
BRANCH  11  15
HETATM   15  N   UNL     1     -45.494  62.958 -47.207  1.00  0.00    -0.327 N 
HETATM   16  C   UNL     1     -46.868  62.876 -47.062  1.00  0.00     0.218 C 
HETATM   17  C   UNL     1     -47.312  63.262 -45.673  1.00  0.00     0.117 C 
HETATM   18  O   UNL     1     -47.682  62.521 -47.905  1.00  0.00    -0.274 OA
HETATM   19  H   UNL     1     -44.969  63.257 -46.394  1.00  0.00     0.169 HD
ENDBRANCH  11  15
ENDBRANCH   6   9
ENDBRANCH   1   5
BRANCH   2  20
HETATM   20  C   UNL     1     -43.605  56.232 -53.160  1.00  0.00     0.159 C 
BRANCH  20  21
HETATM   21  C   UNL     1     -42.115  56.120 -53.540  1.00  0.00     0.171 C 
BRANCH  21  22
HETATM   22  O   UNL     1     -41.516  57.424 -53.491  1.00  0.00    -0.389 OA
HETATM   23  H   UNL     1     -41.245  57.635 -54.401  1.00  0.00     0.210 HD
ENDBRANCH  21  22
BRANCH  21  24
HETATM   24  C   UNL     1     -41.395  55.159 -52.645  1.00  0.00     0.000 A 
HETATM   25  C   UNL     1     -40.872  53.875 -53.011  1.00  0.00     0.001 A 
HETATM   26  C   UNL     1     -40.304  53.304 -51.866  1.00  0.00     0.044 A 
HETATM   27  C   UNL     1     -40.835  53.146 -54.219  1.00  0.00     0.014 A 
HETATM   28  C   UNL     1     -39.698  52.037 -51.891  1.00  0.00     0.030 A 
HETATM   29  N   UNL     1     -40.476  54.209 -50.842  1.00  0.00    -0.360 N 
HETATM   30  C   UNL     1     -39.679  51.336 -53.101  1.00  0.00     0.002 A 
HETATM   31  C   UNL     1     -40.239  51.881 -54.250  1.00  0.00     0.001 A 
HETATM   32  C   UNL     1     -40.043  54.045 -49.472  1.00  0.00     0.155 C 
HETATM   33  C   UNL     1     -41.129  55.322 -51.298  1.00  0.00     0.101 A 
ENDBRANCH  21  24
ENDBRANCH  20  21
ENDBRANCH   2  20
TORSDOF 7
ENDMDL
MODEL 5
REMARK VINA RESULT:      -8.1      2.734      3.955
REMARK  7 active torsions:
REMARK  status: ('A' for Active; 'I' for Inactive)
REMARK       I    between atoms: C_2  and  N_3 
REMARK    1  A    between atoms: N_3  and  C_4 
REMARK    2  A    between atoms: C_6  and  N_7 
REMARK       I    between atoms: N_7  and  C_8 
REMARK    3  A    between atoms: C_8  and  C_9 
REMARK       I    between atoms: C_9  and  N_10 
REMARK    4  A    between atoms: N_10  and  C_11 
REMARK    5  A    between atoms: C_11  and  C_12 
REMARK    6  A    between atoms: C_12  and  O_13 
REMARK    7  A    between atoms: C_12  and  C_14 
ROOT
HETATM    1  C   UNL     1     -41.704  58.193 -51.799  1.00  0.00     0.309 C 
HETATM    2  N   UNL     1     -41.065  57.027 -51.433  1.00  0.00    -0.350 N 
HETATM    3  O   UNL     1     -42.531  58.804 -51.138  1.00  0.00    -0.262 OA
HETATM    4  H   UNL     1     -40.563  56.558 -52.185  1.00  0.00     0.163 HD
ENDROOT
BRANCH   1   5
HETATM    5  C   UNL     1     -41.314  58.711 -53.201  1.00  0.00     0.313 C 
HETATM    6  N   UNL     1     -42.293  58.442 -54.132  1.00  0.00    -0.319 N 
HETATM    7  H   UNL     1     -43.101  57.946 -53.759  1.00  0.00     0.169 HD
HETATM    8  O   UNL     1     -40.231  59.260 -53.344  1.00  0.00    -0.262 OA
BRANCH   6   9
HETATM    9  C   UNL     1     -42.292  58.745 -55.504  1.00  0.00     0.037 A 
HETATM   10  C   UNL     1     -42.244  60.047 -56.012  1.00  0.00     0.059 A 
HETATM   11  C   UNL     1     -42.243  60.283 -57.397  1.00  0.00     0.036 A 
HETATM   12  C   UNL     1     -42.288  59.197 -58.270  1.00  0.00     0.029 A 
HETATM   13  C   UNL     1     -42.338  57.894 -57.771  1.00  0.00     0.004 A 
HETATM   14  C   UNL     1     -42.343  57.669 -56.395  1.00  0.00     0.029 A 
BRANCH  11  15
HETATM   15  N   UNL     1     -42.198  61.630 -57.818  1.00  0.00    -0.327 N 
HETATM   16  C   UNL     1     -41.096  62.338 -58.261  1.00  0.00     0.218 C 
HETATM   17  C   UNL     1     -41.450  63.755 -58.636  1.00  0.00     0.117 C 
HETATM   18  O   UNL     1     -39.948  61.925 -58.382  1.00  0.00    -0.274 OA
HETATM   19  H   UNL     1     -43.080  62.127 -57.797  1.00  0.00     0.169 HD
ENDBRANCH  11  15
ENDBRANCH   6   9
ENDBRANCH   1   5
BRANCH   2  20
HETATM   20  C   UNL     1     -41.502  56.271 -50.266  1.00  0.00     0.159 C 
BRANCH  20  21
HETATM   21  C   UNL     1     -42.648  55.296 -50.602  1.00  0.00     0.171 C 
BRANCH  21  22
HETATM   22  O   UNL     1     -43.895  56.006 -50.572  1.00  0.00    -0.389 OA
HETATM   23  H   UNL     1     -43.934  56.456 -49.710  1.00  0.00     0.210 HD
ENDBRANCH  21  22
BRANCH  21  24
HETATM   24  C   UNL     1     -42.431  54.637 -51.929  1.00  0.00     0.000 A 
HETATM   25  C   UNL     1     -41.457  53.632 -52.238  1.00  0.00     0.001 A 
HETATM   26  C   UNL     1     -41.584  53.317 -53.596  1.00  0.00     0.044 A 
HETATM   27  C   UNL     1     -40.472  52.963 -51.478  1.00  0.00     0.014 A 
HETATM   28  C   UNL     1     -40.766  52.357 -54.215  1.00  0.00     0.030 A 
HETATM   29  N   UNL     1     -42.600  54.103 -54.093  1.00  0.00    -0.360 N 
HETATM   30  C   UNL     1     -39.798  51.712 -53.439  1.00  0.00     0.002 A 
HETATM   31  C   UNL     1     -39.651  52.010 -52.089  1.00  0.00     0.001 A 
HETATM   32  C   UNL     1     -43.084  54.115 -55.456  1.00  0.00     0.155 C 
HETATM   33  C   UNL     1     -43.113  54.896 -53.104  1.00  0.00     0.101 A 
ENDBRANCH  21  24
ENDBRANCH  20  21
ENDBRANCH   2  20
TORSDOF 7
ENDMDL
MODEL 6
REMARK VINA RESULT:      -8.0      2.667      3.958
REMARK  7 active torsions:
REMARK  status: ('A' for Active; 'I' for Inactive)
REMARK       I    between atoms: C_2  and  N_3 
REMARK    1  A    between atoms: N_3  and  C_4 
REMARK    2  A    between atoms: C_6  and  N_7 
REMARK       I    between atoms: N_7  and  C_8 
REMARK    3  A    between atoms: C_8  and  C_9 
REMARK       I    between atoms: C_9  and  N_10 
REMARK    4  A    between atoms: N_10  and  C_11 
REMARK    5  A    between atoms: C_11  and  C_12 
REMARK    6  A    between atoms: C_12  and  O_13 
REMARK    7  A    between atoms: C_12  and  C_14 
ROOT
HETATM    1  C   UNL     1     -43.591  56.457 -55.191  1.00  0.00     0.309 C 
HETATM    2  N   UNL     1     -43.232  55.317 -55.877  1.00  0.00    -0.350 N 
HETATM    3  O   UNL     1     -43.404  56.677 -54.003  1.00  0.00    -0.262 OA
HETATM    4  H   UNL     1     -43.642  55.227 -56.805  1.00  0.00     0.163 HD
ENDROOT
BRANCH   1   5
HETATM    5  C   UNL     1     -44.323  57.508 -56.055  1.00  0.00     0.313 C 
HETATM    6  N   UNL     1     -44.133  57.281 -57.400  1.00  0.00    -0.319 N 
HETATM    7  H   UNL     1     -43.545  56.477 -57.610  1.00  0.00     0.169 HD
HETATM    8  O   UNL     1     -44.947  58.397 -55.494  1.00  0.00    -0.262 OA
BRANCH   6   9
HETATM    9  C   UNL     1     -44.627  58.027 -58.484  1.00  0.00     0.037 A 
HETATM   10  C   UNL     1     -45.745  57.657 -59.237  1.00  0.00     0.059 A 
HETATM   11  C   UNL     1     -46.190  58.450 -60.308  1.00  0.00     0.036 A 
HETATM   12  C   UNL     1     -45.501  59.622 -60.616  1.00  0.00     0.029 A 
HETATM   13  C   UNL     1     -44.381  59.998 -59.870  1.00  0.00     0.004 A 
HETATM   14  C   UNL     1     -43.945  59.203 -58.811  1.00  0.00     0.029 A 
BRANCH  11  15
HETATM   15  N   UNL     1     -47.324  57.994 -61.015  1.00  0.00    -0.327 N 
HETATM   16  C   UNL     1     -47.511  56.755 -61.599  1.00  0.00     0.218 C 
HETATM   17  C   UNL     1     -48.865  56.639 -62.254  1.00  0.00     0.117 C 
HETATM   18  O   UNL     1     -46.728  55.812 -61.604  1.00  0.00    -0.274 OA
HETATM   19  H   UNL     1     -48.088  58.654 -61.093  1.00  0.00     0.169 HD
ENDBRANCH  11  15
ENDBRANCH   6   9
ENDBRANCH   1   5
BRANCH   2  20
HETATM   20  C   UNL     1     -42.770  54.132 -55.166  1.00  0.00     0.159 C 
BRANCH  20  21
HETATM   21  C   UNL     1     -41.232  54.044 -55.120  1.00  0.00     0.171 C 
BRANCH  21  22
HETATM   22  O   UNL     1     -40.678  55.346 -55.364  1.00  0.00    -0.389 OA
HETATM   23  H   UNL     1     -39.719  55.267 -55.217  1.00  0.00     0.210 HD
ENDBRANCH  21  22
BRANCH  21  24
HETATM   24  C   UNL     1     -40.757  53.490 -53.812  1.00  0.00     0.000 A 
HETATM   25  C   UNL     1     -40.343  52.141 -53.554  1.00  0.00     0.001 A 
HETATM   26  C   UNL     1     -40.005  52.052 -52.198  1.00  0.00     0.044 A 
HETATM   27  C   UNL     1     -40.229  50.985 -54.356  1.00  0.00     0.014 A 
HETATM   28  C   UNL     1     -39.554  50.852 -51.623  1.00  0.00     0.030 A 
HETATM   29  N   UNL     1     -40.206  53.301 -51.654  1.00  0.00    -0.360 N 
HETATM   30  C   UNL     1     -39.454  49.722 -52.441  1.00  0.00     0.002 A 
HETATM   31  C   UNL     1     -39.787  49.786 -53.789  1.00  0.00     0.001 A 
HETATM   32  C   UNL     1     -39.984  53.681 -50.276  1.00  0.00     0.155 C 
HETATM   33  C   UNL     1     -40.657  54.168 -52.612  1.00  0.00     0.101 A 
ENDBRANCH  21  24
ENDBRANCH  20  21
ENDBRANCH   2  20
TORSDOF 7
ENDMDL
MODEL 7
REMARK VINA RESULT:      -8.0      1.907      2.099
REMARK  7 active torsions:
REMARK  status: ('A' for Active; 'I' for Inactive)
REMARK       I    between atoms: C_2  and  N_3 
REMARK    1  A    between atoms: N_3  and  C_4 
REMARK    2  A    between atoms: C_6  and  N_7 
REMARK       I    between atoms: N_7  and  C_8 
REMARK    3  A    between atoms: C_8  and  C_9 
REMARK       I    between atoms: C_9  and  N_10 
REMARK    4  A    between atoms: N_10  and  C_11 
REMARK    5  A    between atoms: C_11  and  C_12 
REMARK    6  A    between atoms: C_12  and  O_13 
REMARK    7  A    between atoms: C_12  and  C_14 
ROOT
HETATM    1  C   UNL     1     -41.154  58.200 -51.392  1.00  0.00     0.309 C 
HETATM    2  N   UNL     1     -40.884  56.866 -51.173  1.00  0.00    -0.350 N 
HETATM    3  O   UNL     1     -41.589  58.995 -50.572  1.00  0.00    -0.262 OA
HETATM    4  H   UNL     1     -40.719  56.318 -52.016  1.00  0.00     0.163 HD
ENDROOT
BRANCH   1   5
HETATM    5  C   UNL     1     -40.888  58.667 -52.840  1.00  0.00     0.313 C 
HETATM    6  N   UNL     1     -41.968  58.424 -53.660  1.00  0.00    -0.319 N 
HETATM    7  H   UNL     1     -42.755  57.976 -53.193  1.00  0.00     0.169 HD
HETATM    8  O   UNL     1     -39.802  59.161 -53.107  1.00  0.00    -0.262 OA
BRANCH   6   9
HETATM    9  C   UNL     1     -42.094  58.696 -55.032  1.00  0.00     0.037 A 
HETATM   10  C   UNL     1     -42.287  57.711 -56.005  1.00  0.00     0.059 A 
HETATM   11  C   UNL     1     -42.408  58.049 -57.363  1.00  0.00     0.036 A 
HETATM   12  C   UNL     1     -42.338  59.390 -57.736  1.00  0.00     0.029 A 
HETATM   13  C   UNL     1     -42.143  60.381 -56.771  1.00  0.00     0.004 A 
HETATM   14  C   UNL     1     -42.020  60.035 -55.426  1.00  0.00     0.029 A 
BRANCH  11  15
HETATM   15  N   UNL     1     -42.595  56.987 -58.274  1.00  0.00    -0.327 N 
HETATM   16  C   UNL     1     -43.777  56.586 -58.871  1.00  0.00     0.218 C 
HETATM   17  C   UNL     1     -43.570  55.417 -59.800  1.00  0.00     0.117 C 
HETATM   18  O   UNL     1     -44.886  57.086 -58.727  1.00  0.00    -0.274 OA
HETATM   19  H   UNL     1     -41.762  56.468 -58.522  1.00  0.00     0.169 HD
ENDBRANCH  11  15
ENDBRANCH   6   9
ENDBRANCH   1   5
BRANCH   2  20
HETATM   20  C   UNL     1     -41.318  56.207 -49.948  1.00  0.00     0.159 C 
BRANCH  20  21
HETATM   21  C   UNL     1     -42.159  54.948 -50.232  1.00  0.00     0.171 C 
BRANCH  21  22
HETATM   22  O   UNL     1     -43.355  55.325 -50.930  1.00  0.00    -0.389 OA
HETATM   23  H   UNL     1     -44.090  55.187 -50.308  1.00  0.00     0.210 HD
ENDBRANCH  21  22
BRANCH  21  24
HETATM   24  C   UNL     1     -41.376  53.934 -51.009  1.00  0.00     0.000 A 
HETATM   25  C   UNL     1     -41.167  53.916 -52.428  1.00  0.00     0.001 A 
HETATM   26  C   UNL     1     -40.403  52.784 -52.732  1.00  0.00     0.044 A 
HETATM   27  C   UNL     1     -41.566  54.765 -53.483  1.00  0.00     0.014 A 
HETATM   28  C   UNL     1     -40.022  52.477 -54.049  1.00  0.00     0.030 A 
HETATM   29  N   UNL     1     -40.156  52.138 -51.540  1.00  0.00    -0.360 N 
HETATM   30  C   UNL     1     -40.434  53.334 -55.074  1.00  0.00     0.002 A 
HETATM   31  C   UNL     1     -41.196  54.463 -54.797  1.00  0.00     0.001 A 
HETATM   32  C   UNL     1     -39.399  50.917 -51.369  1.00  0.00     0.155 C 
HETATM   33  C   UNL     1     -40.735  52.818 -50.504  1.00  0.00     0.101 A 
ENDBRANCH  21  24
ENDBRANCH  20  21
ENDBRANCH   2  20
TORSDOF 7
ENDMDL
MODEL 8
REMARK VINA RESULT:      -8.0      2.075      2.684
REMARK  7 active torsions:
REMARK  status: ('A' for Active; 'I' for Inactive)
REMARK       I    between atoms: C_2  and  N_3 
REMARK    1  A    between atoms: N_3  and  C_4 
REMARK    2  A    between atoms: C_6  and  N_7 
REMARK       I    between atoms: N_7  and  C_8 
REMARK    3  A    between atoms: C_8  and  C_9 
REMARK       I    between atoms: C_9  and  N_10 
REMARK    4  A    between atoms: N_10  and  C_11 
REMARK    5  A    between atoms: C_11  and  C_12 
REMARK    6  A    between atoms: C_12  and  O_13 
REMARK    7  A    between atoms: C_12  and  C_14 
ROOT
HETATM    1  C   UNL     1     -44.108  56.906 -53.941  1.00  0.00     0.309 C 
HETATM    2  N   UNL     1     -43.761  57.668 -52.845  1.00  0.00    -0.350 N 
HETATM    3  O   UNL     1     -44.292  55.697 -53.954  1.00  0.00    -0.262 OA
HETATM    4  H   UNL     1     -43.458  58.616 -53.061  1.00  0.00     0.163 HD
ENDROOT
BRANCH   1   5
HETATM    5  C   UNL     1     -44.233  57.710 -55.253  1.00  0.00     0.313 C 
HETATM    6  N   UNL     1     -43.940  56.936 -56.354  1.00  0.00    -0.319 N 
HETATM    7  H   UNL     1     -43.685  55.975 -56.134  1.00  0.00     0.169 HD
HETATM    8  O   UNL     1     -44.543  58.891 -55.190  1.00  0.00    -0.262 OA
BRANCH   6   9
HETATM    9  C   UNL     1     -43.933  57.318 -57.706  1.00  0.00     0.037 A 
HETATM   10  C   UNL     1     -45.063  57.288 -58.529  1.00  0.00     0.059 A 
HETATM   11  C   UNL     1     -44.989  57.686 -59.874  1.00  0.00     0.036 A 
HETATM   12  C   UNL     1     -43.768  58.118 -60.387  1.00  0.00     0.029 A 
HETATM   13  C   UNL     1     -42.633  58.149 -59.573  1.00  0.00     0.004 A 
HETATM   14  C   UNL     1     -42.715  57.748 -58.240  1.00  0.00     0.029 A 
BRANCH  11  15
HETATM   15  N   UNL     1     -46.180  57.617 -60.629  1.00  0.00    -0.327 N 
HETATM   16  C   UNL     1     -46.769  56.490 -61.173  1.00  0.00     0.218 C 
HETATM   17  C   UNL     1     -48.047  56.819 -61.903  1.00  0.00     0.117 C 
HETATM   18  O   UNL     1     -46.372  55.333 -61.092  1.00  0.00    -0.274 OA
HETATM   19  H   UNL     1     -46.658  58.497 -60.780  1.00  0.00     0.169 HD
ENDBRANCH  11  15
ENDBRANCH   6   9
ENDBRANCH   1   5
BRANCH   2  20
HETATM   20  C   UNL     1     -43.354  57.038 -51.596  1.00  0.00     0.159 C 
BRANCH  20  21
HETATM   21  C   UNL     1     -41.821  56.966 -51.455  1.00  0.00     0.171 C 
BRANCH  21  22
HETATM   22  O   UNL     1     -41.433  57.553 -50.204  1.00  0.00    -0.389 OA
HETATM   23  H   UNL     1     -41.505  56.848 -49.537  1.00  0.00     0.210 HD
ENDBRANCH  21  22
BRANCH  21  24
HETATM   24  C   UNL     1     -41.329  55.555 -51.568  1.00  0.00     0.000 A 
HETATM   25  C   UNL     1     -40.957  54.871 -52.772  1.00  0.00     0.001 A 
HETATM   26  C   UNL     1     -40.584  53.568 -52.423  1.00  0.00     0.044 A 
HETATM   27  C   UNL     1     -40.910  55.247 -54.132  1.00  0.00     0.014 A 
HETATM   28  C   UNL     1     -40.162  52.635 -53.385  1.00  0.00     0.030 A 
HETATM   29  N   UNL     1     -40.724  53.465 -51.057  1.00  0.00    -0.360 N 
HETATM   30  C   UNL     1     -40.127  53.034 -54.725  1.00  0.00     0.002 A 
HETATM   31  C   UNL     1     -40.496  54.322 -55.096  1.00  0.00     0.001 A 
HETATM   32  C   UNL     1     -40.448  52.294 -50.254  1.00  0.00     0.155 C 
HETATM   33  C   UNL     1     -41.169  54.649 -50.536  1.00  0.00     0.101 A 
ENDBRANCH  21  24
ENDBRANCH  20  21
ENDBRANCH   2  20
TORSDOF 7
ENDMDL
MODEL 9
REMARK VINA RESULT:      -7.9      2.767      7.907
REMARK  7 active torsions:
REMARK  status: ('A' for Active; 'I' for Inactive)
REMARK       I    between atoms: C_2  and  N_3 
REMARK    1  A    between atoms: N_3  and  C_4 
REMARK    2  A    between atoms: C_6  and  N_7 
REMARK       I    between atoms: N_7  and  C_8 
REMARK    3  A    between atoms: C_8  and  C_9 
REMARK       I    between atoms: C_9  and  N_10 
REMARK    4  A    between atoms: N_10  and  C_11 
REMARK    5  A    between atoms: C_11  and  C_12 
REMARK    6  A    between atoms: C_12  and  O_13 
REMARK    7  A    between atoms: C_12  and  C_14 
ROOT
HETATM    1  C   UNL     1     -43.795  56.911 -55.043  1.00  0.00     0.309 C 
HETATM    2  N   UNL     1     -42.805  57.507 -55.795  1.00  0.00    -0.350 N 
HETATM    3  O   UNL     1     -44.913  57.358 -54.831  1.00  0.00    -0.262 OA
HETATM    4  H   UNL     1     -41.881  57.090 -55.697  1.00  0.00     0.163 HD
ENDROOT
BRANCH   1   5
HETATM    5  C   UNL     1     -43.379  55.566 -54.408  1.00  0.00     0.313 C 
HETATM    6  N   UNL     1     -42.069  55.587 -53.983  1.00  0.00    -0.319 N 
HETATM    7  H   UNL     1     -41.587  56.467 -54.157  1.00  0.00     0.169 HD
HETATM    8  O   UNL     1     -44.199  54.660 -54.364  1.00  0.00    -0.262 OA
BRANCH   6   9
HETATM    9  C   UNL     1     -41.337  54.553 -53.374  1.00  0.00     0.037 A 
HETATM   10  C   UNL     1     -40.998  54.536 -52.018  1.00  0.00     0.059 A 
HETATM   11  C   UNL     1     -40.266  53.470 -51.469  1.00  0.00     0.036 A 
HETATM   12  C   UNL     1     -39.878  52.417 -52.296  1.00  0.00     0.029 A 
HETATM   13  C   UNL     1     -40.210  52.428 -53.653  1.00  0.00     0.004 A 
HETATM   14  C   UNL     1     -40.934  53.492 -54.190  1.00  0.00     0.029 A 
BRANCH  11  15
HETATM   15  N   UNL     1     -39.966  53.540 -50.092  1.00  0.00    -0.327 N 
HETATM   16  C   UNL     1     -40.807  53.926 -49.064  1.00  0.00     0.218 C 
HETATM   17  C   UNL     1     -40.125  53.858 -47.721  1.00  0.00     0.117 C 
HETATM   18  O   UNL     1     -41.980  54.270 -49.156  1.00  0.00    -0.274 OA
HETATM   19  H   UNL     1     -39.025  53.269 -49.831  1.00  0.00     0.169 HD
ENDBRANCH  11  15
ENDBRANCH   6   9
ENDBRANCH   1   5
BRANCH   2  20
HETATM   20  C   UNL     1     -42.939  58.886 -56.247  1.00  0.00     0.159 C 
BRANCH  20  21
HETATM   21  C   UNL     1     -41.853  59.801 -55.648  1.00  0.00     0.171 C 
BRANCH  21  22
HETATM   22  O   UNL     1     -41.651  60.926 -56.516  1.00  0.00    -0.389 OA
HETATM   23  H   UNL     1     -41.247  61.623 -55.971  1.00  0.00     0.210 HD
ENDBRANCH  21  22
BRANCH  21  24
HETATM   24  C   UNL     1     -42.216  60.243 -54.263  1.00  0.00     0.000 A 
HETATM   25  C   UNL     1     -41.666  59.751 -53.034  1.00  0.00     0.001 A 
HETATM   26  C   UNL     1     -42.306  60.417 -51.983  1.00  0.00     0.044 A 
HETATM   27  C   UNL     1     -40.679  58.790 -52.724  1.00  0.00     0.014 A 
HETATM   28  C   UNL     1     -41.989  60.160 -50.639  1.00  0.00     0.030 A 
HETATM   29  N   UNL     1     -43.212  61.284 -52.554  1.00  0.00    -0.360 N 
HETATM   30  C   UNL     1     -41.010  59.202 -50.361  1.00  0.00     0.002 A 
HETATM   31  C   UNL     1     -40.362  58.525 -51.388  1.00  0.00     0.001 A 
HETATM   32  C   UNL     1     -44.099  62.182 -51.848  1.00  0.00     0.155 C 
HETATM   33  C   UNL     1     -43.166  61.186 -53.918  1.00  0.00     0.101 A 
ENDBRANCH  21  24
ENDBRANCH  20  21
ENDBRANCH   2  20
TORSDOF 7
ENDMDL
MODEL 10
REMARK VINA RESULT:      -7.9      3.397      6.637
REMARK  7 active torsions:
REMARK  status: ('A' for Active; 'I' for Inactive)
REMARK       I    between atoms: C_2  and  N_3 
REMARK    1  A    between atoms: N_3  and  C_4 
REMARK    2  A    between atoms: C_6  and  N_7 
REMARK       I    between atoms: N_7  and  C_8 
REMARK    3  A    between atoms: C_8  and  C_9 
REMARK       I    between atoms: C_9  and  N_10 
REMARK    4  A    between atoms: N_10  and  C_11 
REMARK    5  A    between atoms: C_11  and  C_12 
REMARK    6  A    between atoms: C_12  and  O_13 
REMARK    7  A    between atoms: C_12  and  C_14 
ROOT
HETATM    1  C   UNL     1     -41.655  57.998 -53.886  1.00  0.00     0.309 C 
HETATM    2  N   UNL     1     -42.466  57.330 -54.780  1.00  0.00    -0.350 N 
HETATM    3  O   UNL     1     -40.512  57.692 -53.578  1.00  0.00    -0.262 OA
HETATM    4  H   UNL     1     -43.445  57.609 -54.761  1.00  0.00     0.163 HD
ENDROOT
BRANCH   1   5
HETATM    5  C   UNL     1     -42.323  59.222 -53.223  1.00  0.00     0.313 C 
HETATM    6  N   UNL     1     -43.535  58.896 -52.656  1.00  0.00    -0.319 N 
HETATM    7  H   UNL     1     -43.799  57.919 -52.767  1.00  0.00     0.169 HD
HETATM    8  O   UNL     1     -41.753  60.303 -53.279  1.00  0.00    -0.262 OA
BRANCH   6   9
HETATM    9  C   UNL     1     -44.432  59.740 -51.981  1.00  0.00     0.037 A 
HETATM   10  C   UNL     1     -44.268  60.146 -50.653  1.00  0.00     0.059 A 
HETATM   11  C   UNL     1     -45.201  60.995 -50.035  1.00  0.00     0.036 A 
HETATM   12  C   UNL     1     -46.303  61.437 -50.766  1.00  0.00     0.029 A 
HETATM   13  C   UNL     1     -46.476  61.034 -52.092  1.00  0.00     0.004 A 
HETATM   14  C   UNL     1     -45.546  60.188 -52.695  1.00  0.00     0.029 A 
BRANCH  11  15
HETATM   15  N   UNL     1     -44.956  61.347 -48.690  1.00  0.00    -0.327 N 
HETATM   16  C   UNL     1     -45.492  60.766 -47.555  1.00  0.00     0.218 C 
HETATM   17  C   UNL     1     -44.976  61.412 -46.294  1.00  0.00     0.117 C 
HETATM   18  O   UNL     1     -46.277  59.826 -47.504  1.00  0.00    -0.274 OA
HETATM   19  H   UNL     1     -44.305  62.109 -48.546  1.00  0.00     0.169 HD
ENDBRANCH  11  15
ENDBRANCH   6   9
ENDBRANCH   1   5
BRANCH   2  20
HETATM   20  C   UNL     1     -42.090  56.020 -55.295  1.00  0.00     0.159 C 
BRANCH  20  21
HETATM   21  C   UNL     1     -42.806  54.876 -54.550  1.00  0.00     0.171 C 
BRANCH  21  22
HETATM   22  O   UNL     1     -43.610  54.137 -55.481  1.00  0.00    -0.389 OA
HETATM   23  H   UNL     1     -44.533  54.249 -55.195  1.00  0.00     0.210 HD
ENDBRANCH  21  22
BRANCH  21  24
HETATM   24  C   UNL     1     -41.826  53.984 -53.852  1.00  0.00     0.000 A 
HETATM   25  C   UNL     1     -41.308  54.152 -52.526  1.00  0.00     0.001 A 
HETATM   26  C   UNL     1     -40.405  53.110 -52.285  1.00  0.00     0.044 A 
HETATM   27  C   UNL     1     -41.525  55.106 -51.508  1.00  0.00     0.014 A 
HETATM   28  C   UNL     1     -39.721  52.988 -51.064  1.00  0.00     0.030 A 
HETATM   29  N   UNL     1     -40.378  52.336 -53.424  1.00  0.00    -0.360 N 
HETATM   30  C   UNL     1     -39.954  53.948 -50.075  1.00  0.00     0.002 A 
HETATM   31  C   UNL     1     -40.843  54.994 -50.292  1.00  0.00     0.001 A 
HETATM   32  C   UNL     1     -39.584  51.144 -53.631  1.00  0.00     0.155 C 
HETATM   33  C   UNL     1     -41.224  52.851 -54.367  1.00  0.00     0.101 A 
ENDBRANCH  21  24
ENDBRANCH  20  21
ENDBRANCH   2  20
TORSDOF 7
ENDMDL
