MODEL 1
REMARK VINA RESULT:      -8.4      0.000      0.000
REMARK  4 active torsions:
REMARK  status: ('A' for Active; 'I' for Inactive)
REMARK    1  A    between atoms: C_7  and  C_8 
REMARK    2  A    between atoms: C_10  and  O_11 
REMARK    3  A    between atoms: C_17  and  C_18 
REMARK    4  A    between atoms: C_25  and  C_26 
REMARK       I    between atoms: C_26  and  N_27 
ROOT
HETATM    1  C   UNL     1     -43.485  57.637 -58.563  1.00  0.00     0.070 C 
HETATM    2  C   UNL     1     -43.391  57.039 -57.181  1.00  0.00     0.037 A 
HETATM    3  N   UNL     1     -42.412  56.066 -57.011  1.00  0.00    -0.192 N 
HETATM    4  C   UNL     1     -42.207  55.415 -55.852  1.00  0.00     0.726 A 
HETATM    5  N   UNL     1     -42.981  55.717 -54.769  1.00  0.00    -0.083 N 
HETATM    6  N   UNL     1     -42.705  54.911 -53.725  1.00  0.00    -0.135 NA
HETATM    7  C   UNL     1     -41.667  54.199 -54.206  1.00  0.00     0.199 A 
HETATM    8  N   UNL     1     -41.360  54.474 -55.529  1.00  0.00    -0.041 NA
HETATM    9  C   UNL     1     -44.047  56.725 -54.774  1.00  0.00     0.202 A 
HETATM   10  C   UNL     1     -44.197  57.375 -56.143  1.00  0.00     0.062 A 
HETATM   11  H   UNL     1     -41.822  55.844 -57.809  1.00  0.00     0.184 HD
ENDROOT
BRANCH   7  12
HETATM   12  C   UNL     1     -40.917  53.225 -53.418  1.00  0.00     0.017 A 
HETATM   13  C   UNL     1     -40.967  53.250 -52.013  1.00  0.00     0.052 A 
HETATM   14  C   UNL     1     -40.231  52.333 -51.259  1.00  0.00     0.069 A 
HETATM   15  C   UNL     1     -39.447  51.380 -51.913  1.00  0.00     0.037 A 
HETATM   16  C   UNL     1     -39.389  51.344 -53.306  1.00  0.00     0.004 A 
HETATM   17  C   UNL     1     -40.120  52.264 -54.056  1.00  0.00     0.015 A 
BRANCH  14  18
HETATM   18  O   UNL     1     -40.194  52.262 -49.892  1.00  0.00    -0.356 OA
HETATM   19  C   UNL     1     -40.499  53.457 -49.181  1.00  0.00     0.210 C 
ENDBRANCH  14  18
ENDBRANCH   7  12
BRANCH   9  20
HETATM   20  C   UNL     1     -43.822  57.716 -53.634  1.00  0.00    -0.028 A 
HETATM   21  C   UNL     1     -42.712  58.582 -53.615  1.00  0.00     0.012 A 
HETATM   22  C   UNL     1     -42.522  59.467 -52.553  1.00  0.00     0.043 A 
HETATM   23  C   UNL     1     -43.429  59.486 -51.502  1.00  0.00     0.116 A 
HETATM   24  F   UNL     1     -43.242  60.332 -50.481  1.00  0.00    -0.206 F 
HETATM   25  C   UNL     1     -44.526  58.633 -51.490  1.00  0.00     0.043 A 
HETATM   26  C   UNL     1     -44.722  57.749 -52.551  1.00  0.00     0.012 A 
ENDBRANCH   9  20
BRANCH  10  27
HETATM   27  C   UNL     1     -45.197  58.457 -56.277  1.00  0.00     0.249 C 
HETATM   28  N   UNL     1     -46.486  58.055 -56.424  1.00  0.00    -0.366 N 
HETATM   29  H   UNL     1     -46.784  57.100 -56.550  1.00  0.00     0.159 HD
HETATM   30  H   UNL     1     -47.178  58.786 -56.540  1.00  0.00     0.159 HD
HETATM   31  O   UNL     1     -44.894  59.642 -56.261  1.00  0.00    -0.268 OA
ENDBRANCH  10  27
TORSDOF 4
ENDMDL
MODEL 2
REMARK VINA RESULT:      -8.1      1.004      2.020
REMARK  4 active torsions:
REMARK  status: ('A' for Active; 'I' for Inactive)
REMARK    1  A    between atoms: C_7  and  C_8 
REMARK    2  A    between atoms: C_10  and  O_11 
REMARK    3  A    between atoms: C_17  and  C_18 
REMARK    4  A    between atoms: C_25  and  C_26 
REMARK       I    between atoms: C_26  and  N_27 
ROOT
HETATM    1  C   UNL     1     -43.171  58.105 -58.291  1.00  0.00     0.070 C 
HETATM    2  C   UNL     1     -43.146  57.446 -56.933  1.00  0.00     0.037 A 
HETATM    3  N   UNL     1     -42.160  56.483 -56.749  1.00  0.00    -0.192 N 
HETATM    4  C   UNL     1     -42.010  55.782 -55.610  1.00  0.00     0.726 A 
HETATM    5  N   UNL     1     -42.852  56.022 -54.563  1.00  0.00    -0.083 N 
HETATM    6  N   UNL     1     -42.622  55.174 -53.541  1.00  0.00    -0.135 NA
HETATM    7  C   UNL     1     -41.544  54.503 -53.992  1.00  0.00     0.199 A 
HETATM    8  N   UNL     1     -41.165  54.843 -55.280  1.00  0.00    -0.041 NA
HETATM    9  C   UNL     1     -43.935  57.012 -54.585  1.00  0.00     0.202 A 
HETATM   10  C   UNL     1     -44.017  57.721 -55.931  1.00  0.00     0.062 A 
HETATM   11  H   UNL     1     -41.521  56.307 -57.520  1.00  0.00     0.184 HD
ENDROOT
BRANCH   7  12
HETATM   12  C   UNL     1     -40.823  53.506 -53.205  1.00  0.00     0.017 A 
HETATM   13  C   UNL     1     -40.452  52.274 -53.773  1.00  0.00     0.052 A 
HETATM   14  C   UNL     1     -39.783  51.312 -53.014  1.00  0.00     0.069 A 
HETATM   15  C   UNL     1     -39.476  51.584 -51.680  1.00  0.00     0.037 A 
HETATM   16  C   UNL     1     -39.837  52.802 -51.102  1.00  0.00     0.004 A 
HETATM   17  C   UNL     1     -40.509  53.758 -51.862  1.00  0.00     0.015 A 
BRANCH  14  18
HETATM   18  O   UNL     1     -39.379  50.080 -53.454  1.00  0.00    -0.356 OA
HETATM   19  C   UNL     1     -39.726  49.730 -54.788  1.00  0.00     0.210 C 
ENDBRANCH  14  18
ENDBRANCH   7  12
BRANCH   9  20
HETATM   20  C   UNL     1     -43.796  57.953 -53.391  1.00  0.00    -0.028 A 
HETATM   21  C   UNL     1     -44.780  58.024 -52.386  1.00  0.00     0.012 A 
HETATM   22  C   UNL     1     -44.636  58.905 -51.313  1.00  0.00     0.043 A 
HETATM   23  C   UNL     1     -43.516  59.724 -51.242  1.00  0.00     0.116 A 
HETATM   24  F   UNL     1     -43.381  60.571 -50.214  1.00  0.00    -0.206 F 
HETATM   25  C   UNL     1     -42.536  59.682 -52.226  1.00  0.00     0.043 A 
HETATM   26  C   UNL     1     -42.675  58.801 -53.299  1.00  0.00     0.012 A 
ENDBRANCH   9  20
BRANCH  10  27
HETATM   27  C   UNL     1     -45.029  58.791 -56.075  1.00  0.00     0.249 C 
HETATM   28  N   UNL     1     -46.298  58.375 -56.316  1.00  0.00    -0.366 N 
HETATM   29  H   UNL     1     -46.571  57.422 -56.502  1.00  0.00     0.159 HD
HETATM   30  H   UNL     1     -46.997  59.099 -56.440  1.00  0.00     0.159 HD
HETATM   31  O   UNL     1     -44.750  59.979 -55.987  1.00  0.00    -0.268 OA
ENDBRANCH  10  27
TORSDOF 4
ENDMDL
MODEL 3
REMARK VINA RESULT:      -8.0      3.200      7.524
REMARK  4 active torsions:
REMARK  status: ('A' for Active; 'I' for Inactive)
REMARK    1  A    between atoms: C_7  and  C_8 
REMARK    2  A    between atoms: C_10  and  O_11 
REMARK    3  A    between atoms: C_17  and  C_18 
REMARK    4  A    between atoms: C_25  and  C_26 
REMARK       I    between atoms: C_26  and  N_27 
ROOT
HETATM    1  C   UNL     1     -40.679  59.251 -50.853  1.00  0.00     0.070 C 
HETATM    2  C   UNL     1     -41.210  58.562 -52.087  1.00  0.00     0.037 A 
HETATM    3  N   UNL     1     -41.173  59.311 -53.257  1.00  0.00    -0.192 N 
HETATM    4  C   UNL     1     -41.627  58.860 -54.441  1.00  0.00     0.726 A 
HETATM    5  N   UNL     1     -42.144  57.599 -54.523  1.00  0.00    -0.083 N 
HETATM    6  N   UNL     1     -42.633  57.345 -55.752  1.00  0.00    -0.135 NA
HETATM    7  C   UNL     1     -42.284  58.466 -56.413  1.00  0.00     0.199 A 
HETATM    8  N   UNL     1     -41.686  59.428 -55.615  1.00  0.00    -0.041 NA
HETATM    9  C   UNL     1     -42.244  56.675 -53.387  1.00  0.00     0.202 A 
HETATM   10  C   UNL     1     -41.721  57.306 -52.104  1.00  0.00     0.062 A 
HETATM   11  H   UNL     1     -40.777  60.246 -53.208  1.00  0.00     0.184 HD
ENDROOT
BRANCH   7  12
HETATM   12  C   UNL     1     -42.504  58.666 -57.843  1.00  0.00     0.017 A 
HETATM   13  C   UNL     1     -43.065  57.645 -58.631  1.00  0.00     0.052 A 
HETATM   14  C   UNL     1     -43.253  57.828 -60.003  1.00  0.00     0.069 A 
HETATM   15  C   UNL     1     -42.886  59.040 -60.590  1.00  0.00     0.037 A 
HETATM   16  C   UNL     1     -42.329  60.062 -59.820  1.00  0.00     0.004 A 
HETATM   17  C   UNL     1     -42.137  59.874 -58.452  1.00  0.00     0.015 A 
BRANCH  14  18
HETATM   18  O   UNL     1     -43.781  56.910 -60.871  1.00  0.00    -0.356 OA
HETATM   19  C   UNL     1     -44.315  55.721 -60.299  1.00  0.00     0.210 C 
ENDBRANCH  14  18
ENDBRANCH   7  12
BRANCH   9  20
HETATM   20  C   UNL     1     -41.581  55.347 -53.746  1.00  0.00    -0.028 A 
HETATM   21  C   UNL     1     -40.494  55.281 -54.640  1.00  0.00     0.012 A 
HETATM   22  C   UNL     1     -39.916  54.053 -54.963  1.00  0.00     0.043 A 
HETATM   23  C   UNL     1     -40.424  52.886 -54.405  1.00  0.00     0.116 A 
HETATM   24  F   UNL     1     -39.870  51.708 -54.720  1.00  0.00    -0.206 F 
HETATM   25  C   UNL     1     -41.502  52.922 -53.530  1.00  0.00     0.043 A 
HETATM   26  C   UNL     1     -42.081  54.149 -53.202  1.00  0.00     0.012 A 
ENDBRANCH   9  20
BRANCH  10  27
HETATM   27  C   UNL     1     -41.706  56.462 -50.888  1.00  0.00     0.249 C 
HETATM   28  N   UNL     1     -42.918  56.200 -50.336  1.00  0.00    -0.366 N 
HETATM   29  H   UNL     1     -43.790  56.615 -50.627  1.00  0.00     0.159 HD
HETATM   30  H   UNL     1     -42.919  55.642 -49.489  1.00  0.00     0.159 HD
HETATM   31  O   UNL     1     -40.672  56.025 -50.401  1.00  0.00    -0.268 OA
ENDBRANCH  10  27
TORSDOF 4
ENDMDL
MODEL 4
REMARK VINA RESULT:      -7.8      2.645      4.207
REMARK  4 active torsions:
REMARK  status: ('A' for Active; 'I' for Inactive)
REMARK    1  A    between atoms: C_7  and  C_8 
REMARK    2  A    between atoms: C_10  and  O_11 
REMARK    3  A    between atoms: C_17  and  C_18 
REMARK    4  A    between atoms: C_25  and  C_26 
REMARK       I    between atoms: C_26  and  N_27 
ROOT
HETATM    1  C   UNL     1     -45.037  59.481 -52.700  1.00  0.00     0.070 C 
HETATM    2  C   UNL     1     -43.990  58.602 -53.338  1.00  0.00     0.037 A 
HETATM    3  N   UNL     1     -43.780  57.373 -52.724  1.00  0.00    -0.192 N 
HETATM    4  C   UNL     1     -42.868  56.478 -53.147  1.00  0.00     0.726 A 
HETATM    5  N   UNL     1     -42.107  56.766 -54.243  1.00  0.00    -0.083 N 
HETATM    6  N   UNL     1     -41.189  55.807 -54.472  1.00  0.00    -0.135 NA
HETATM    7  C   UNL     1     -41.514  54.898 -53.532  1.00  0.00     0.199 A 
HETATM    8  N   UNL     1     -42.532  55.304 -52.684  1.00  0.00    -0.041 NA
HETATM    9  C   UNL     1     -42.211  58.010 -55.015  1.00  0.00     0.202 A 
HETATM   10  C   UNL     1     -43.257  58.948 -54.426  1.00  0.00     0.062 A 
HETATM   11  H   UNL     1     -44.351  57.144 -51.914  1.00  0.00     0.184 HD
ENDROOT
BRANCH   7  12
HETATM   12  C   UNL     1     -40.868  53.595 -53.407  1.00  0.00     0.017 A 
HETATM   13  C   UNL     1     -40.573  53.060 -52.140  1.00  0.00     0.052 A 
HETATM   14  C   UNL     1     -39.933  51.824 -52.021  1.00  0.00     0.069 A 
HETATM   15  C   UNL     1     -39.593  51.115 -53.174  1.00  0.00     0.037 A 
HETATM   16  C   UNL     1     -39.880  51.633 -54.437  1.00  0.00     0.004 A 
HETATM   17  C   UNL     1     -40.513  52.869 -54.553  1.00  0.00     0.015 A 
BRANCH  14  18
HETATM   18  O   UNL     1     -39.590  51.207 -50.848  1.00  0.00    -0.356 OA
HETATM   19  C   UNL     1     -39.597  49.784 -50.847  1.00  0.00     0.210 C 
ENDBRANCH  14  18
ENDBRANCH   7  12
BRANCH   9  20
HETATM   20  C   UNL     1     -42.426  57.683 -56.491  1.00  0.00    -0.028 A 
HETATM   21  C   UNL     1     -41.811  58.434 -57.511  1.00  0.00     0.012 A 
HETATM   22  C   UNL     1     -42.038  58.123 -58.853  1.00  0.00     0.043 A 
HETATM   23  C   UNL     1     -42.883  57.071 -59.183  1.00  0.00     0.116 A 
HETATM   24  F   UNL     1     -43.102  56.778 -60.471  1.00  0.00    -0.206 F 
HETATM   25  C   UNL     1     -43.511  56.323 -58.195  1.00  0.00     0.043 A 
HETATM   26  C   UNL     1     -43.285  56.628 -56.852  1.00  0.00     0.012 A 
ENDBRANCH   9  20
BRANCH  10  27
HETATM   27  C   UNL     1     -43.511  60.219 -55.141  1.00  0.00     0.249 C 
HETATM   28  N   UNL     1     -42.590  61.198 -54.950  1.00  0.00    -0.366 N 
HETATM   29  H   UNL     1     -41.827  61.155 -54.293  1.00  0.00     0.159 HD
HETATM   30  H   UNL     1     -42.765  62.081 -55.416  1.00  0.00     0.159 HD
HETATM   31  O   UNL     1     -44.487  60.388 -55.858  1.00  0.00    -0.268 OA
ENDBRANCH  10  27
TORSDOF 4
ENDMDL
MODEL 5
REMARK VINA RESULT:      -7.8      3.465      7.889
REMARK  4 active torsions:
REMARK  status: ('A' for Active; 'I' for Inactive)
REMARK    1  A    between atoms: C_7  and  C_8 
REMARK    2  A    between atoms: C_10  and  O_11 
REMARK    3  A    between atoms: C_17  and  C_18 
REMARK    4  A    between atoms: C_25  and  C_26 
REMARK       I    between atoms: C_26  and  N_27 
ROOT
HETATM    1  C   UNL     1     -41.667  59.629 -50.997  1.00  0.00     0.070 C 
HETATM    2  C   UNL     1     -41.959  58.998 -52.337  1.00  0.00     0.037 A 
HETATM    3  N   UNL     1     -41.662  59.779 -53.448  1.00  0.00    -0.192 N 
HETATM    4  C   UNL     1     -41.881  59.381 -54.714  1.00  0.00     0.726 A 
HETATM    5  N   UNL     1     -42.412  58.145 -54.945  1.00  0.00    -0.083 N 
HETATM    6  N   UNL     1     -42.650  57.947 -56.256  1.00  0.00    -0.135 NA
HETATM    7  C   UNL     1     -42.138  59.072 -56.791  1.00  0.00     0.199 A 
HETATM    8  N   UNL     1     -41.683  59.986 -55.855  1.00  0.00    -0.041 NA
HETATM    9  C   UNL     1     -42.770  57.192 -53.888  1.00  0.00     0.202 A 
HETATM   10  C   UNL     1     -42.497  57.764 -52.502  1.00  0.00     0.062 A 
HETATM   11  H   UNL     1     -41.254  60.697 -53.286  1.00  0.00     0.184 HD
ENDROOT
BRANCH   7  12
HETATM   12  C   UNL     1     -42.057  59.322 -58.228  1.00  0.00     0.017 A 
HETATM   13  C   UNL     1     -41.976  60.635 -58.724  1.00  0.00     0.052 A 
HETATM   14  C   UNL     1     -41.922  60.875 -60.099  1.00  0.00     0.069 A 
HETATM   15  C   UNL     1     -41.943  59.795 -60.984  1.00  0.00     0.037 A 
HETATM   16  C   UNL     1     -42.022  58.487 -60.506  1.00  0.00     0.004 A 
HETATM   17  C   UNL     1     -42.081  58.251 -59.133  1.00  0.00     0.015 A 
BRANCH  14  18
HETATM   18  O   UNL     1     -41.848  62.104 -60.698  1.00  0.00    -0.356 OA
HETATM   19  C   UNL     1     -40.852  62.269 -61.701  1.00  0.00     0.210 C 
ENDBRANCH  14  18
ENDBRANCH   7  12
BRANCH   9  20
HETATM   20  C   UNL     1     -42.091  55.851 -54.154  1.00  0.00    -0.028 A 
HETATM   21  C   UNL     1     -42.799  54.636 -54.081  1.00  0.00     0.012 A 
HETATM   22  C   UNL     1     -42.151  53.422 -54.313  1.00  0.00     0.043 A 
HETATM   23  C   UNL     1     -40.794  53.413 -54.609  1.00  0.00     0.116 A 
HETATM   24  F   UNL     1     -40.172  52.247 -54.828  1.00  0.00    -0.206 F 
HETATM   25  C   UNL     1     -40.069  54.597 -54.676  1.00  0.00     0.043 A 
HETATM   26  C   UNL     1     -40.714  55.812 -54.447  1.00  0.00     0.012 A 
ENDBRANCH   9  20
BRANCH  10  27
HETATM   27  C   UNL     1     -42.756  56.885 -51.340  1.00  0.00     0.249 C 
HETATM   28  N   UNL     1     -44.029  56.890 -50.868  1.00  0.00    -0.366 N 
HETATM   29  H   UNL     1     -44.760  57.511 -51.179  1.00  0.00     0.159 HD
HETATM   30  H   UNL     1     -44.213  56.310 -50.058  1.00  0.00     0.159 HD
HETATM   31  O   UNL     1     -41.885  56.196 -50.828  1.00  0.00    -0.268 OA
ENDBRANCH  10  27
TORSDOF 4
ENDMDL
MODEL 6
REMARK VINA RESULT:      -7.7      2.544      4.096
REMARK  4 active torsions:
REMARK  status: ('A' for Active; 'I' for Inactive)
REMARK    1  A    between atoms: C_7  and  C_8 
REMARK    2  A    between atoms: C_10  and  O_11 
REMARK    3  A    between atoms: C_17  and  C_18 
REMARK    4  A    between atoms: C_25  and  C_26 
REMARK       I    between atoms: C_26  and  N_27 
ROOT
HETATM    1  C   UNL     1     -45.872  58.859 -50.942  1.00  0.00     0.070 C 
HETATM    2  C   UNL     1     -44.732  58.275 -51.742  1.00  0.00     0.037 A 
HETATM    3  N   UNL     1     -44.428  56.945 -51.475  1.00  0.00    -0.192 N 
HETATM    4  C   UNL     1     -43.429  56.277 -52.079  1.00  0.00     0.726 A 
HETATM    5  N   UNL     1     -42.668  56.915 -53.015  1.00  0.00    -0.083 N 
HETATM    6  N   UNL     1     -41.660  56.133 -53.449  1.00  0.00    -0.135 NA
HETATM    7  C   UNL     1     -41.927  54.978 -52.809  1.00  0.00     0.199 A 
HETATM    8  N   UNL     1     -43.000  55.052 -51.935  1.00  0.00    -0.041 NA
HETATM    9  C   UNL     1     -42.863  58.311 -53.424  1.00  0.00     0.202 A 
HETATM   10  C   UNL     1     -44.005  58.965 -52.656  1.00  0.00     0.062 A 
HETATM   11  H   UNL     1     -44.998  56.459 -50.788  1.00  0.00     0.184 HD
ENDROOT
BRANCH   7  12
HETATM   12  C   UNL     1     -41.169  53.746 -53.010  1.00  0.00     0.017 A 
HETATM   13  C   UNL     1     -40.613  53.060 -51.916  1.00  0.00     0.052 A 
HETATM   14  C   UNL     1     -39.868  51.894 -52.110  1.00  0.00     0.069 A 
HETATM   15  C   UNL     1     -39.683  51.408 -53.405  1.00  0.00     0.037 A 
HETATM   16  C   UNL     1     -40.229  52.078 -54.500  1.00  0.00     0.004 A 
HETATM   17  C   UNL     1     -40.967  53.244 -54.303  1.00  0.00     0.015 A 
BRANCH  14  18
HETATM   18  O   UNL     1     -39.276  51.146 -51.128  1.00  0.00    -0.356 OA
HETATM   19  C   UNL     1     -39.513  49.744 -51.161  1.00  0.00     0.210 C 
ENDBRANCH  14  18
ENDBRANCH   7  12
BRANCH   9  20
HETATM   20  C   UNL     1     -43.008  58.386 -54.942  1.00  0.00    -0.028 A 
HETATM   21  C   UNL     1     -42.125  59.147 -55.732  1.00  0.00     0.012 A 
HETATM   22  C   UNL     1     -42.289  59.211 -57.117  1.00  0.00     0.043 A 
HETATM   23  C   UNL     1     -43.339  58.527 -57.717  1.00  0.00     0.116 A 
HETATM   24  F   UNL     1     -43.498  58.594 -59.045  1.00  0.00    -0.206 F 
HETATM   25  C   UNL     1     -44.231  57.780 -56.959  1.00  0.00     0.043 A 
HETATM   26  C   UNL     1     -44.068  57.710 -55.575  1.00  0.00     0.012 A 
ENDBRANCH   9  20
BRANCH  10  27
HETATM   27  C   UNL     1     -44.354  60.358 -53.011  1.00  0.00     0.249 C 
HETATM   28  N   UNL     1     -43.565  61.321 -52.469  1.00  0.00    -0.366 N 
HETATM   29  H   UNL     1     -42.846  61.161 -51.779  1.00  0.00     0.159 HD
HETATM   30  H   UNL     1     -43.807  62.280 -52.685  1.00  0.00     0.159 HD
HETATM   31  O   UNL     1     -45.293  60.637 -53.743  1.00  0.00    -0.268 OA
ENDBRANCH  10  27
TORSDOF 4
ENDMDL
MODEL 7
REMARK VINA RESULT:      -7.1      2.951      4.726
REMARK  4 active torsions:
REMARK  status: ('A' for Active; 'I' for Inactive)
REMARK    1  A    between atoms: C_7  and  C_8 
REMARK    2  A    between atoms: C_10  and  O_11 
REMARK    3  A    between atoms: C_17  and  C_18 
REMARK    4  A    between atoms: C_25  and  C_26 
REMARK       I    between atoms: C_26  and  N_27 
ROOT
HETATM    1  C   UNL     1     -44.166  61.441 -50.723  1.00  0.00     0.070 C 
HETATM    2  C   UNL     1     -43.523  60.352 -51.548  1.00  0.00     0.037 A 
HETATM    3  N   UNL     1     -43.191  59.192 -50.859  1.00  0.00    -0.192 N 
HETATM    4  C   UNL     1     -42.591  58.134 -51.433  1.00  0.00     0.726 A 
HETATM    5  N   UNL     1     -42.294  58.175 -52.765  1.00  0.00    -0.083 N 
HETATM    6  N   UNL     1     -41.617  57.077 -53.154  1.00  0.00    -0.135 NA
HETATM    7  C   UNL     1     -41.624  56.346 -52.022  1.00  0.00     0.199 A 
HETATM    8  N   UNL     1     -42.196  56.991 -50.938  1.00  0.00    -0.041 NA
HETATM    9  C   UNL     1     -42.589  59.316 -53.640  1.00  0.00     0.202 A 
HETATM   10  C   UNL     1     -43.245  60.456 -52.872  1.00  0.00     0.062 A 
HETATM   11  H   UNL     1     -43.419  59.148 -49.869  1.00  0.00     0.184 HD
ENDROOT
BRANCH   7  12
HETATM   12  C   UNL     1     -41.087  54.992 -51.929  1.00  0.00     0.017 A 
HETATM   13  C   UNL     1     -41.102  54.136 -53.044  1.00  0.00     0.052 A 
HETATM   14  C   UNL     1     -40.609  52.833 -52.949  1.00  0.00     0.069 A 
HETATM   15  C   UNL     1     -40.092  52.383 -51.732  1.00  0.00     0.037 A 
HETATM   16  C   UNL     1     -40.070  53.221 -50.617  1.00  0.00     0.004 A 
HETATM   17  C   UNL     1     -40.568  54.520 -50.715  1.00  0.00     0.015 A 
BRANCH  14  18
HETATM   18  O   UNL     1     -40.576  51.910 -53.959  1.00  0.00    -0.356 OA
HETATM   19  C   UNL     1     -39.540  50.936 -53.905  1.00  0.00     0.210 C 
ENDBRANCH  14  18
ENDBRANCH   7  12
BRANCH   9  20
HETATM   20  C   UNL     1     -43.386  58.840 -54.853  1.00  0.00    -0.028 A 
HETATM   21  C   UNL     1     -44.709  58.375 -54.732  1.00  0.00     0.012 A 
HETATM   22  C   UNL     1     -45.410  57.931 -55.854  1.00  0.00     0.043 A 
HETATM   23  C   UNL     1     -44.792  57.940 -57.098  1.00  0.00     0.116 A 
HETATM   24  F   UNL     1     -45.465  57.510 -58.174  1.00  0.00    -0.206 F 
HETATM   25  C   UNL     1     -43.484  58.384 -57.243  1.00  0.00     0.043 A 
HETATM   26  C   UNL     1     -42.781  58.831 -56.124  1.00  0.00     0.012 A 
ENDBRANCH   9  20
BRANCH  10  27
HETATM   27  C   UNL     1     -43.653  61.650 -53.643  1.00  0.00     0.249 C 
HETATM   28  N   UNL     1     -42.655  62.507 -53.977  1.00  0.00    -0.366 N 
HETATM   29  H   UNL     1     -41.702  62.441 -53.655  1.00  0.00     0.159 HD
HETATM   30  H   UNL     1     -42.925  63.341 -54.486  1.00  0.00     0.159 HD
HETATM   31  O   UNL     1     -44.814  61.864 -53.964  1.00  0.00    -0.268 OA
ENDBRANCH  10  27
TORSDOF 4
ENDMDL
MODEL 8
REMARK VINA RESULT:      -7.1      2.270      6.557
REMARK  4 active torsions:
REMARK  status: ('A' for Active; 'I' for Inactive)
REMARK    1  A    between atoms: C_7  and  C_8 
REMARK    2  A    between atoms: C_10  and  O_11 
REMARK    3  A    between atoms: C_17  and  C_18 
REMARK    4  A    between atoms: C_25  and  C_26 
REMARK       I    between atoms: C_26  and  N_27 
ROOT
HETATM    1  C   UNL     1     -40.929  52.727 -51.801  1.00  0.00     0.070 C 
HETATM    2  C   UNL     1     -41.244  54.015 -52.521  1.00  0.00     0.037 A 
HETATM    3  N   UNL     1     -41.550  53.890 -53.872  1.00  0.00    -0.192 N 
HETATM    4  C   UNL     1     -41.832  54.937 -54.669  1.00  0.00     0.726 A 
HETATM    5  N   UNL     1     -41.834  56.196 -54.142  1.00  0.00    -0.083 N 
HETATM    6  N   UNL     1     -42.044  57.128 -55.093  1.00  0.00    -0.135 NA
HETATM    7  C   UNL     1     -42.270  56.357 -56.174  1.00  0.00     0.199 A 
HETATM    8  N   UNL     1     -42.116  55.000 -55.942  1.00  0.00    -0.041 NA
HETATM    9  C   UNL     1     -41.546  56.502 -52.736  1.00  0.00     0.202 A 
HETATM   10  C   UNL     1     -41.222  55.242 -51.944  1.00  0.00     0.062 A 
HETATM   11  H   UNL     1     -41.563  52.954 -54.269  1.00  0.00     0.184 HD
ENDROOT
BRANCH   7  12
HETATM   12  C   UNL     1     -42.649  56.886 -57.481  1.00  0.00     0.017 A 
HETATM   13  C   UNL     1     -43.099  56.026 -58.500  1.00  0.00     0.052 A 
HETATM   14  C   UNL     1     -43.439  56.529 -59.757  1.00  0.00     0.069 A 
HETATM   15  C   UNL     1     -43.337  57.901 -59.997  1.00  0.00     0.037 A 
HETATM   16  C   UNL     1     -42.893  58.766 -58.997  1.00  0.00     0.004 A 
HETATM   17  C   UNL     1     -42.549  58.259 -57.744  1.00  0.00     0.015 A 
BRANCH  14  18
HETATM   18  O   UNL     1     -43.881  55.794 -60.824  1.00  0.00    -0.356 OA
HETATM   19  C   UNL     1     -44.892  54.827 -60.562  1.00  0.00     0.210 C 
ENDBRANCH  14  18
ENDBRANCH   7  12
BRANCH   9  20
HETATM   20  C   UNL     1     -42.684  57.334 -52.148  1.00  0.00    -0.028 A 
HETATM   21  C   UNL     1     -43.994  56.827 -52.048  1.00  0.00     0.012 A 
HETATM   22  C   UNL     1     -45.020  57.614 -51.521  1.00  0.00     0.043 A 
HETATM   23  C   UNL     1     -44.746  58.910 -51.101  1.00  0.00     0.116 A 
HETATM   24  F   UNL     1     -45.732  59.664 -50.600  1.00  0.00    -0.206 F 
HETATM   25  C   UNL     1     -43.465  59.437 -51.200  1.00  0.00     0.043 A 
HETATM   26  C   UNL     1     -42.436  58.653 -51.723  1.00  0.00     0.012 A 
ENDBRANCH   9  20
BRANCH  10  27
HETATM   27  C   UNL     1     -40.970  55.396 -50.494  1.00  0.00     0.249 C 
HETATM   28  N   UNL     1     -41.986  55.022 -49.675  1.00  0.00    -0.366 N 
HETATM   29  H   UNL     1     -42.909  54.755 -49.982  1.00  0.00     0.159 HD
HETATM   30  H   UNL     1     -41.834  55.144 -48.681  1.00  0.00     0.159 HD
HETATM   31  O   UNL     1     -39.918  55.834 -50.050  1.00  0.00    -0.268 OA
ENDBRANCH  10  27
TORSDOF 4
ENDMDL
MODEL 9
REMARK VINA RESULT:      -7.0      2.760      4.093
REMARK  4 active torsions:
REMARK  status: ('A' for Active; 'I' for Inactive)
REMARK    1  A    between atoms: C_7  and  C_8 
REMARK    2  A    between atoms: C_10  and  O_11 
REMARK    3  A    between atoms: C_17  and  C_18 
REMARK    4  A    between atoms: C_25  and  C_26 
REMARK       I    between atoms: C_26  and  N_27 
ROOT
HETATM    1  C   UNL     1     -44.664  55.232 -60.621  1.00  0.00     0.070 C 
HETATM    2  C   UNL     1     -44.323  55.826 -59.276  1.00  0.00     0.037 A 
HETATM    3  N   UNL     1     -43.662  54.979 -58.394  1.00  0.00    -0.192 N 
HETATM    4  C   UNL     1     -43.304  55.339 -57.148  1.00  0.00     0.726 A 
HETATM    5  N   UNL     1     -43.586  56.600 -56.709  1.00  0.00    -0.083 N 
HETATM    6  N   UNL     1     -43.244  56.761 -55.416  1.00  0.00    -0.135 NA
HETATM    7  C   UNL     1     -42.655  55.579 -55.149  1.00  0.00     0.199 A 
HETATM    8  N   UNL     1     -42.706  54.674 -56.196  1.00  0.00    -0.041 NA
HETATM    9  C   UNL     1     -44.265  57.621 -57.516  1.00  0.00     0.202 A 
HETATM   10  C   UNL     1     -44.638  57.089 -58.894  1.00  0.00     0.062 A 
HETATM   11  H   UNL     1     -43.437  54.042 -58.717  1.00  0.00     0.184 HD
ENDROOT
BRANCH   7  12
HETATM   12  C   UNL     1     -42.010  55.264 -53.877  1.00  0.00     0.017 A 
HETATM   13  C   UNL     1     -41.211  54.114 -53.743  1.00  0.00     0.052 A 
HETATM   14  C   UNL     1     -40.614  53.801 -52.520  1.00  0.00     0.069 A 
HETATM   15  C   UNL     1     -40.810  54.645 -51.425  1.00  0.00     0.037 A 
HETATM   16  C   UNL     1     -41.600  55.789 -51.543  1.00  0.00     0.004 A 
HETATM   17  C   UNL     1     -42.199  56.096 -52.764  1.00  0.00     0.015 A 
BRANCH  14  18
HETATM   18  O   UNL     1     -39.825  52.711 -52.268  1.00  0.00    -0.356 OA
HETATM   19  C   UNL     1     -39.857  51.660 -53.226  1.00  0.00     0.210 C 
ENDBRANCH  14  18
ENDBRANCH   7  12
BRANCH   9  20
HETATM   20  C   UNL     1     -43.425  58.896 -57.545  1.00  0.00    -0.028 A 
HETATM   21  C   UNL     1     -43.918  60.117 -57.046  1.00  0.00     0.012 A 
HETATM   22  C   UNL     1     -43.135  61.271 -57.100  1.00  0.00     0.043 A 
HETATM   23  C   UNL     1     -41.864  61.216 -57.658  1.00  0.00     0.116 A 
HETATM   24  F   UNL     1     -41.117  62.325 -57.712  1.00  0.00    -0.206 F 
HETATM   25  C   UNL     1     -41.360  60.026 -58.168  1.00  0.00     0.043 A 
HETATM   26  C   UNL     1     -42.138  58.869 -58.114  1.00  0.00     0.012 A 
ENDBRANCH   9  20
BRANCH  10  27
HETATM   27  C   UNL     1     -45.277  58.032 -59.838  1.00  0.00     0.249 C 
HETATM   28  N   UNL     1     -44.450  58.604 -60.750  1.00  0.00    -0.366 N 
HETATM   29  H   UNL     1     -43.446  58.514 -60.761  1.00  0.00     0.159 HD
HETATM   30  H   UNL     1     -44.872  59.270 -61.388  1.00  0.00     0.159 HD
HETATM   31  O   UNL     1     -46.472  58.290 -59.806  1.00  0.00    -0.268 OA
ENDBRANCH  10  27
TORSDOF 4
ENDMDL
MODEL 10
REMARK VINA RESULT:      -6.8      2.343      6.501
REMARK  4 active torsions:
REMARK  status: ('A' for Active; 'I' for Inactive)
REMARK    1  A    between atoms: C_7  and  C_8 
REMARK    2  A    between atoms: C_10  and  O_11 
REMARK    3  A    between atoms: C_17  and  C_18 
REMARK    4  A    between atoms: C_25  and  C_26 
REMARK       I    between atoms: C_26  and  N_27 
ROOT
HETATM    1  C   UNL     1     -40.602  54.170 -51.517  1.00  0.00     0.070 C 
HETATM    2  C   UNL     1     -41.206  55.179 -52.463  1.00  0.00     0.037 A 
HETATM    3  N   UNL     1     -41.572  54.690 -53.712  1.00  0.00    -0.192 N 
HETATM    4  C   UNL     1     -42.102  55.457 -54.683  1.00  0.00     0.726 A 
HETATM    5  N   UNL     1     -42.310  56.785 -54.447  1.00  0.00    -0.083 N 
HETATM    6  N   UNL     1     -42.758  57.417 -55.549  1.00  0.00    -0.135 NA
HETATM    7  C   UNL     1     -42.904  56.387 -56.405  1.00  0.00     0.199 A 
HETATM    8  N   UNL     1     -42.478  55.169 -55.900  1.00  0.00    -0.041 NA
HETATM    9  C   UNL     1     -41.993  57.457 -53.181  1.00  0.00     0.202 A 
HETATM   10  C   UNL     1     -41.380  56.493 -52.174  1.00  0.00     0.062 A 
HETATM   11  H   UNL     1     -41.432  53.699 -53.892  1.00  0.00     0.184 HD
ENDROOT
BRANCH   7  12
HETATM   12  C   UNL     1     -43.464  56.522 -57.747  1.00  0.00     0.017 A 
HETATM   13  C   UNL     1     -44.274  57.622 -58.079  1.00  0.00     0.052 A 
HETATM   14  C   UNL     1     -44.829  57.739 -59.355  1.00  0.00     0.069 A 
HETATM   15  C   UNL     1     -44.567  56.753 -60.308  1.00  0.00     0.037 A 
HETATM   16  C   UNL     1     -43.765  55.656 -59.994  1.00  0.00     0.004 A 
HETATM   17  C   UNL     1     -43.217  55.540 -58.717  1.00  0.00     0.015 A 
BRANCH  14  18
HETATM   18  O   UNL     1     -45.634  58.756 -59.791  1.00  0.00    -0.356 OA
HETATM   19  C   UNL     1     -46.990  58.730 -59.361  1.00  0.00     0.210 C 
ENDBRANCH  14  18
ENDBRANCH   7  12
BRANCH   9  20
HETATM   20  C   UNL     1     -43.227  58.196 -52.668  1.00  0.00    -0.028 A 
HETATM   21  C   UNL     1     -43.301  59.602 -52.672  1.00  0.00     0.012 A 
HETATM   22  C   UNL     1     -44.435  60.253 -52.183  1.00  0.00     0.043 A 
HETATM   23  C   UNL     1     -45.493  59.506 -51.679  1.00  0.00     0.116 A 
HETATM   24  F   UNL     1     -46.578  60.132 -51.206  1.00  0.00    -0.206 F 
HETATM   25  C   UNL     1     -45.439  58.118 -51.653  1.00  0.00     0.043 A 
HETATM   26  C   UNL     1     -44.309  57.464 -52.144  1.00  0.00     0.012 A 
ENDBRANCH   9  20
BRANCH  10  27
HETATM   27  C   UNL     1     -41.066  57.023 -50.829  1.00  0.00     0.249 C 
HETATM   28  N   UNL     1     -41.748  56.462 -49.798  1.00  0.00    -0.366 N 
HETATM   29  H   UNL     1     -42.506  55.804 -49.895  1.00  0.00     0.159 HD
HETATM   30  H   UNL     1     -41.559  56.832 -48.874  1.00  0.00     0.159 HD
HETATM   31  O   UNL     1     -40.247  57.913 -50.645  1.00  0.00    -0.268 OA
ENDBRANCH  10  27
TORSDOF 4
ENDMDL
