MODEL 1
REMARK VINA RESULT:      -7.7      0.000      0.000
REMARK  9 active torsions:
REMARK  status: ('A' for Active; 'I' for Inactive)
REMARK    1  A    between atoms: C_2  and  O_3 
REMARK    2  A    between atoms: O_3  and  C_4 
REMARK    3  A    between atoms: C_4  and  C_5 
REMARK    4  A    between atoms: C_11  and  O_12 
REMARK    5  A    between atoms: C_13  and  C_14 
REMARK    6  A    between atoms: C_14  and  N_15 
REMARK    7  A    between atoms: N_22  and  C_23 
REMARK    8  A    between atoms: C_29  and  C_30 
REMARK    9  A    between atoms: C_30  and  N_31 
ROOT
HETATM    1  C   UNL     1     -42.757  56.155 -54.681  1.00  0.00     0.077 C 
HETATM    2  C   UNL     1     -42.516  57.237 -55.617  1.00  0.00     0.020 A 
HETATM    3  C   UNL     1     -42.226  58.367 -54.838  1.00  0.00     0.053 A 
HETATM    4  C   UNL     1     -41.975  59.628 -55.415  1.00  0.00     0.053 A 
HETATM    5  C   UNL     1     -42.093  59.768 -56.791  1.00  0.00     0.047 A 
HETATM    6 BR   UNL     1     -41.836  61.482 -57.556  1.00  0.00    -0.048 Br
HETATM    7  C   UNL     1     -42.367  58.665 -57.589  1.00  0.00     0.092 A 
HETATM    8  C   UNL     1     -42.514  57.360 -57.054  1.00  0.00     0.016 A 
HETATM    9  N   UNL     1     -42.155  57.971 -53.504  1.00  0.00    -0.312 N 
HETATM   10  C   UNL     1     -42.596  56.660 -53.383  1.00  0.00     0.060 C 
ENDROOT
BRANCH   8  11
HETATM   11  C   UNL     1     -42.723  56.182 -57.996  1.00  0.00     0.277 C 
BRANCH  11  12
HETATM   12  N   UNL     1     -43.812  56.337 -59.031  1.00  0.00    -0.063 N 
HETATM   13  H   UNL     1     -43.457  57.067 -59.675  1.00  0.00     0.280 HD
HETATM   14  C   UNL     1     -44.049  55.086 -59.861  1.00  0.00     0.261 C 
HETATM   15  C   UNL     1     -45.136  55.363 -60.904  1.00  0.00     0.195 C 
HETATM   16  O   UNL     1     -46.345  55.796 -60.272  1.00  0.00    -0.388 OA
HETATM   17  C   UNL     1     -46.156  57.016 -59.547  1.00  0.00     0.195 C 
HETATM   18  C   UNL     1     -45.116  56.838 -58.435  1.00  0.00     0.261 C 
ENDBRANCH  11  12
ENDBRANCH   8  11
BRANCH   7  19
HETATM   19  O   UNL     1     -42.483  58.824 -58.955  1.00  0.00    -0.359 OA
HETATM   20  H   UNL     1     -43.209  59.473 -59.105  1.00  0.00     0.218 HD
ENDBRANCH   7  19
BRANCH   1  21
HETATM   21  C   UNL     1     -43.166  54.784 -55.006  1.00  0.00     0.296 C 
HETATM   22  O   UNL     1     -44.294  54.366 -54.784  1.00  0.00    -0.259 OA
BRANCH  21  23
HETATM   23  O   UNL     1     -42.171  54.066 -55.593  1.00  0.00    -0.318 OA
BRANCH  23  24
HETATM   24  C   UNL     1     -40.847  54.267 -55.062  1.00  0.00     0.174 C 
HETATM   25  C   UNL     1     -40.239  52.938 -54.659  1.00  0.00     0.034 C 
ENDBRANCH  23  24
ENDBRANCH  21  23
ENDBRANCH   1  21
BRANCH  10  26
HETATM   26  C   UNL     1     -42.857  55.979 -52.063  1.00  0.00     0.293 C 
BRANCH  26  27
HETATM   27  N   UNL     1     -41.706  55.200 -51.462  1.00  0.00    -0.066 N 
HETATM   28  H   UNL     1     -40.883  55.337 -52.063  1.00  0.00     0.280 HD
HETATM   29  C   UNL     1     -41.325  55.650 -50.071  1.00  0.00     0.235 C 
HETATM   30  C   UNL     1     -40.078  54.900 -49.623  1.00  0.00     0.028 C 
HETATM   31  C   UNL     1     -40.272  53.389 -49.681  1.00  0.00     0.003 C 
HETATM   32  C   UNL     1     -40.742  52.948 -51.062  1.00  0.00     0.028 C 
HETATM   33  C   UNL     1     -41.983  53.708 -51.504  1.00  0.00     0.235 C 
ENDBRANCH  26  27
ENDBRANCH  10  26
BRANCH   9  34
HETATM   34  C   UNL     1     -41.766  58.805 -52.424  1.00  0.00     0.040 A 
HETATM   35  C   UNL     1     -42.710  59.637 -51.811  1.00  0.00     0.030 A 
HETATM   36  C   UNL     1     -42.340  60.389 -50.696  1.00  0.00     0.002 A 
HETATM   37  C   UNL     1     -41.037  60.314 -50.201  1.00  0.00     0.000 A 
HETATM   38  C   UNL     1     -40.096  59.493 -50.821  1.00  0.00     0.002 A 
HETATM   39  C   UNL     1     -40.455  58.733 -51.933  1.00  0.00     0.030 A 
ENDBRANCH   9  34
TORSDOF 9
ENDMDL
MODEL 2
REMARK VINA RESULT:      -7.5      2.883      7.471
REMARK  9 active torsions:
REMARK  status: ('A' for Active; 'I' for Inactive)
REMARK    1  A    between atoms: C_2  and  O_3 
REMARK    2  A    between atoms: O_3  and  C_4 
REMARK    3  A    between atoms: C_4  and  C_5 
REMARK    4  A    between atoms: C_11  and  O_12 
REMARK    5  A    between atoms: C_13  and  C_14 
REMARK    6  A    between atoms: C_14  and  N_15 
REMARK    7  A    between atoms: N_22  and  C_23 
REMARK    8  A    between atoms: C_29  and  C_30 
REMARK    9  A    between atoms: C_30  and  N_31 
ROOT
HETATM    1  C   UNL     1     -43.835  56.927 -54.842  1.00  0.00     0.077 C 
HETATM    2  C   UNL     1     -44.414  57.692 -53.754  1.00  0.00     0.020 A 
HETATM    3  C   UNL     1     -44.890  58.882 -54.326  1.00  0.00     0.053 A 
HETATM    4  C   UNL     1     -45.486  59.897 -53.551  1.00  0.00     0.053 A 
HETATM    5  C   UNL     1     -45.535  59.744 -52.173  1.00  0.00     0.047 A 
HETATM    6 BR   UNL     1     -46.264  61.145 -51.127  1.00  0.00    -0.048 Br
HETATM    7  C   UNL     1     -45.084  58.571 -51.579  1.00  0.00     0.092 A 
HETATM    8  C   UNL     1     -44.581  57.483 -52.337  1.00  0.00     0.016 A 
HETATM    9  N   UNL     1     -44.737  58.794 -55.708  1.00  0.00    -0.312 N 
HETATM   10  C   UNL     1     -43.988  57.668 -56.023  1.00  0.00     0.060 C 
ENDROOT
BRANCH   8  11
HETATM   11  C   UNL     1     -44.189  56.194 -51.629  1.00  0.00     0.277 C 
BRANCH  11  12
HETATM   12  N   UNL     1     -42.989  56.270 -50.715  1.00  0.00    -0.063 N 
HETATM   13  H   UNL     1     -43.321  56.807 -49.893  1.00  0.00     0.280 HD
HETATM   14  C   UNL     1     -42.521  54.916 -50.207  1.00  0.00     0.261 C 
HETATM   15  C   UNL     1     -41.333  55.110 -49.258  1.00  0.00     0.195 C 
HETATM   16  O   UNL     1     -40.269  55.806 -49.916  1.00  0.00    -0.388 OA
HETATM   17  C   UNL     1     -40.673  57.115 -50.335  1.00  0.00     0.195 C 
HETATM   18  C   UNL     1     -41.833  57.037 -51.334  1.00  0.00     0.261 C 
ENDBRANCH  11  12
ENDBRANCH   8  11
BRANCH   7  19
HETATM   19  O   UNL     1     -45.140  58.437 -50.207  1.00  0.00    -0.359 OA
HETATM   20  H   UNL     1     -44.442  59.025 -49.835  1.00  0.00     0.218 HD
ENDBRANCH   7  19
BRANCH   1  21
HETATM   21  C   UNL     1     -43.145  55.636 -54.742  1.00  0.00     0.296 C 
HETATM   22  O   UNL     1     -43.741  54.569 -54.790  1.00  0.00    -0.259 OA
BRANCH  21  23
HETATM   23  O   UNL     1     -41.798  55.771 -54.620  1.00  0.00    -0.318 OA
BRANCH  23  24
HETATM   24  C   UNL     1     -41.100  54.654 -54.036  1.00  0.00     0.174 C 
HETATM   25  C   UNL     1     -40.232  53.978 -55.080  1.00  0.00     0.034 C 
ENDBRANCH  23  24
ENDBRANCH  21  23
ENDBRANCH   1  21
BRANCH  10  26
HETATM   26  C   UNL     1     -43.449  57.375 -57.401  1.00  0.00     0.293 C 
BRANCH  26  27
HETATM   27  N   UNL     1     -44.314  56.516 -58.300  1.00  0.00    -0.066 N 
HETATM   28  H   UNL     1     -45.063  56.112 -57.724  1.00  0.00     0.280 HD
HETATM   29  C   UNL     1     -44.972  57.280 -59.424  1.00  0.00     0.235 C 
HETATM   30  C   UNL     1     -45.920  56.355 -60.175  1.00  0.00     0.028 C 
HETATM   31  C   UNL     1     -45.206  55.112 -60.695  1.00  0.00     0.003 C 
HETATM   32  C   UNL     1     -44.469  54.391 -59.573  1.00  0.00     0.028 C 
HETATM   33  C   UNL     1     -43.531  55.326 -58.824  1.00  0.00     0.235 C 
ENDBRANCH  26  27
ENDBRANCH  10  26
BRANCH   9  34
HETATM   34  C   UNL     1     -45.209  59.749 -56.645  1.00  0.00     0.040 A 
HETATM   35  C   UNL     1     -44.384  60.812 -57.032  1.00  0.00     0.030 A 
HETATM   36  C   UNL     1     -44.823  61.697 -58.017  1.00  0.00     0.002 A 
HETATM   37  C   UNL     1     -46.076  61.525 -58.605  1.00  0.00     0.000 A 
HETATM   38  C   UNL     1     -46.901  60.473 -58.209  1.00  0.00     0.002 A 
HETATM   39  C   UNL     1     -46.472  59.579 -57.229  1.00  0.00     0.030 A 
ENDBRANCH   9  34
TORSDOF 9
ENDMDL
MODEL 3
REMARK VINA RESULT:      -7.2      3.007      6.570
REMARK  9 active torsions:
REMARK  status: ('A' for Active; 'I' for Inactive)
REMARK    1  A    between atoms: C_2  and  O_3 
REMARK    2  A    between atoms: O_3  and  C_4 
REMARK    3  A    between atoms: C_4  and  C_5 
REMARK    4  A    between atoms: C_11  and  O_12 
REMARK    5  A    between atoms: C_13  and  C_14 
REMARK    6  A    between atoms: C_14  and  N_15 
REMARK    7  A    between atoms: N_22  and  C_23 
REMARK    8  A    between atoms: C_29  and  C_30 
REMARK    9  A    between atoms: C_30  and  N_31 
ROOT
HETATM    1  C   UNL     1     -43.358  58.218 -53.623  1.00  0.00     0.077 C 
HETATM    2  C   UNL     1     -43.300  59.567 -54.153  1.00  0.00     0.020 A 
HETATM    3  C   UNL     1     -43.465  59.447 -55.542  1.00  0.00     0.053 A 
HETATM    4  C   UNL     1     -43.422  60.565 -56.399  1.00  0.00     0.053 A 
HETATM    5  C   UNL     1     -43.135  61.810 -55.859  1.00  0.00     0.047 A 
HETATM    6 BR   UNL     1     -42.999  63.298 -57.024  1.00  0.00    -0.048 Br
HETATM    7  C   UNL     1     -42.980  61.963 -54.487  1.00  0.00     0.092 A 
HETATM    8  C   UNL     1     -43.127  60.881 -53.583  1.00  0.00     0.016 A 
HETATM    9  N   UNL     1     -43.747  58.114 -55.834  1.00  0.00    -0.312 N 
HETATM   10  C   UNL     1     -43.563  57.340 -54.697  1.00  0.00     0.060 C 
ENDROOT
BRANCH   8  11
HETATM   11  C   UNL     1     -43.033  61.137 -52.085  1.00  0.00     0.277 C 
BRANCH  11  12
HETATM   12  N   UNL     1     -44.313  60.989 -51.298  1.00  0.00    -0.063 N 
HETATM   13  H   UNL     1     -44.677  60.058 -51.565  1.00  0.00     0.280 HD
HETATM   14  C   UNL     1     -44.107  60.975 -49.792  1.00  0.00     0.261 C 
HETATM   15  C   UNL     1     -45.457  60.779 -49.094  1.00  0.00     0.195 C 
HETATM   16  O   UNL     1     -46.378  61.806 -49.476  1.00  0.00    -0.388 OA
HETATM   17  C   UNL     1     -46.641  61.785 -50.883  1.00  0.00     0.195 C 
HETATM   18  C   UNL     1     -45.357  62.024 -51.685  1.00  0.00     0.261 C 
ENDBRANCH  11  12
ENDBRANCH   8  11
BRANCH   7  19
HETATM   19  O   UNL     1     -42.693  63.209 -53.968  1.00  0.00    -0.359 OA
HETATM   20  H   UNL     1     -43.421  63.431 -53.342  1.00  0.00     0.218 HD
ENDBRANCH   7  19
BRANCH   1  21
HETATM   21  C   UNL     1     -43.169  57.812 -52.227  1.00  0.00     0.296 C 
HETATM   22  O   UNL     1     -44.076  57.846 -51.406  1.00  0.00    -0.259 OA
BRANCH  21  23
HETATM   23  O   UNL     1     -41.905  57.380 -51.973  1.00  0.00    -0.318 OA
BRANCH  23  24
HETATM   24  C   UNL     1     -41.291  57.887 -50.772  1.00  0.00     0.174 C 
HETATM   25  C   UNL     1     -40.217  58.898 -51.123  1.00  0.00     0.034 C 
ENDBRANCH  23  24
ENDBRANCH  21  23
ENDBRANCH   1  21
BRANCH  10  26
HETATM   26  C   UNL     1     -43.570  55.831 -54.696  1.00  0.00     0.293 C 
BRANCH  26  27
HETATM   27  N   UNL     1     -42.285  55.146 -54.281  1.00  0.00    -0.066 N 
HETATM   28  H   UNL     1     -41.652  55.864 -53.904  1.00  0.00     0.280 HD
HETATM   29  C   UNL     1     -42.469  54.100 -53.207  1.00  0.00     0.235 C 
HETATM   30  C   UNL     1     -41.106  53.581 -52.770  1.00  0.00     0.028 C 
HETATM   31  C   UNL     1     -40.306  53.031 -53.946  1.00  0.00     0.003 C 
HETATM   32  C   UNL     1     -40.197  54.058 -55.066  1.00  0.00     0.028 C 
HETATM   33  C   UNL     1     -41.563  54.577 -55.488  1.00  0.00     0.235 C 
ENDBRANCH  26  27
ENDBRANCH  10  26
BRANCH   9  34
HETATM   34  C   UNL     1     -44.093  57.614 -57.116  1.00  0.00     0.040 A 
HETATM   35  C   UNL     1     -45.380  57.829 -57.623  1.00  0.00     0.030 A 
HETATM   36  C   UNL     1     -45.685  57.409 -58.918  1.00  0.00     0.002 A 
HETATM   37  C   UNL     1     -44.716  56.775 -59.696  1.00  0.00     0.000 A 
HETATM   38  C   UNL     1     -43.438  56.552 -59.183  1.00  0.00     0.002 A 
HETATM   39  C   UNL     1     -43.120  56.971 -57.893  1.00  0.00     0.030 A 
ENDBRANCH   9  34
TORSDOF 9
ENDMDL
MODEL 4
REMARK VINA RESULT:      -7.1      2.821      5.597
REMARK  9 active torsions:
REMARK  status: ('A' for Active; 'I' for Inactive)
REMARK    1  A    between atoms: C_2  and  O_3 
REMARK    2  A    between atoms: O_3  and  C_4 
REMARK    3  A    between atoms: C_4  and  C_5 
REMARK    4  A    between atoms: C_11  and  O_12 
REMARK    5  A    between atoms: C_13  and  C_14 
REMARK    6  A    between atoms: C_14  and  N_15 
REMARK    7  A    between atoms: N_22  and  C_23 
REMARK    8  A    between atoms: C_29  and  C_30 
REMARK    9  A    between atoms: C_30  and  N_31 
ROOT
HETATM    1  C   UNL     1     -42.416  58.995 -56.063  1.00  0.00     0.077 C 
HETATM    2  C   UNL     1     -43.033  58.195 -57.104  1.00  0.00     0.020 A 
HETATM    3  C   UNL     1     -42.810  56.856 -56.749  1.00  0.00     0.053 A 
HETATM    4  C   UNL     1     -43.240  55.786 -57.560  1.00  0.00     0.053 A 
HETATM    5  C   UNL     1     -43.836  56.070 -58.780  1.00  0.00     0.047 A 
HETATM    6 BR   UNL     1     -44.339  54.631 -59.904  1.00  0.00    -0.048 Br
HETATM    7  C   UNL     1     -44.081  57.386 -59.153  1.00  0.00     0.092 A 
HETATM    8  C   UNL     1     -43.764  58.484 -58.314  1.00  0.00     0.016 A 
HETATM    9  N   UNL     1     -42.212  56.832 -55.491  1.00  0.00    -0.312 N 
HETATM   10  C   UNL     1     -41.856  58.121 -55.120  1.00  0.00     0.060 C 
ENDROOT
BRANCH   8  11
HETATM   11  C   UNL     1     -44.144  59.893 -58.746  1.00  0.00     0.277 C 
BRANCH  11  12
HETATM   12  N   UNL     1     -43.664  60.327 -60.111  1.00  0.00    -0.063 N 
HETATM   13  H   UNL     1     -44.005  59.590 -60.753  1.00  0.00     0.280 HD
HETATM   14  C   UNL     1     -44.263  61.643 -60.579  1.00  0.00     0.261 C 
HETATM   15  C   UNL     1     -43.747  61.968 -61.985  1.00  0.00     0.195 C 
HETATM   16  O   UNL     1     -42.317  62.022 -61.998  1.00  0.00    -0.388 OA
HETATM   17  C   UNL     1     -41.736  60.766 -61.631  1.00  0.00     0.195 C 
HETATM   18  C   UNL     1     -42.148  60.365 -60.211  1.00  0.00     0.261 C 
ENDBRANCH  11  12
ENDBRANCH   8  11
BRANCH   7  19
HETATM   19  O   UNL     1     -44.673  57.649 -60.372  1.00  0.00    -0.359 OA
HETATM   20  H   UNL     1     -45.640  57.500 -60.257  1.00  0.00     0.218 HD
ENDBRANCH   7  19
BRANCH   1  21
HETATM   21  C   UNL     1     -42.321  60.458 -56.017  1.00  0.00     0.296 C 
HETATM   22  O   UNL     1     -41.634  61.095 -56.803  1.00  0.00    -0.259 OA
BRANCH  21  23
HETATM   23  O   UNL     1     -43.090  61.002 -55.037  1.00  0.00    -0.318 OA
BRANCH  23  24
HETATM   24  C   UNL     1     -44.412  61.422 -55.428  1.00  0.00     0.174 C 
HETATM   25  C   UNL     1     -45.457  60.617 -54.680  1.00  0.00     0.034 C 
ENDBRANCH  23  24
ENDBRANCH  21  23
ENDBRANCH   1  21
BRANCH  10  26
HETATM   26  C   UNL     1     -40.999  58.446 -53.922  1.00  0.00     0.293 C 
BRANCH  26  27
HETATM   27  N   UNL     1     -41.644  59.274 -52.830  1.00  0.00    -0.066 N 
HETATM   28  H   UNL     1     -41.712  60.243 -53.168  1.00  0.00     0.280 HD
HETATM   29  C   UNL     1     -43.039  58.825 -52.466  1.00  0.00     0.235 C 
HETATM   30  C   UNL     1     -43.639  59.805 -51.467  1.00  0.00     0.028 C 
HETATM   31  C   UNL     1     -42.766  59.957 -50.227  1.00  0.00     0.003 C 
HETATM   32  C   UNL     1     -41.336  60.324 -50.602  1.00  0.00     0.028 C 
HETATM   33  C   UNL     1     -40.748  59.344 -51.607  1.00  0.00     0.235 C 
ENDBRANCH  26  27
ENDBRANCH  10  26
BRANCH   9  34
HETATM   34  C   UNL     1     -41.937  55.660 -54.739  1.00  0.00     0.040 A 
HETATM   35  C   UNL     1     -42.864  55.207 -53.793  1.00  0.00     0.030 A 
HETATM   36  C   UNL     1     -42.626  54.008 -53.120  1.00  0.00     0.002 A 
HETATM   37  C   UNL     1     -41.470  53.273 -53.385  1.00  0.00     0.000 A 
HETATM   38  C   UNL     1     -40.543  53.734 -54.319  1.00  0.00     0.002 A 
HETATM   39  C   UNL     1     -40.772  54.927 -55.001  1.00  0.00     0.030 A 
ENDBRANCH   9  34
TORSDOF 9
ENDMDL
MODEL 5
REMARK VINA RESULT:      -7.1      2.763      5.331
REMARK  9 active torsions:
REMARK  status: ('A' for Active; 'I' for Inactive)
REMARK    1  A    between atoms: C_2  and  O_3 
REMARK    2  A    between atoms: O_3  and  C_4 
REMARK    3  A    between atoms: C_4  and  C_5 
REMARK    4  A    between atoms: C_11  and  O_12 
REMARK    5  A    between atoms: C_13  and  C_14 
REMARK    6  A    between atoms: C_14  and  N_15 
REMARK    7  A    between atoms: N_22  and  C_23 
REMARK    8  A    between atoms: C_29  and  C_30 
REMARK    9  A    between atoms: C_30  and  N_31 
ROOT
HETATM    1  C   UNL     1     -42.967  58.461 -55.011  1.00  0.00     0.077 C 
HETATM    2  C   UNL     1     -43.445  57.999 -56.301  1.00  0.00     0.020 A 
HETATM    3  C   UNL     1     -42.924  56.707 -56.469  1.00  0.00     0.053 A 
HETATM    4  C   UNL     1     -43.151  55.957 -57.640  1.00  0.00     0.053 A 
HETATM    5  C   UNL     1     -43.848  56.545 -58.686  1.00  0.00     0.047 A 
HETATM    6 BR   UNL     1     -44.081  55.563 -60.290  1.00  0.00    -0.048 Br
HETATM    7  C   UNL     1     -44.386  57.818 -58.544  1.00  0.00     0.092 A 
HETATM    8  C   UNL     1     -44.274  58.558 -57.340  1.00  0.00     0.016 A 
HETATM    9  N   UNL     1     -42.278  56.340 -55.290  1.00  0.00    -0.312 N 
HETATM   10  C   UNL     1     -42.191  57.438 -54.446  1.00  0.00     0.060 C 
ENDROOT
BRANCH   8  11
HETATM   11  C   UNL     1     -44.966  59.910 -57.224  1.00  0.00     0.277 C 
BRANCH  11  12
HETATM   12  N   UNL     1     -44.541  60.967 -58.214  1.00  0.00    -0.063 N 
HETATM   13  H   UNL     1     -44.742  60.552 -59.141  1.00  0.00     0.280 HD
HETATM   14  C   UNL     1     -45.344  62.254 -58.116  1.00  0.00     0.261 C 
HETATM   15  C   UNL     1     -44.865  63.239 -59.187  1.00  0.00     0.195 C 
HETATM   16  O   UNL     1     -43.463  63.497 -59.046  1.00  0.00    -0.388 OA
HETATM   17  C   UNL     1     -42.687  62.305 -59.211  1.00  0.00     0.195 C 
HETATM   18  C   UNL     1     -43.052  61.261 -58.150  1.00  0.00     0.261 C 
ENDBRANCH  11  12
ENDBRANCH   8  11
BRANCH   7  19
HETATM   19  O   UNL     1     -45.075  58.387 -59.596  1.00  0.00    -0.359 OA
HETATM   20  H   UNL     1     -44.936  57.802 -60.377  1.00  0.00     0.218 HD
ENDBRANCH   7  19
BRANCH   1  21
HETATM   21  C   UNL     1     -43.186  59.782 -54.412  1.00  0.00     0.296 C 
HETATM   22  O   UNL     1     -42.486  60.748 -54.683  1.00  0.00    -0.259 OA
BRANCH  21  23
HETATM   23  O   UNL     1     -44.248  59.803 -53.564  1.00  0.00    -0.318 OA
BRANCH  23  24
HETATM   24  C   UNL     1     -43.993  60.311 -52.240  1.00  0.00     0.174 C 
HETATM   25  C   UNL     1     -45.013  59.759 -51.264  1.00  0.00     0.034 C 
ENDBRANCH  23  24
ENDBRANCH  21  23
ENDBRANCH   1  21
BRANCH  10  26
HETATM   26  C   UNL     1     -41.371  57.464 -53.180  1.00  0.00     0.293 C 
BRANCH  26  27
HETATM   27  N   UNL     1     -41.990  56.821 -51.956  1.00  0.00    -0.066 N 
HETATM   28  H   UNL     1     -41.875  57.470 -51.167  1.00  0.00     0.280 HD
HETATM   29  C   UNL     1     -43.467  56.539 -52.096  1.00  0.00     0.235 C 
HETATM   30  C   UNL     1     -44.010  56.027 -50.768  1.00  0.00     0.028 C 
HETATM   31  C   UNL     1     -43.255  54.794 -50.285  1.00  0.00     0.003 C 
HETATM   32  C   UNL     1     -41.754  55.054 -50.229  1.00  0.00     0.028 C 
HETATM   33  C   UNL     1     -41.224  55.573 -51.557  1.00  0.00     0.235 C 
ENDBRANCH  26  27
ENDBRANCH  10  26
BRANCH   9  34
HETATM   34  C   UNL     1     -41.726  55.060 -55.025  1.00  0.00     0.040 A 
HETATM   35  C   UNL     1     -40.348  54.854 -55.160  1.00  0.00     0.030 A 
HETATM   36  C   UNL     1     -39.802  53.618 -54.815  1.00  0.00     0.002 A 
HETATM   37  C   UNL     1     -40.626  52.595 -54.346  1.00  0.00     0.000 A 
HETATM   38  C   UNL     1     -42.000  52.799 -54.223  1.00  0.00     0.002 A 
HETATM   39  C   UNL     1     -42.557  54.032 -54.560  1.00  0.00     0.030 A 
ENDBRANCH   9  34
TORSDOF 9
ENDMDL
MODEL 6
REMARK VINA RESULT:      -7.0      1.303      1.953
REMARK  9 active torsions:
REMARK  status: ('A' for Active; 'I' for Inactive)
REMARK    1  A    between atoms: C_2  and  O_3 
REMARK    2  A    between atoms: O_3  and  C_4 
REMARK    3  A    between atoms: C_4  and  C_5 
REMARK    4  A    between atoms: C_11  and  O_12 
REMARK    5  A    between atoms: C_13  and  C_14 
REMARK    6  A    between atoms: C_14  and  N_15 
REMARK    7  A    between atoms: N_22  and  C_23 
REMARK    8  A    between atoms: C_29  and  C_30 
REMARK    9  A    between atoms: C_30  and  N_31 
ROOT
HETATM    1  C   UNL     1     -42.922  57.316 -54.808  1.00  0.00     0.077 C 
HETATM    2  C   UNL     1     -42.837  58.577 -55.520  1.00  0.00     0.020 A 
HETATM    3  C   UNL     1     -43.112  59.577 -54.574  1.00  0.00     0.053 A 
HETATM    4  C   UNL     1     -43.157  60.942 -54.922  1.00  0.00     0.053 A 
HETATM    5  C   UNL     1     -42.999  61.298 -56.253  1.00  0.00     0.047 A 
HETATM    6 BR   UNL     1     -43.142  63.126 -56.729  1.00  0.00    -0.048 Br
HETATM    7  C   UNL     1     -42.713  60.332 -57.210  1.00  0.00     0.092 A 
HETATM    8  C   UNL     1     -42.549  58.963 -56.880  1.00  0.00     0.016 A 
HETATM    9  N   UNL     1     -43.222  58.975 -53.323  1.00  0.00    -0.312 N 
HETATM   10  C   UNL     1     -43.231  57.595 -53.469  1.00  0.00     0.060 C 
ENDROOT
BRANCH   8  11
HETATM   11  C   UNL     1     -42.148  57.973 -57.964  1.00  0.00     0.277 C 
BRANCH  11  12
HETATM   12  N   UNL     1     -43.244  57.081 -58.496  1.00  0.00    -0.063 N 
HETATM   13  H   UNL     1     -43.573  56.551 -57.670  1.00  0.00     0.280 HD
HETATM   14  C   UNL     1     -44.439  57.842 -59.046  1.00  0.00     0.261 C 
HETATM   15  C   UNL     1     -45.505  56.848 -59.517  1.00  0.00     0.195 C 
HETATM   16  O   UNL     1     -44.968  55.959 -60.501  1.00  0.00    -0.388 OA
HETATM   17  C   UNL     1     -43.888  55.179 -59.976  1.00  0.00     0.195 C 
HETATM   18  C   UNL     1     -42.734  56.078 -59.517  1.00  0.00     0.261 C 
ENDBRANCH  11  12
ENDBRANCH   8  11
BRANCH   7  19
HETATM   19  O   UNL     1     -42.561  60.705 -58.530  1.00  0.00    -0.359 OA
HETATM   20  H   UNL     1     -42.399  59.879 -59.042  1.00  0.00     0.218 HD
ENDBRANCH   7  19
BRANCH   1  21
HETATM   21  C   UNL     1     -42.781  55.972 -55.378  1.00  0.00     0.296 C 
HETATM   22  O   UNL     1     -43.636  55.472 -56.096  1.00  0.00    -0.259 OA
BRANCH  21  23
HETATM   23  O   UNL     1     -41.605  55.381 -55.040  1.00  0.00    -0.318 OA
BRANCH  23  24
HETATM   24  C   UNL     1     -41.624  53.943 -54.940  1.00  0.00     0.174 C 
HETATM   25  C   UNL     1     -40.222  53.419 -54.695  1.00  0.00     0.034 C 
ENDBRANCH  23  24
ENDBRANCH  21  23
ENDBRANCH   1  21
BRANCH  10  26
HETATM   26  C   UNL     1     -43.551  56.632 -52.353  1.00  0.00     0.293 C 
BRANCH  26  27
HETATM   27  N   UNL     1     -42.392  55.836 -51.790  1.00  0.00    -0.066 N 
HETATM   28  H   UNL     1     -41.651  55.811 -52.502  1.00  0.00     0.280 HD
HETATM   29  C   UNL     1     -41.794  56.431 -50.537  1.00  0.00     0.235 C 
HETATM   30  C   UNL     1     -40.558  55.633 -50.141  1.00  0.00     0.028 C 
HETATM   31  C   UNL     1     -40.874  54.154 -49.954  1.00  0.00     0.003 C 
HETATM   32  C   UNL     1     -41.558  53.577 -51.187  1.00  0.00     0.028 C 
HETATM   33  C   UNL     1     -42.786  54.385 -51.579  1.00  0.00     0.235 C 
ENDBRANCH  26  27
ENDBRANCH  10  26
BRANCH   9  34
HETATM   34  C   UNL     1     -43.378  59.667 -52.094  1.00  0.00     0.040 A 
HETATM   35  C   UNL     1     -42.249  60.080 -51.378  1.00  0.00     0.030 A 
HETATM   36  C   UNL     1     -42.411  60.834 -50.216  1.00  0.00     0.002 A 
HETATM   37  C   UNL     1     -43.691  61.167 -49.770  1.00  0.00     0.000 A 
HETATM   38  C   UNL     1     -44.815  60.744 -50.479  1.00  0.00     0.002 A 
HETATM   39  C   UNL     1     -44.665  59.994 -51.644  1.00  0.00     0.030 A 
ENDBRANCH   9  34
TORSDOF 9
ENDMDL
MODEL 7
REMARK VINA RESULT:      -7.0      2.858      4.900
REMARK  9 active torsions:
REMARK  status: ('A' for Active; 'I' for Inactive)
REMARK    1  A    between atoms: C_2  and  O_3 
REMARK    2  A    between atoms: O_3  and  C_4 
REMARK    3  A    between atoms: C_4  and  C_5 
REMARK    4  A    between atoms: C_11  and  O_12 
REMARK    5  A    between atoms: C_13  and  C_14 
REMARK    6  A    between atoms: C_14  and  N_15 
REMARK    7  A    between atoms: N_22  and  C_23 
REMARK    8  A    between atoms: C_29  and  C_30 
REMARK    9  A    between atoms: C_30  and  N_31 
ROOT
HETATM    1  C   UNL     1     -44.306  57.958 -54.520  1.00  0.00     0.077 C 
HETATM    2  C   UNL     1     -44.382  59.102 -53.632  1.00  0.00     0.020 A 
HETATM    3  C   UNL     1     -43.925  58.656 -52.382  1.00  0.00     0.053 A 
HETATM    4  C   UNL     1     -43.897  59.499 -51.253  1.00  0.00     0.053 A 
HETATM    5  C   UNL     1     -44.406  60.785 -51.366  1.00  0.00     0.047 A 
HETATM    6 BR   UNL     1     -44.441  61.888 -49.826  1.00  0.00    -0.048 Br
HETATM    7  C   UNL     1     -44.852  61.259 -52.594  1.00  0.00     0.092 A 
HETATM    8  C   UNL     1     -44.792  60.478 -53.775  1.00  0.00     0.016 A 
HETATM    9  N   UNL     1     -43.465  57.350 -52.527  1.00  0.00    -0.312 N 
HETATM   10  C   UNL     1     -43.803  56.874 -53.786  1.00  0.00     0.060 C 
ENDROOT
BRANCH   8  11
HETATM   11  C   UNL     1     -45.214  61.092 -55.103  1.00  0.00     0.277 C 
BRANCH  11  12
HETATM   12  N   UNL     1     -44.299  60.843 -56.278  1.00  0.00    -0.063 N 
HETATM   13  H   UNL     1     -44.206  59.812 -56.321  1.00  0.00     0.280 HD
HETATM   14  C   UNL     1     -44.874  61.298 -57.608  1.00  0.00     0.261 C 
HETATM   15  C   UNL     1     -43.890  60.961 -58.733  1.00  0.00     0.195 C 
HETATM   16  O   UNL     1     -42.617  61.569 -58.490  1.00  0.00    -0.388 OA
HETATM   17  C   UNL     1     -42.026  61.094 -57.275  1.00  0.00     0.195 C 
HETATM   18  C   UNL     1     -42.911  61.425 -56.069  1.00  0.00     0.261 C 
ENDBRANCH  11  12
ENDBRANCH   8  11
BRANCH   7  19
HETATM   19  O   UNL     1     -45.356  62.541 -52.686  1.00  0.00    -0.359 OA
HETATM   20  H   UNL     1     -45.372  62.771 -53.644  1.00  0.00     0.218 HD
ENDBRANCH   7  19
BRANCH   1  21
HETATM   21  C   UNL     1     -44.737  57.899 -55.920  1.00  0.00     0.296 C 
HETATM   22  O   UNL     1     -45.913  57.969 -56.247  1.00  0.00    -0.259 OA
BRANCH  21  23
HETATM   23  O   UNL     1     -43.693  57.789 -56.785  1.00  0.00    -0.318 OA
BRANCH  23  24
HETATM   24  C   UNL     1     -44.010  57.294 -58.101  1.00  0.00     0.174 C 
HETATM   25  C   UNL     1     -43.308  55.972 -58.343  1.00  0.00     0.034 C 
ENDBRANCH  23  24
ENDBRANCH  21  23
ENDBRANCH   1  21
BRANCH  10  26
HETATM   26  C   UNL     1     -43.653  55.433 -54.209  1.00  0.00     0.293 C 
BRANCH  26  27
HETATM   27  N   UNL     1     -42.270  54.829 -54.085  1.00  0.00    -0.066 N 
HETATM   28  H   UNL     1     -41.671  55.509 -53.599  1.00  0.00     0.280 HD
HETATM   29  C   UNL     1     -42.233  53.547 -53.287  1.00  0.00     0.235 C 
HETATM   30  C   UNL     1     -40.786  53.107 -53.108  1.00  0.00     0.028 C 
HETATM   31  C   UNL     1     -40.073  52.946 -54.446  1.00  0.00     0.003 C 
HETATM   32  C   UNL     1     -40.187  54.212 -55.286  1.00  0.00     0.028 C 
HETATM   33  C   UNL     1     -41.635  54.649 -55.452  1.00  0.00     0.235 C 
ENDBRANCH  26  27
ENDBRANCH  10  26
BRANCH   9  34
HETATM   34  C   UNL     1     -42.818  56.594 -51.514  1.00  0.00     0.040 A 
HETATM   35  C   UNL     1     -43.543  55.652 -50.777  1.00  0.00     0.030 A 
HETATM   36  C   UNL     1     -42.881  54.854 -49.844  1.00  0.00     0.002 A 
HETATM   37  C   UNL     1     -41.508  55.000 -49.646  1.00  0.00     0.000 A 
HETATM   38  C   UNL     1     -40.789  55.949 -50.374  1.00  0.00     0.002 A 
HETATM   39  C   UNL     1     -41.439  56.748 -51.312  1.00  0.00     0.030 A 
ENDBRANCH   9  34
TORSDOF 9
ENDMDL
MODEL 8
REMARK VINA RESULT:      -6.8      2.841      5.561
REMARK  9 active torsions:
REMARK  status: ('A' for Active; 'I' for Inactive)
REMARK    1  A    between atoms: C_2  and  O_3 
REMARK    2  A    between atoms: O_3  and  C_4 
REMARK    3  A    between atoms: C_4  and  C_5 
REMARK    4  A    between atoms: C_11  and  O_12 
REMARK    5  A    between atoms: C_13  and  C_14 
REMARK    6  A    between atoms: C_14  and  N_15 
REMARK    7  A    between atoms: N_22  and  C_23 
REMARK    8  A    between atoms: C_29  and  C_30 
REMARK    9  A    between atoms: C_30  and  N_31 
ROOT
HETATM    1  C   UNL     1     -42.616  58.667 -56.045  1.00  0.00     0.077 C 
HETATM    2  C   UNL     1     -43.212  57.924 -57.139  1.00  0.00     0.020 A 
HETATM    3  C   UNL     1     -42.904  56.575 -56.907  1.00  0.00     0.053 A 
HETATM    4  C   UNL     1     -43.292  55.556 -57.799  1.00  0.00     0.053 A 
HETATM    5  C   UNL     1     -43.933  55.908 -58.978  1.00  0.00     0.047 A 
HETATM    6 BR   UNL     1     -44.381  54.543 -60.213  1.00  0.00    -0.048 Br
HETATM    7  C   UNL     1     -44.263  57.234 -59.230  1.00  0.00     0.092 A 
HETATM    8  C   UNL     1     -43.988  58.272 -58.304  1.00  0.00     0.016 A 
HETATM    9  N   UNL     1     -42.273  56.479 -55.668  1.00  0.00    -0.312 N 
HETATM   10  C   UNL     1     -41.983  57.751 -55.193  1.00  0.00     0.060 C 
ENDROOT
BRANCH   8  11
HETATM   11  C   UNL     1     -44.458  59.689 -58.604  1.00  0.00     0.277 C 
BRANCH  11  12
HETATM   12  N   UNL     1     -45.935  59.863 -58.868  1.00  0.00    -0.063 N 
HETATM   13  H   UNL     1     -46.255  58.931 -59.185  1.00  0.00     0.280 HD
HETATM   14  C   UNL     1     -46.740  60.217 -57.629  1.00  0.00     0.261 C 
HETATM   15  C   UNL     1     -48.223  60.327 -57.997  1.00  0.00     0.195 C 
HETATM   16  O   UNL     1     -48.417  61.301 -59.029  1.00  0.00    -0.388 OA
HETATM   17  C   UNL     1     -47.724  60.944 -60.230  1.00  0.00     0.195 C 
HETATM   18  C   UNL     1     -46.214  60.854 -59.987  1.00  0.00     0.261 C 
ENDBRANCH  11  12
ENDBRANCH   8  11
BRANCH   7  19
HETATM   19  O   UNL     1     -44.899  57.566 -60.409  1.00  0.00    -0.359 OA
HETATM   20  H   UNL     1     -45.368  56.755 -60.716  1.00  0.00     0.218 HD
ENDBRANCH   7  19
BRANCH   1  21
HETATM   21  C   UNL     1     -42.603  60.124 -55.873  1.00  0.00     0.296 C 
HETATM   22  O   UNL     1     -41.720  60.831 -56.339  1.00  0.00    -0.259 OA
BRANCH  21  23
HETATM   23  O   UNL     1     -43.678  60.578 -55.176  1.00  0.00    -0.318 OA
BRANCH  23  24
HETATM   24  C   UNL     1     -43.870  62.006 -55.167  1.00  0.00     0.174 C 
HETATM   25  C   UNL     1     -43.822  62.530 -53.744  1.00  0.00     0.034 C 
ENDBRANCH  23  24
ENDBRANCH  21  23
ENDBRANCH   1  21
BRANCH  10  26
HETATM   26  C   UNL     1     -41.116  58.022 -53.988  1.00  0.00     0.293 C 
BRANCH  26  27
HETATM   27  N   UNL     1     -41.829  58.436 -52.718  1.00  0.00    -0.066 N 
HETATM   28  H   UNL     1     -41.460  57.863 -51.948  1.00  0.00     0.280 HD
HETATM   29  C   UNL     1     -41.619  59.884 -52.344  1.00  0.00     0.235 C 
HETATM   30  C   UNL     1     -42.259  60.152 -50.989  1.00  0.00     0.028 C 
HETATM   31  C   UNL     1     -43.740  59.789 -50.980  1.00  0.00     0.003 C 
HETATM   32  C   UNL     1     -43.957  58.354 -51.443  1.00  0.00     0.028 C 
HETATM   33  C   UNL     1     -43.306  58.093 -52.793  1.00  0.00     0.235 C 
ENDBRANCH  26  27
ENDBRANCH  10  26
BRANCH   9  34
HETATM   34  C   UNL     1     -41.914  55.265 -55.026  1.00  0.00     0.040 A 
HETATM   35  C   UNL     1     -40.716  54.626 -55.366  1.00  0.00     0.030 A 
HETATM   36  C   UNL     1     -40.329  53.481 -54.670  1.00  0.00     0.002 A 
HETATM   37  C   UNL     1     -41.134  52.976 -53.648  1.00  0.00     0.000 A 
HETATM   38  C   UNL     1     -42.333  53.608 -53.320  1.00  0.00     0.002 A 
HETATM   39  C   UNL     1     -42.728  54.756 -54.005  1.00  0.00     0.030 A 
ENDBRANCH   9  34
TORSDOF 9
ENDMDL
MODEL 9
REMARK VINA RESULT:      -6.8      3.624      6.647
REMARK  9 active torsions:
REMARK  status: ('A' for Active; 'I' for Inactive)
REMARK    1  A    between atoms: C_2  and  O_3 
REMARK    2  A    between atoms: O_3  and  C_4 
REMARK    3  A    between atoms: C_4  and  C_5 
REMARK    4  A    between atoms: C_11  and  O_12 
REMARK    5  A    between atoms: C_13  and  C_14 
REMARK    6  A    between atoms: C_14  and  N_15 
REMARK    7  A    between atoms: N_22  and  C_23 
REMARK    8  A    between atoms: C_29  and  C_30 
REMARK    9  A    between atoms: C_30  and  N_31 
ROOT
HETATM    1  C   UNL     1     -44.533  58.658 -52.032  1.00  0.00     0.077 C 
HETATM    2  C   UNL     1     -44.200  59.440 -53.207  1.00  0.00     0.020 A 
HETATM    3  C   UNL     1     -43.347  58.638 -53.979  1.00  0.00     0.053 A 
HETATM    4  C   UNL     1     -42.785  59.094 -55.189  1.00  0.00     0.053 A 
HETATM    5  C   UNL     1     -43.026  60.401 -55.587  1.00  0.00     0.047 A 
HETATM    6 BR   UNL     1     -42.204  61.036 -57.171  1.00  0.00    -0.048 Br
HETATM    7  C   UNL     1     -43.877  61.215 -54.849  1.00  0.00     0.092 A 
HETATM    8  C   UNL     1     -44.548  60.755 -53.688  1.00  0.00     0.016 A 
HETATM    9  N   UNL     1     -43.270  57.381 -53.382  1.00  0.00    -0.312 N 
HETATM   10  C   UNL     1     -43.884  57.419 -52.138  1.00  0.00     0.060 C 
ENDROOT
BRANCH   8  11
HETATM   11  C   UNL     1     -45.536  61.671 -52.980  1.00  0.00     0.277 C 
BRANCH  11  12
HETATM   12  N   UNL     1     -45.001  62.454 -51.805  1.00  0.00    -0.063 N 
HETATM   13  H   UNL     1     -45.082  61.806 -51.002  1.00  0.00     0.280 HD
HETATM   14  C   UNL     1     -43.532  62.824 -51.935  1.00  0.00     0.261 C 
HETATM   15  C   UNL     1     -43.081  63.574 -50.678  1.00  0.00     0.195 C 
HETATM   16  O   UNL     1     -43.886  64.739 -50.467  1.00  0.00    -0.388 OA
HETATM   17  C   UNL     1     -45.264  64.401 -50.267  1.00  0.00     0.195 C 
HETATM   18  C   UNL     1     -45.836  63.685 -51.496  1.00  0.00     0.261 C 
ENDBRANCH  11  12
ENDBRANCH   8  11
BRANCH   7  19
HETATM   19  O   UNL     1     -44.103  62.513 -55.259  1.00  0.00    -0.359 OA
HETATM   20  H   UNL     1     -44.764  62.470 -55.989  1.00  0.00     0.218 HD
ENDBRANCH   7  19
BRANCH   1  21
HETATM   21  C   UNL     1     -45.345  59.087 -50.888  1.00  0.00     0.296 C 
HETATM   22  O   UNL     1     -46.454  58.625 -50.661  1.00  0.00    -0.259 OA
BRANCH  21  23
HETATM   23  O   UNL     1     -44.716  60.016 -50.119  1.00  0.00    -0.318 OA
BRANCH  23  24
HETATM   24  C   UNL     1     -45.500  60.595 -49.058  1.00  0.00     0.174 C 
HETATM   25  C   UNL     1     -44.608  61.394 -48.127  1.00  0.00     0.034 C 
ENDBRANCH  23  24
ENDBRANCH  21  23
ENDBRANCH   1  21
BRANCH  10  26
HETATM   26  C   UNL     1     -43.803  56.304 -51.125  1.00  0.00     0.293 C 
BRANCH  26  27
HETATM   27  N   UNL     1     -42.489  55.556 -51.042  1.00  0.00    -0.066 N 
HETATM   28  H   UNL     1     -41.963  55.745 -51.906  1.00  0.00     0.280 HD
HETATM   29  C   UNL     1     -41.618  55.980 -49.883  1.00  0.00     0.235 C 
HETATM   30  C   UNL     1     -40.274  55.270 -49.977  1.00  0.00     0.028 C 
HETATM   31  C   UNL     1     -40.435  53.755 -50.023  1.00  0.00     0.003 C 
HETATM   32  C   UNL     1     -41.384  53.335 -51.138  1.00  0.00     0.028 C 
HETATM   33  C   UNL     1     -42.720  54.056 -51.040  1.00  0.00     0.235 C 
ENDBRANCH  26  27
ENDBRANCH  10  26
BRANCH   9  34
HETATM   34  C   UNL     1     -42.599  56.257 -53.928  1.00  0.00     0.040 A 
HETATM   35  C   UNL     1     -41.204  56.168 -53.843  1.00  0.00     0.030 A 
HETATM   36  C   UNL     1     -40.561  55.020 -54.305  1.00  0.00     0.002 A 
HETATM   37  C   UNL     1     -41.303  53.973 -54.853  1.00  0.00     0.000 A 
HETATM   38  C   UNL     1     -42.691  54.070 -54.948  1.00  0.00     0.002 A 
HETATM   39  C   UNL     1     -43.346  55.210 -54.485  1.00  0.00     0.030 A 
ENDBRANCH   9  34
TORSDOF 9
ENDMDL
MODEL 10
REMARK VINA RESULT:      -6.7      3.156      6.549
REMARK  9 active torsions:
REMARK  status: ('A' for Active; 'I' for Inactive)
REMARK    1  A    between atoms: C_2  and  O_3 
REMARK    2  A    between atoms: O_3  and  C_4 
REMARK    3  A    between atoms: C_4  and  C_5 
REMARK    4  A    between atoms: C_11  and  O_12 
REMARK    5  A    between atoms: C_13  and  C_14 
REMARK    6  A    between atoms: C_14  and  N_15 
REMARK    7  A    between atoms: N_22  and  C_23 
REMARK    8  A    between atoms: C_29  and  C_30 
REMARK    9  A    between atoms: C_30  and  N_31 
ROOT
HETATM    1  C   UNL     1     -43.617  58.278 -54.438  1.00  0.00     0.077 C 
HETATM    2  C   UNL     1     -43.499  59.552 -55.121  1.00  0.00     0.020 A 
HETATM    3  C   UNL     1     -43.455  59.255 -56.492  1.00  0.00     0.053 A 
HETATM    4  C   UNL     1     -43.301  60.259 -57.469  1.00  0.00     0.053 A 
HETATM    5  C   UNL     1     -43.114  61.570 -57.056  1.00  0.00     0.047 A 
HETATM    6 BR   UNL     1     -42.826  62.906 -58.369  1.00  0.00    -0.048 Br
HETATM    7  C   UNL     1     -43.166  61.897 -55.706  1.00  0.00     0.092 A 
HETATM    8  C   UNL     1     -43.431  60.931 -54.703  1.00  0.00     0.016 A 
HETATM    9  N   UNL     1     -43.672  57.888 -56.650  1.00  0.00    -0.312 N 
HETATM   10  C   UNL     1     -43.649  57.267 -55.409  1.00  0.00     0.060 C 
ENDROOT
BRANCH   8  11
HETATM   11  C   UNL     1     -43.563  61.373 -53.252  1.00  0.00     0.277 C 
BRANCH  11  12
HETATM   12  N   UNL     1     -44.807  62.154 -52.901  1.00  0.00    -0.063 N 
HETATM   13  H   UNL     1     -44.769  62.992 -53.508  1.00  0.00     0.280 HD
HETATM   14  C   UNL     1     -46.100  61.424 -53.226  1.00  0.00     0.261 C 
HETATM   15  C   UNL     1     -47.294  62.317 -52.873  1.00  0.00     0.195 C 
HETATM   16  O   UNL     1     -47.252  62.695 -51.493  1.00  0.00    -0.388 OA
HETATM   17  C   UNL     1     -46.074  63.450 -51.186  1.00  0.00     0.195 C 
HETATM   18  C   UNL     1     -44.809  62.627 -51.457  1.00  0.00     0.261 C 
ENDBRANCH  11  12
ENDBRANCH   8  11
BRANCH   7  19
HETATM   19  O   UNL     1     -42.976  63.206 -55.314  1.00  0.00    -0.359 OA
HETATM   20  H   UNL     1     -43.659  63.400 -54.630  1.00  0.00     0.218 HD
ENDBRANCH   7  19
BRANCH   1  21
HETATM   21  C   UNL     1     -43.632  58.054 -52.988  1.00  0.00     0.296 C 
HETATM   22  O   UNL     1     -42.614  57.829 -52.349  1.00  0.00    -0.259 OA
BRANCH  21  23
HETATM   23  O   UNL     1     -44.879  58.152 -52.456  1.00  0.00    -0.318 OA
BRANCH  23  24
HETATM   24  C   UNL     1     -44.973  57.992 -51.027  1.00  0.00     0.174 C 
HETATM   25  C   UNL     1     -45.573  59.236 -50.401  1.00  0.00     0.034 C 
ENDBRANCH  23  24
ENDBRANCH  21  23
ENDBRANCH   1  21
BRANCH  10  26
HETATM   26  C   UNL     1     -43.635  55.770 -55.217  1.00  0.00     0.293 C 
BRANCH  26  27
HETATM   27  N   UNL     1     -42.414  55.183 -54.541  1.00  0.00    -0.066 N 
HETATM   28  H   UNL     1     -41.842  55.963 -54.191  1.00  0.00     0.280 HD
HETATM   29  C   UNL     1     -42.735  54.296 -53.362  1.00  0.00     0.235 C 
HETATM   30  C   UNL     1     -41.440  53.877 -52.679  1.00  0.00     0.028 C 
HETATM   31  C   UNL     1     -40.486  53.186 -53.647  1.00  0.00     0.003 C 
HETATM   32  C   UNL     1     -40.232  54.047 -54.878  1.00  0.00     0.028 C 
HETATM   33  C   UNL     1     -41.532  54.468 -55.548  1.00  0.00     0.235 C 
ENDBRANCH  26  27
ENDBRANCH  10  26
BRANCH   9  34
HETATM   34  C   UNL     1     -43.817  57.222 -57.895  1.00  0.00     0.040 A 
HETATM   35  C   UNL     1     -45.034  57.290 -58.584  1.00  0.00     0.030 A 
HETATM   36  C   UNL     1     -45.141  56.706 -59.845  1.00  0.00     0.002 A 
HETATM   37  C   UNL     1     -44.045  56.053 -60.411  1.00  0.00     0.000 A 
HETATM   38  C   UNL     1     -42.838  55.976 -59.717  1.00  0.00     0.002 A 
HETATM   39  C   UNL     1     -42.717  56.561 -58.457  1.00  0.00     0.030 A 
ENDBRANCH   9  34
TORSDOF 9
ENDMDL
