MODEL 1
REMARK VINA RESULT:      -8.1      0.000      0.000
REMARK  5 active torsions:
REMARK  status: ('A' for Active; 'I' for Inactive)
REMARK    1  A    between atoms: N_3  and  C_4 
REMARK    2  A    between atoms: C_7  and  C_8 
REMARK       I    between atoms: C_8  and  N_9 
REMARK    3  A    between atoms: N_9  and  C_10 
REMARK    4  A    between atoms: C_11  and  N_12 
REMARK    5  A    between atoms: C_15  and  O_16 
ROOT
HETATM    1  C   UNL     1     -42.733  55.740 -57.184  1.00  0.00     0.256 C 
HETATM    2  N   UNL     1     -42.115  56.949 -57.385  1.00  0.00    -0.321 N 
HETATM    3  O   UNL     1     -43.604  55.203 -57.852  1.00  0.00    -0.267 OA
HETATM    4  H   UNL     1     -41.389  57.248 -56.738  1.00  0.00     0.169 HD
ENDROOT
BRANCH   2   5
HETATM    5  C   UNL     1     -42.311  57.877 -58.428  1.00  0.00     0.056 A 
HETATM    6  C   UNL     1     -43.020  59.057 -58.078  1.00  0.00     0.037 A 
HETATM    7  C   UNL     1     -43.215  60.036 -59.062  1.00  0.00     0.026 A 
HETATM    8  C   UNL     1     -42.724  59.852 -60.358  1.00  0.00     0.002 A 
HETATM    9  C   UNL     1     -42.037  58.686 -60.688  1.00  0.00     0.002 A 
HETATM   10  C   UNL     1     -41.831  57.696 -59.725  1.00  0.00     0.031 A 
BRANCH   6  11
HETATM   11  N   UNL     1     -43.532  59.172 -56.752  1.00  0.00    -0.281 NA
HETATM   12  C   UNL     1     -44.897  58.613 -56.678  1.00  0.00     0.098 C 
HETATM   13  C   UNL     1     -45.278  58.455 -55.205  1.00  0.00     0.046 C 
HETATM   14  C   UNL     1     -45.147  59.777 -54.449  1.00  0.00     0.120 C 
HETATM   15  C   UNL     1     -43.784  60.428 -54.676  1.00  0.00     0.046 C 
HETATM   16  C   UNL     1     -43.453  60.522 -56.165  1.00  0.00     0.098 C 
BRANCH  14  17
HETATM   17  O   UNL     1     -46.171  60.678 -54.869  1.00  0.00    -0.395 OA
HETATM   18  H   UNL     1     -46.386  60.467 -55.794  1.00  0.00     0.210 HD
ENDBRANCH  14  17
ENDBRANCH   6  11
ENDBRANCH   2   5
BRANCH   1  19
HETATM   19  C   UNL     1     -42.224  55.040 -55.990  1.00  0.00     0.032 A 
HETATM   20  C   UNL     1     -42.965  53.987 -55.455  1.00  0.00     0.019 A 
HETATM   21  C   UNL     1     -42.468  53.290 -54.353  1.00  0.00     0.031 A 
HETATM   22  C   UNL     1     -41.234  53.646 -53.785  1.00  0.00     0.039 A 
HETATM   23  C   UNL     1     -40.505  54.716 -54.326  1.00  0.00     0.031 A 
HETATM   24  C   UNL     1     -41.000  55.414 -55.432  1.00  0.00     0.019 A 
BRANCH  22  25
HETATM   25  N   UNL     1     -40.734  52.919 -52.662  1.00  0.00    -0.320 N 
HETATM   26  C   UNL     1     -40.931  53.248 -51.318  1.00  0.00     0.013 A 
HETATM   27  C   UNL     1     -41.827  54.336 -50.827  1.00  0.00     0.068 C 
HETATM   28  C   UNL     1     -40.235  52.344 -50.541  1.00  0.00     0.027 A 
HETATM   29  C   UNL     1     -39.641  51.408 -51.401  1.00  0.00     0.027 A 
HETATM   30  C   UNL     1     -39.957  51.759 -52.700  1.00  0.00     0.013 A 
HETATM   31  C   UNL     1     -39.469  51.090 -53.940  1.00  0.00     0.068 C 
ENDBRANCH  22  25
ENDBRANCH   1  19
TORSDOF 5
ENDMDL
MODEL 2
REMARK VINA RESULT:      -8.1      1.591      2.398
REMARK  5 active torsions:
REMARK  status: ('A' for Active; 'I' for Inactive)
REMARK    1  A    between atoms: N_3  and  C_4 
REMARK    2  A    between atoms: C_7  and  C_8 
REMARK       I    between atoms: C_8  and  N_9 
REMARK    3  A    between atoms: N_9  and  C_10 
REMARK    4  A    between atoms: C_11  and  N_12 
REMARK    5  A    between atoms: C_15  and  O_16 
ROOT
HETATM    1  C   UNL     1     -42.383  55.682 -56.454  1.00  0.00     0.256 C 
HETATM    2  N   UNL     1     -41.872  56.942 -56.271  1.00  0.00    -0.321 N 
HETATM    3  O   UNL     1     -43.216  55.303 -57.264  1.00  0.00    -0.267 OA
HETATM    4  H   UNL     1     -41.163  57.090 -55.556  1.00  0.00     0.169 HD
ENDROOT
BRANCH   2   5
HETATM    5  C   UNL     1     -42.162  58.124 -56.983  1.00  0.00     0.056 A 
HETATM    6  C   UNL     1     -42.563  59.235 -56.194  1.00  0.00     0.037 A 
HETATM    7  C   UNL     1     -42.830  60.451 -56.839  1.00  0.00     0.026 A 
HETATM    8  C   UNL     1     -42.705  60.563 -58.227  1.00  0.00     0.002 A 
HETATM    9  C   UNL     1     -42.317  59.462 -58.987  1.00  0.00     0.002 A 
HETATM   10  C   UNL     1     -42.047  58.241 -58.367  1.00  0.00     0.031 A 
BRANCH   6  11
HETATM   11  N   UNL     1     -42.713  59.050 -54.789  1.00  0.00    -0.281 NA
HETATM   12  C   UNL     1     -44.136  59.149 -54.406  1.00  0.00     0.098 C 
HETATM   13  C   UNL     1     -44.291  58.628 -52.976  1.00  0.00     0.046 C 
HETATM   14  C   UNL     1     -43.374  59.373 -52.007  1.00  0.00     0.120 C 
HETATM   15  C   UNL     1     -41.930  59.408 -52.506  1.00  0.00     0.046 C 
HETATM   16  C   UNL     1     -41.853  59.904 -53.949  1.00  0.00     0.098 C 
BRANCH  14  17
HETATM   17  O   UNL     1     -43.840  60.710 -51.829  1.00  0.00    -0.395 OA
HETATM   18  H   UNL     1     -44.805  60.671 -51.711  1.00  0.00     0.210 HD
ENDBRANCH  14  17
ENDBRANCH   6  11
ENDBRANCH   2   5
BRANCH   1  19
HETATM   19  C   UNL     1     -41.798  54.696 -55.526  1.00  0.00     0.032 A 
HETATM   20  C   UNL     1     -42.644  53.965 -54.694  1.00  0.00     0.019 A 
HETATM   21  C   UNL     1     -42.102  52.998 -53.845  1.00  0.00     0.031 A 
HETATM   22  C   UNL     1     -40.718  52.764 -53.828  1.00  0.00     0.039 A 
HETATM   23  C   UNL     1     -39.877  53.517 -54.662  1.00  0.00     0.031 A 
HETATM   24  C   UNL     1     -40.418  54.483 -55.515  1.00  0.00     0.019 A 
BRANCH  22  25
HETATM   25  N   UNL     1     -40.178  51.766 -52.960  1.00  0.00    -0.320 N 
HETATM   26  C   UNL     1     -39.900  50.441 -53.307  1.00  0.00     0.013 A 
HETATM   27  C   UNL     1     -39.981  49.884 -54.689  1.00  0.00     0.068 C 
HETATM   28  C   UNL     1     -39.457  49.779 -52.179  1.00  0.00     0.027 A 
HETATM   29  C   UNL     1     -39.404  50.709 -51.129  1.00  0.00     0.027 A 
HETATM   30  C   UNL     1     -39.838  51.928 -51.616  1.00  0.00     0.013 A 
HETATM   31  C   UNL     1     -40.023  53.179 -50.825  1.00  0.00     0.068 C 
ENDBRANCH  22  25
ENDBRANCH   1  19
TORSDOF 5
ENDMDL
MODEL 3
REMARK VINA RESULT:      -7.9      2.433      7.931
REMARK  5 active torsions:
REMARK  status: ('A' for Active; 'I' for Inactive)
REMARK    1  A    between atoms: N_3  and  C_4 
REMARK    2  A    between atoms: C_7  and  C_8 
REMARK       I    between atoms: C_8  and  N_9 
REMARK    3  A    between atoms: N_9  and  C_10 
REMARK    4  A    between atoms: C_11  and  N_12 
REMARK    5  A    between atoms: C_15  and  O_16 
ROOT
HETATM    1  C   UNL     1     -42.844  54.721 -56.190  1.00  0.00     0.256 C 
HETATM    2  N   UNL     1     -41.679  54.960 -55.506  1.00  0.00    -0.321 N 
HETATM    3  O   UNL     1     -43.620  53.783 -56.078  1.00  0.00    -0.267 OA
HETATM    4  H   UNL     1     -41.151  55.806 -55.707  1.00  0.00     0.169 HD
ENDROOT
BRANCH   2   5
HETATM    5  C   UNL     1     -41.085  54.196 -54.480  1.00  0.00     0.056 A 
HETATM    6  C   UNL     1     -41.282  54.680 -53.159  1.00  0.00     0.037 A 
HETATM    7  C   UNL     1     -40.747  53.945 -52.092  1.00  0.00     0.026 A 
HETATM    8  C   UNL     1     -40.036  52.764 -52.325  1.00  0.00     0.002 A 
HETATM    9  C   UNL     1     -39.846  52.306 -53.627  1.00  0.00     0.002 A 
HETATM   10  C   UNL     1     -40.368  53.021 -54.706  1.00  0.00     0.031 A 
BRANCH   6  11
HETATM   11  N   UNL     1     -41.980  55.911 -52.985  1.00  0.00    -0.281 NA
HETATM   12  C   UNL     1     -41.349  56.713 -51.917  1.00  0.00     0.098 C 
HETATM   13  C   UNL     1     -41.909  58.135 -51.983  1.00  0.00     0.046 C 
HETATM   14  C   UNL     1     -43.434  58.140 -51.892  1.00  0.00     0.120 C 
HETATM   15  C   UNL     1     -44.066  57.173 -52.893  1.00  0.00     0.046 C 
HETATM   16  C   UNL     1     -43.436  55.783 -52.796  1.00  0.00     0.098 C 
BRANCH  14  17
HETATM   17  O   UNL     1     -43.843  57.780 -50.573  1.00  0.00    -0.395 OA
HETATM   18  H   UNL     1     -44.648  57.241 -50.652  1.00  0.00     0.210 HD
ENDBRANCH  14  17
ENDBRANCH   6  11
ENDBRANCH   2   5
BRANCH   1  19
HETATM   19  C   UNL     1     -43.149  55.780 -57.169  1.00  0.00     0.032 A 
HETATM   20  C   UNL     1     -43.387  55.428 -58.497  1.00  0.00     0.019 A 
HETATM   21  C   UNL     1     -43.722  56.419 -59.420  1.00  0.00     0.031 A 
HETATM   22  C   UNL     1     -43.817  57.761 -59.017  1.00  0.00     0.039 A 
HETATM   23  C   UNL     1     -43.563  58.103 -57.680  1.00  0.00     0.031 A 
HETATM   24  C   UNL     1     -43.231  57.111 -56.753  1.00  0.00     0.019 A 
BRANCH  22  25
HETATM   25  N   UNL     1     -44.168  58.765 -59.971  1.00  0.00    -0.320 N 
HETATM   26  C   UNL     1     -43.276  59.483 -60.772  1.00  0.00     0.013 A 
HETATM   27  C   UNL     1     -41.811  59.215 -60.872  1.00  0.00     0.068 C 
HETATM   28  C   UNL     1     -43.995  60.404 -61.507  1.00  0.00     0.027 A 
HETATM   29  C   UNL     1     -45.354  60.226 -61.207  1.00  0.00     0.027 A 
HETATM   30  C   UNL     1     -45.456  59.213 -60.272  1.00  0.00     0.013 A 
HETATM   31  C   UNL     1     -46.707  58.747 -59.608  1.00  0.00     0.068 C 
ENDBRANCH  22  25
ENDBRANCH   1  19
TORSDOF 5
ENDMDL
MODEL 4
REMARK VINA RESULT:      -7.8      2.776      7.801
REMARK  5 active torsions:
REMARK  status: ('A' for Active; 'I' for Inactive)
REMARK    1  A    between atoms: N_3  and  C_4 
REMARK    2  A    between atoms: C_7  and  C_8 
REMARK       I    between atoms: C_8  and  N_9 
REMARK    3  A    between atoms: N_9  and  C_10 
REMARK    4  A    between atoms: C_11  and  N_12 
REMARK    5  A    between atoms: C_15  and  O_16 
ROOT
HETATM    1  C   UNL     1     -42.990  55.056 -54.042  1.00  0.00     0.256 C 
HETATM    2  N   UNL     1     -41.762  55.368 -53.515  1.00  0.00    -0.321 N 
HETATM    3  O   UNL     1     -43.829  54.273 -53.621  1.00  0.00    -0.267 OA
HETATM    4  H   UNL     1     -41.185  56.062 -53.983  1.00  0.00     0.169 HD
ENDROOT
BRANCH   2   5
HETATM    5  C   UNL     1     -41.158  54.880 -52.338  1.00  0.00     0.056 A 
HETATM    6  C   UNL     1     -41.089  55.798 -51.256  1.00  0.00     0.037 A 
HETATM    7  C   UNL     1     -40.532  55.362 -50.045  1.00  0.00     0.026 A 
HETATM    8  C   UNL     1     -40.054  54.055 -49.910  1.00  0.00     0.002 A 
HETATM    9  C   UNL     1     -40.123  53.170 -50.983  1.00  0.00     0.002 A 
HETATM   10  C   UNL     1     -40.672  53.581 -52.198  1.00  0.00     0.031 A 
BRANCH   6  11
HETATM   11  N   UNL     1     -41.554  57.129 -51.465  1.00  0.00    -0.281 NA
HETATM   12  C   UNL     1     -40.643  58.099 -50.823  1.00  0.00     0.098 C 
HETATM   13  C   UNL     1     -40.984  59.498 -51.337  1.00  0.00     0.046 C 
HETATM   14  C   UNL     1     -42.455  59.837 -51.103  1.00  0.00     0.120 C 
HETATM   15  C   UNL     1     -43.381  58.738 -51.623  1.00  0.00     0.046 C 
HETATM   16  C   UNL     1     -42.963  57.365 -51.099  1.00  0.00     0.098 C 
BRANCH  14  17
HETATM   17  O   UNL     1     -42.693  60.027 -49.708  1.00  0.00    -0.395 OA
HETATM   18  H   UNL     1     -43.197  60.853 -49.607  1.00  0.00     0.210 HD
ENDBRANCH  14  17
ENDBRANCH   6  11
ENDBRANCH   2   5
BRANCH   1  19
HETATM   19  C   UNL     1     -43.281  55.809 -55.276  1.00  0.00     0.032 A 
HETATM   20  C   UNL     1     -44.007  56.997 -55.189  1.00  0.00     0.019 A 
HETATM   21  C   UNL     1     -44.247  57.739 -56.347  1.00  0.00     0.031 A 
HETATM   22  C   UNL     1     -43.764  57.294 -57.588  1.00  0.00     0.039 A 
HETATM   23  C   UNL     1     -43.046  56.091 -57.662  1.00  0.00     0.031 A 
HETATM   24  C   UNL     1     -42.802  55.348 -56.503  1.00  0.00     0.019 A 
BRANCH  22  25
HETATM   25  N   UNL     1     -44.011  58.068 -58.763  1.00  0.00    -0.320 N 
HETATM   26  C   UNL     1     -43.224  59.125 -59.229  1.00  0.00     0.013 A 
HETATM   27  C   UNL     1     -41.906  59.528 -58.655  1.00  0.00     0.068 C 
HETATM   28  C   UNL     1     -43.830  59.658 -60.349  1.00  0.00     0.027 A 
HETATM   29  C   UNL     1     -44.976  58.896 -60.621  1.00  0.00     0.027 A 
HETATM   30  C   UNL     1     -45.077  57.916 -59.651  1.00  0.00     0.013 A 
HETATM   31  C   UNL     1     -46.188  56.932 -59.503  1.00  0.00     0.068 C 
ENDBRANCH  22  25
ENDBRANCH   1  19
TORSDOF 5
ENDMDL
MODEL 5
REMARK VINA RESULT:      -7.7      2.973      5.426
REMARK  5 active torsions:
REMARK  status: ('A' for Active; 'I' for Inactive)
REMARK    1  A    between atoms: N_3  and  C_4 
REMARK    2  A    between atoms: C_7  and  C_8 
REMARK       I    between atoms: C_8  and  N_9 
REMARK    3  A    between atoms: N_9  and  C_10 
REMARK    4  A    between atoms: C_11  and  N_12 
REMARK    5  A    between atoms: C_15  and  O_16 
ROOT
HETATM    1  C   UNL     1     -44.090  57.685 -51.064  1.00  0.00     0.256 C 
HETATM    2  N   UNL     1     -43.403  58.871 -51.114  1.00  0.00    -0.321 N 
HETATM    3  O   UNL     1     -45.279  57.495 -50.858  1.00  0.00    -0.267 OA
HETATM    4  H   UNL     1     -42.406  58.859 -51.315  1.00  0.00     0.169 HD
ENDROOT
BRANCH   2   5
HETATM    5  C   UNL     1     -43.896  60.183 -50.961  1.00  0.00     0.056 A 
HETATM    6  C   UNL     1     -44.021  60.937 -52.159  1.00  0.00     0.037 A 
HETATM    7  C   UNL     1     -44.540  62.237 -52.080  1.00  0.00     0.026 A 
HETATM    8  C   UNL     1     -44.925  62.777 -50.849  1.00  0.00     0.002 A 
HETATM    9  C   UNL     1     -44.790  62.027 -49.683  1.00  0.00     0.002 A 
HETATM   10  C   UNL     1     -44.274  60.731 -49.736  1.00  0.00     0.031 A 
BRANCH   6  11
HETATM   11  N   UNL     1     -43.575  60.350 -53.379  1.00  0.00    -0.281 NA
HETATM   12  C   UNL     1     -42.099  60.358 -53.444  1.00  0.00     0.098 C 
HETATM   13  C   UNL     1     -41.658  59.443 -54.588  1.00  0.00     0.046 C 
HETATM   14  C   UNL     1     -42.303  59.852 -55.912  1.00  0.00     0.120 C 
HETATM   15  C   UNL     1     -43.818  60.006 -55.782  1.00  0.00     0.046 C 
HETATM   16  C   UNL     1     -44.187  60.903 -54.601  1.00  0.00     0.098 C 
BRANCH  14  17
HETATM   17  O   UNL     1     -41.745  61.087 -56.361  1.00  0.00    -0.395 OA
HETATM   18  H   UNL     1     -42.224  61.805 -55.913  1.00  0.00     0.210 HD
ENDBRANCH  14  17
ENDBRANCH   6  11
ENDBRANCH   2   5
BRANCH   1  19
HETATM   19  C   UNL     1     -43.220  56.520 -51.310  1.00  0.00     0.032 A 
HETATM   20  C   UNL     1     -43.786  55.247 -51.348  1.00  0.00     0.019 A 
HETATM   21  C   UNL     1     -42.977  54.144 -51.626  1.00  0.00     0.031 A 
HETATM   22  C   UNL     1     -41.603  54.314 -51.864  1.00  0.00     0.039 A 
HETATM   23  C   UNL     1     -41.044  55.600 -51.810  1.00  0.00     0.031 A 
HETATM   24  C   UNL     1     -41.854  56.706 -51.535  1.00  0.00     0.019 A 
BRANCH  22  25
HETATM   25  N   UNL     1     -40.788  53.177 -52.154  1.00  0.00    -0.320 N 
HETATM   26  C   UNL     1     -40.178  52.344 -51.213  1.00  0.00     0.013 A 
HETATM   27  C   UNL     1     -40.397  52.414 -49.739  1.00  0.00     0.068 C 
HETATM   28  C   UNL     1     -39.422  51.405 -51.888  1.00  0.00     0.027 A 
HETATM   29  C   UNL     1     -39.604  51.616 -53.263  1.00  0.00     0.027 A 
HETATM   30  C   UNL     1     -40.450  52.698 -53.421  1.00  0.00     0.013 A 
HETATM   31  C   UNL     1     -40.850  53.324 -54.714  1.00  0.00     0.068 C 
ENDBRANCH  22  25
ENDBRANCH   1  19
TORSDOF 5
ENDMDL
MODEL 6
REMARK VINA RESULT:      -7.7      1.757      3.728
REMARK  5 active torsions:
REMARK  status: ('A' for Active; 'I' for Inactive)
REMARK    1  A    between atoms: N_3  and  C_4 
REMARK    2  A    between atoms: C_7  and  C_8 
REMARK       I    between atoms: C_8  and  N_9 
REMARK    3  A    between atoms: N_9  and  C_10 
REMARK    4  A    between atoms: C_11  and  N_12 
REMARK    5  A    between atoms: C_15  and  O_16 
ROOT
HETATM    1  C   UNL     1     -43.934  58.067 -54.856  1.00  0.00     0.256 C 
HETATM    2  N   UNL     1     -43.148  58.793 -55.716  1.00  0.00    -0.321 N 
HETATM    3  O   UNL     1     -45.112  58.227 -54.575  1.00  0.00    -0.267 OA
HETATM    4  H   UNL     1     -42.179  58.516 -55.854  1.00  0.00     0.169 HD
ENDROOT
BRANCH   2   5
HETATM    5  C   UNL     1     -43.502  59.899 -56.515  1.00  0.00     0.056 A 
HETATM    6  C   UNL     1     -43.654  59.634 -57.902  1.00  0.00     0.037 A 
HETATM    7  C   UNL     1     -44.041  60.685 -58.744  1.00  0.00     0.026 A 
HETATM    8  C   UNL     1     -44.271  61.965 -58.229  1.00  0.00     0.002 A 
HETATM    9  C   UNL     1     -44.111  62.210 -56.867  1.00  0.00     0.002 A 
HETATM   10  C   UNL     1     -43.725  61.179 -56.009  1.00  0.00     0.031 A 
BRANCH   6  11
HETATM   11  N   UNL     1     -43.367  58.321 -58.376  1.00  0.00    -0.281 NA
HETATM   12  C   UNL     1     -42.673  58.385 -59.679  1.00  0.00     0.098 C 
HETATM   13  C   UNL     1     -42.099  57.002 -59.991  1.00  0.00     0.046 C 
HETATM   14  C   UNL     1     -43.184  55.926 -59.962  1.00  0.00     0.120 C 
HETATM   15  C   UNL     1     -44.008  55.986 -58.675  1.00  0.00     0.046 C 
HETATM   16  C   UNL     1     -44.519  57.401 -58.407  1.00  0.00     0.098 C 
BRANCH  14  17
HETATM   17  O   UNL     1     -44.055  56.086 -61.081  1.00  0.00    -0.395 OA
HETATM   18  H   UNL     1     -43.600  56.652 -61.729  1.00  0.00     0.210 HD
ENDBRANCH  14  17
ENDBRANCH   6  11
ENDBRANCH   2   5
BRANCH   1  19
HETATM   19  C   UNL     1     -43.201  56.952 -54.229  1.00  0.00     0.032 A 
HETATM   20  C   UNL     1     -41.925  57.183 -53.717  1.00  0.00     0.019 A 
HETATM   21  C   UNL     1     -41.243  56.144 -53.081  1.00  0.00     0.031 A 
HETATM   22  C   UNL     1     -41.836  54.877 -52.957  1.00  0.00     0.039 A 
HETATM   23  C   UNL     1     -43.116  54.656 -53.488  1.00  0.00     0.031 A 
HETATM   24  C   UNL     1     -43.801  55.696 -54.123  1.00  0.00     0.019 A 
BRANCH  22  25
HETATM   25  N   UNL     1     -41.130  53.825 -52.297  1.00  0.00    -0.320 N 
HETATM   26  C   UNL     1     -41.044  53.638 -50.915  1.00  0.00     0.013 A 
HETATM   27  C   UNL     1     -41.803  54.422 -49.896  1.00  0.00     0.068 C 
HETATM   28  C   UNL     1     -40.220  52.558 -50.672  1.00  0.00     0.027 A 
HETATM   29  C   UNL     1     -39.829  52.029 -51.912  1.00  0.00     0.027 A 
HETATM   30  C   UNL     1     -40.398  52.805 -52.905  1.00  0.00     0.013 A 
HETATM   31  C   UNL     1     -40.184  52.656 -54.374  1.00  0.00     0.068 C 
ENDBRANCH  22  25
ENDBRANCH   1  19
TORSDOF 5
ENDMDL
MODEL 7
REMARK VINA RESULT:      -7.7      1.733      3.967
REMARK  5 active torsions:
REMARK  status: ('A' for Active; 'I' for Inactive)
REMARK    1  A    between atoms: N_3  and  C_4 
REMARK    2  A    between atoms: C_7  and  C_8 
REMARK       I    between atoms: C_8  and  N_9 
REMARK    3  A    between atoms: N_9  and  C_10 
REMARK    4  A    between atoms: C_11  and  N_12 
REMARK    5  A    between atoms: C_15  and  O_16 
ROOT
HETATM    1  C   UNL     1     -43.935  57.926 -54.936  1.00  0.00     0.256 C 
HETATM    2  N   UNL     1     -43.121  58.756 -55.665  1.00  0.00    -0.321 N 
HETATM    3  O   UNL     1     -45.145  57.983 -54.779  1.00  0.00    -0.267 OA
HETATM    4  H   UNL     1     -42.124  58.558 -55.709  1.00  0.00     0.169 HD
ENDROOT
BRANCH   2   5
HETATM    5  C   UNL     1     -43.473  59.879 -56.441  1.00  0.00     0.056 A 
HETATM    6  C   UNL     1     -43.614  59.644 -57.835  1.00  0.00     0.037 A 
HETATM    7  C   UNL     1     -43.999  60.713 -58.656  1.00  0.00     0.026 A 
HETATM    8  C   UNL     1     -44.237  61.980 -58.114  1.00  0.00     0.002 A 
HETATM    9  C   UNL     1     -44.087  62.195 -56.746  1.00  0.00     0.002 A 
HETATM   10  C   UNL     1     -43.704  61.146 -55.908  1.00  0.00     0.031 A 
BRANCH   6  11
HETATM   11  N   UNL     1     -43.320  58.343 -58.337  1.00  0.00    -0.281 NA
HETATM   12  C   UNL     1     -42.649  58.438 -59.649  1.00  0.00     0.098 C 
HETATM   13  C   UNL     1     -42.064  57.067 -59.995  1.00  0.00     0.046 C 
HETATM   14  C   UNL     1     -43.135  55.978 -59.966  1.00  0.00     0.120 C 
HETATM   15  C   UNL     1     -43.937  56.005 -58.665  1.00  0.00     0.046 C 
HETATM   16  C   UNL     1     -44.461  57.409 -58.364  1.00  0.00     0.098 C 
BRANCH  14  17
HETATM   17  O   UNL     1     -44.027  56.146 -61.068  1.00  0.00    -0.395 OA
HETATM   18  H   UNL     1     -44.498  56.987 -60.938  1.00  0.00     0.210 HD
ENDBRANCH  14  17
ENDBRANCH   6  11
ENDBRANCH   2   5
BRANCH   1  19
HETATM   19  C   UNL     1     -43.188  56.832 -54.288  1.00  0.00     0.032 A 
HETATM   20  C   UNL     1     -41.862  57.045 -53.913  1.00  0.00     0.019 A 
HETATM   21  C   UNL     1     -41.163  56.030 -53.258  1.00  0.00     0.031 A 
HETATM   22  C   UNL     1     -41.788  54.803 -52.979  1.00  0.00     0.039 A 
HETATM   23  C   UNL     1     -43.119  54.598 -53.374  1.00  0.00     0.031 A 
HETATM   24  C   UNL     1     -43.822  55.615 -54.027  1.00  0.00     0.019 A 
BRANCH  22  25
HETATM   25  N   UNL     1     -41.063  53.776 -52.302  1.00  0.00    -0.320 N 
HETATM   26  C   UNL     1     -40.361  52.732 -52.908  1.00  0.00     0.013 A 
HETATM   27  C   UNL     1     -40.125  52.598 -54.376  1.00  0.00     0.068 C 
HETATM   28  C   UNL     1     -39.857  51.913 -51.918  1.00  0.00     0.027 A 
HETATM   29  C   UNL     1     -40.198  52.477 -50.679  1.00  0.00     0.027 A 
HETATM   30  C   UNL     1     -40.930  53.625 -50.920  1.00  0.00     0.013 A 
HETATM   31  C   UNL     1     -41.567  54.498 -49.892  1.00  0.00     0.068 C 
ENDBRANCH  22  25
ENDBRANCH   1  19
TORSDOF 5
ENDMDL
MODEL 8
REMARK VINA RESULT:      -7.3      3.801      9.182
REMARK  5 active torsions:
REMARK  status: ('A' for Active; 'I' for Inactive)
REMARK    1  A    between atoms: N_3  and  C_4 
REMARK    2  A    between atoms: C_7  and  C_8 
REMARK       I    between atoms: C_8  and  N_9 
REMARK    3  A    between atoms: N_9  and  C_10 
REMARK    4  A    between atoms: C_11  and  N_12 
REMARK    5  A    between atoms: C_15  and  O_16 
ROOT
HETATM    1  C   UNL     1     -41.409  58.115 -50.794  1.00  0.00     0.256 C 
HETATM    2  N   UNL     1     -42.006  56.899 -50.575  1.00  0.00    -0.321 N 
HETATM    3  O   UNL     1     -40.224  58.373 -50.941  1.00  0.00    -0.267 OA
HETATM    4  H   UNL     1     -43.018  56.852 -50.491  1.00  0.00     0.169 HD
ENDROOT
BRANCH   2   5
HETATM    5  C   UNL     1     -41.406  55.627 -50.483  1.00  0.00     0.056 A 
HETATM    6  C   UNL     1     -41.324  54.895 -51.698  1.00  0.00     0.037 A 
HETATM    7  C   UNL     1     -40.705  53.638 -51.680  1.00  0.00     0.026 A 
HETATM    8  C   UNL     1     -40.184  53.116 -50.493  1.00  0.00     0.002 A 
HETATM    9  C   UNL     1     -40.279  53.842 -49.308  1.00  0.00     0.002 A 
HETATM   10  C   UNL     1     -40.892  55.097 -49.300  1.00  0.00     0.031 A 
BRANCH   6  11
HETATM   11  N   UNL     1     -41.909  55.460 -52.869  1.00  0.00    -0.281 NA
HETATM   12  C   UNL     1     -42.742  54.456 -53.562  1.00  0.00     0.098 C 
HETATM   13  C   UNL     1     -43.598  55.174 -54.607  1.00  0.00     0.046 C 
HETATM   14  C   UNL     1     -42.737  55.985 -55.574  1.00  0.00     0.120 C 
HETATM   15  C   UNL     1     -41.758  56.896 -54.836  1.00  0.00     0.046 C 
HETATM   16  C   UNL     1     -40.962  56.122 -53.786  1.00  0.00     0.098 C 
BRANCH  14  17
HETATM   17  O   UNL     1     -42.005  55.104 -56.426  1.00  0.00    -0.395 OA
HETATM   18  H   UNL     1     -42.570  54.333 -56.606  1.00  0.00     0.210 HD
ENDBRANCH  14  17
ENDBRANCH   6  11
ENDBRANCH   2   5
BRANCH   1  19
HETATM   19  C   UNL     1     -42.387  59.218 -50.862  1.00  0.00     0.032 A 
HETATM   20  C   UNL     1     -42.007  60.487 -50.427  1.00  0.00     0.019 A 
HETATM   21  C   UNL     1     -42.911  61.545 -50.531  1.00  0.00     0.031 A 
HETATM   22  C   UNL     1     -44.193  61.335 -51.066  1.00  0.00     0.039 A 
HETATM   23  C   UNL     1     -44.565  60.049 -51.487  1.00  0.00     0.031 A 
HETATM   24  C   UNL     1     -43.660  58.989 -51.387  1.00  0.00     0.019 A 
BRANCH  22  25
HETATM   25  N   UNL     1     -45.105  62.429 -51.173  1.00  0.00    -0.320 N 
HETATM   26  C   UNL     1     -45.213  63.303 -52.257  1.00  0.00     0.013 A 
HETATM   27  C   UNL     1     -44.492  63.150 -53.555  1.00  0.00     0.068 C 
HETATM   28  C   UNL     1     -46.157  64.263 -51.951  1.00  0.00     0.027 A 
HETATM   29  C   UNL     1     -46.686  63.956 -50.688  1.00  0.00     0.027 A 
HETATM   30  C   UNL     1     -46.044  62.825 -50.219  1.00  0.00     0.013 A 
HETATM   31  C   UNL     1     -46.233  62.194 -48.881  1.00  0.00     0.068 C 
ENDBRANCH  22  25
ENDBRANCH   1  19
TORSDOF 5
ENDMDL
MODEL 9
REMARK VINA RESULT:      -7.3      2.646      8.316
REMARK  5 active torsions:
REMARK  status: ('A' for Active; 'I' for Inactive)
REMARK    1  A    between atoms: N_3  and  C_4 
REMARK    2  A    between atoms: C_7  and  C_8 
REMARK       I    between atoms: C_8  and  N_9 
REMARK    3  A    between atoms: N_9  and  C_10 
REMARK    4  A    between atoms: C_11  and  N_12 
REMARK    5  A    between atoms: C_15  and  O_16 
ROOT
HETATM    1  C   UNL     1     -42.280  54.476 -54.607  1.00  0.00     0.256 C 
HETATM    2  N   UNL     1     -41.150  54.133 -53.909  1.00  0.00    -0.321 N 
HETATM    3  O   UNL     1     -43.045  53.755 -55.231  1.00  0.00    -0.267 OA
HETATM    4  H   UNL     1     -40.628  54.859 -53.424  1.00  0.00     0.169 HD
ENDROOT
BRANCH   2   5
HETATM    5  C   UNL     1     -40.588  52.855 -53.714  1.00  0.00     0.056 A 
HETATM    6  C   UNL     1     -40.298  52.510 -52.366  1.00  0.00     0.037 A 
HETATM    7  C   UNL     1     -39.771  51.238 -52.101  1.00  0.00     0.026 A 
HETATM    8  C   UNL     1     -39.536  50.333 -53.141  1.00  0.00     0.002 A 
HETATM    9  C   UNL     1     -39.819  50.690 -54.457  1.00  0.00     0.002 A 
HETATM   10  C   UNL     1     -40.343  51.951 -54.746  1.00  0.00     0.031 A 
BRANCH   6  11
HETATM   11  N   UNL     1     -40.520  53.487 -51.353  1.00  0.00    -0.281 NA
HETATM   12  C   UNL     1     -39.461  53.413 -50.326  1.00  0.00     0.098 C 
HETATM   13  C   UNL     1     -39.546  54.665 -49.451  1.00  0.00     0.046 C 
HETATM   14  C   UNL     1     -40.938  54.829 -48.842  1.00  0.00     0.120 C 
HETATM   15  C   UNL     1     -42.035  54.732 -49.901  1.00  0.00     0.046 C 
HETATM   16  C   UNL     1     -41.870  53.479 -50.760  1.00  0.00     0.098 C 
BRANCH  14  17
HETATM   17  O   UNL     1     -41.155  53.826 -47.851  1.00  0.00    -0.395 OA
HETATM   18  H   UNL     1     -41.180  54.269 -46.985  1.00  0.00     0.210 HD
ENDBRANCH  14  17
ENDBRANCH   6  11
ENDBRANCH   2   5
BRANCH   1  19
HETATM   19  C   UNL     1     -42.562  55.922 -54.547  1.00  0.00     0.032 A 
HETATM   20  C   UNL     1     -41.589  56.782 -54.038  1.00  0.00     0.019 A 
HETATM   21  C   UNL     1     -41.830  58.156 -54.021  1.00  0.00     0.031 A 
HETATM   22  C   UNL     1     -43.042  58.671 -54.510  1.00  0.00     0.039 A 
HETATM   23  C   UNL     1     -44.016  57.793 -55.008  1.00  0.00     0.031 A 
HETATM   24  C   UNL     1     -43.776  56.416 -55.029  1.00  0.00     0.019 A 
BRANCH  22  25
HETATM   25  N   UNL     1     -43.271  60.081 -54.493  1.00  0.00    -0.320 N 
HETATM   26  C   UNL     1     -42.861  60.990 -55.472  1.00  0.00     0.013 A 
HETATM   27  C   UNL     1     -42.241  60.619 -56.778  1.00  0.00     0.068 C 
HETATM   28  C   UNL     1     -43.210  62.260 -55.060  1.00  0.00     0.027 A 
HETATM   29  C   UNL     1     -43.894  62.143 -53.840  1.00  0.00     0.027 A 
HETATM   30  C   UNL     1     -43.937  60.804 -53.502  1.00  0.00     0.013 A 
HETATM   31  C   UNL     1     -44.495  60.228 -52.244  1.00  0.00     0.068 C 
ENDBRANCH  22  25
ENDBRANCH   1  19
TORSDOF 5
ENDMDL
MODEL 10
REMARK VINA RESULT:      -7.3      2.211      4.027
REMARK  5 active torsions:
REMARK  status: ('A' for Active; 'I' for Inactive)
REMARK    1  A    between atoms: N_3  and  C_4 
REMARK    2  A    between atoms: C_7  and  C_8 
REMARK       I    between atoms: C_8  and  N_9 
REMARK    3  A    between atoms: N_9  and  C_10 
REMARK    4  A    between atoms: C_11  and  N_12 
REMARK    5  A    between atoms: C_15  and  O_16 
ROOT
HETATM    1  C   UNL     1     -44.540  58.189 -55.333  1.00  0.00     0.256 C 
HETATM    2  N   UNL     1     -45.151  57.674 -56.448  1.00  0.00    -0.321 N 
HETATM    3  O   UNL     1     -44.576  59.330 -54.897  1.00  0.00    -0.267 OA
HETATM    4  H   UNL     1     -45.033  56.687 -56.666  1.00  0.00     0.169 HD
ENDROOT
BRANCH   2   5
HETATM    5  C   UNL     1     -45.996  58.323 -57.371  1.00  0.00     0.056 A 
HETATM    6  C   UNL     1     -45.480  58.462 -58.687  1.00  0.00     0.037 A 
HETATM    7  C   UNL     1     -46.288  59.066 -59.661  1.00  0.00     0.026 A 
HETATM    8  C   UNL     1     -47.570  59.522 -59.341  1.00  0.00     0.002 A 
HETATM    9  C   UNL     1     -48.058  59.385 -58.044  1.00  0.00     0.002 A 
HETATM   10  C   UNL     1     -47.273  58.788 -57.057  1.00  0.00     0.031 A 
BRANCH   6  11
HETATM   11  N   UNL     1     -44.152  58.014 -58.945  1.00  0.00    -0.281 NA
HETATM   12  C   UNL     1     -43.199  59.138 -58.827  1.00  0.00     0.098 C 
HETATM   13  C   UNL     1     -41.780  58.568 -58.784  1.00  0.00     0.046 C 
HETATM   14  C   UNL     1     -41.494  57.687 -59.999  1.00  0.00     0.120 C 
HETATM   15  C   UNL     1     -42.584  56.635 -60.207  1.00  0.00     0.046 C 
HETATM   16  C   UNL     1     -43.975  57.268 -60.204  1.00  0.00     0.098 C 
BRANCH  14  17
HETATM   17  O   UNL     1     -41.396  58.495 -61.172  1.00  0.00    -0.395 OA
HETATM   18  H   UNL     1     -40.890  59.292 -60.937  1.00  0.00     0.210 HD
ENDBRANCH  14  17
ENDBRANCH   6  11
ENDBRANCH   2   5
BRANCH   1  19
HETATM   19  C   UNL     1     -43.759  57.175 -54.599  1.00  0.00     0.032 A 
HETATM   20  C   UNL     1     -44.282  55.891 -54.454  1.00  0.00     0.019 A 
HETATM   21  C   UNL     1     -43.530  54.914 -53.801  1.00  0.00     0.031 A 
HETATM   22  C   UNL     1     -42.257  55.221 -53.292  1.00  0.00     0.039 A 
HETATM   23  C   UNL     1     -41.748  56.521 -53.435  1.00  0.00     0.031 A 
HETATM   24  C   UNL     1     -42.500  57.500 -54.092  1.00  0.00     0.019 A 
BRANCH  22  25
HETATM   25  N   UNL     1     -41.494  54.209 -52.633  1.00  0.00    -0.320 N 
HETATM   26  C   UNL     1     -41.509  53.933 -51.263  1.00  0.00     0.013 A 
HETATM   27  C   UNL     1     -42.440  54.554 -50.276  1.00  0.00     0.068 C 
HETATM   28  C   UNL     1     -40.589  52.936 -51.010  1.00  0.00     0.027 A 
HETATM   29  C   UNL     1     -40.032  52.544 -52.236  1.00  0.00     0.027 A 
HETATM   30  C   UNL     1     -40.597  53.321 -53.230  1.00  0.00     0.013 A 
HETATM   31  C   UNL     1     -40.239  53.302 -54.677  1.00  0.00     0.068 C 
ENDBRANCH  22  25
ENDBRANCH   1  19
TORSDOF 5
ENDMDL
