MODEL 1
REMARK VINA RESULT:      -8.2      0.000      0.000
REMARK  5 active torsions:
REMARK  status: ('A' for Active; 'I' for Inactive)
REMARK    1  A    between atoms: C_3  and  N_4 
REMARK       I    between atoms: N_4  and  C_5 
REMARK    2  A    between atoms: C_5  and  C_6 
REMARK    3  A    between atoms: C_6  and  N_7 
REMARK       I    between atoms: N_7  and  C_8 
REMARK    4  A    between atoms: C_8  and  C_9 
REMARK    5  A    between atoms: C_10  and  C_11 
ROOT
HETATM    1  N   UNL     1     -39.441  53.395 -50.880  1.00  0.00    -0.348 N 
HETATM    2  C   UNL     1     -39.998  52.146 -51.023  1.00  0.00     0.255 C 
HETATM    3  O   UNL     1     -40.450  51.520 -50.069  1.00  0.00    -0.268 OA
HETATM    4  H   UNL     1     -38.989  53.821 -51.678  1.00  0.00     0.163 HD
ENDROOT
BRANCH   1   5
HETATM    5  C   UNL     1     -39.546  54.176 -49.660  1.00  0.00     0.226 C 
BRANCH   5   6
HETATM    6  C   UNL     1     -40.785  55.076 -49.555  1.00  0.00     0.239 C 
HETATM    7  N   UNL     1     -41.269  55.482 -50.789  1.00  0.00    -0.325 N 
HETATM    8  H   UNL     1     -40.615  55.340 -51.559  1.00  0.00     0.169 HD
HETATM    9  O   UNL     1     -41.165  55.482 -48.460  1.00  0.00    -0.271 OA
BRANCH   7  10
HETATM   10  C   UNL     1     -42.257  56.478 -50.981  1.00  0.00     0.046 A 
HETATM   11  C   UNL     1     -43.611  56.086 -50.855  1.00  0.00    -0.035 A 
HETATM   12  C   UNL     1     -44.014  54.661 -50.573  1.00  0.00     0.050 C 
HETATM   13  C   UNL     1     -44.629  57.036 -51.035  1.00  0.00     0.009 A 
HETATM   14  C   UNL     1     -44.321  58.356 -51.340  1.00  0.00     0.001 A 
HETATM   15  C   UNL     1     -42.990  58.747 -51.443  1.00  0.00     0.009 A 
HETATM   16  C   UNL     1     -41.943  57.828 -51.240  1.00  0.00    -0.035 A 
HETATM   17  C   UNL     1     -40.543  58.378 -51.279  1.00  0.00     0.050 C 
ENDBRANCH   7  10
ENDBRANCH   5   6
ENDBRANCH   1   5
BRANCH   2  18
HETATM   18  C   UNL     1     -39.994  51.657 -52.388  1.00  0.00     0.080 A 
HETATM   19  C   UNL     1     -40.439  52.265 -53.609  1.00  0.00     0.104 A 
HETATM   20  N   UNL     1     -40.178  51.450 -54.652  1.00  0.00    -0.174 NA
HETATM   21  N   UNL     1     -39.588  50.376 -54.126  1.00  0.00    -0.288 N 
HETATM   22  H   UNL     1     -39.286  49.639 -54.754  1.00  0.00     0.188 HD
HETATM   23  C   UNL     1     -39.471  50.434 -52.775  1.00  0.00     0.128 A 
BRANCH  19  24
HETATM   24  C   UNL     1     -41.131  53.541 -53.859  1.00  0.00    -0.004 A 
HETATM   25  C   UNL     1     -42.529  53.648 -53.880  1.00  0.00     0.017 A 
HETATM   26  C   UNL     1     -43.147  54.870 -54.169  1.00  0.00     0.043 A 
HETATM   27  C   UNL     1     -42.373  55.988 -54.451  1.00  0.00     0.116 A 
HETATM   28  F   UNL     1     -42.969  57.152 -54.742  1.00  0.00    -0.206 F 
HETATM   29  C   UNL     1     -40.989  55.912 -54.445  1.00  0.00     0.043 A 
HETATM   30  C   UNL     1     -40.371  54.694 -54.149  1.00  0.00     0.017 A 
ENDBRANCH  19  24
ENDBRANCH   2  18
TORSDOF 5
ENDMDL
MODEL 2
REMARK VINA RESULT:      -7.6      3.105      5.719
REMARK  5 active torsions:
REMARK  status: ('A' for Active; 'I' for Inactive)
REMARK    1  A    between atoms: C_3  and  N_4 
REMARK       I    between atoms: N_4  and  C_5 
REMARK    2  A    between atoms: C_5  and  C_6 
REMARK    3  A    between atoms: C_6  and  N_7 
REMARK       I    between atoms: N_7  and  C_8 
REMARK    4  A    between atoms: C_8  and  C_9 
REMARK    5  A    between atoms: C_10  and  C_11 
ROOT
HETATM    1  N   UNL     1     -43.004  56.276 -51.598  1.00  0.00    -0.348 N 
HETATM    2  C   UNL     1     -41.641  56.141 -51.485  1.00  0.00     0.255 C 
HETATM    3  O   UNL     1     -40.861  56.779 -52.186  1.00  0.00    -0.268 OA
HETATM    4  H   UNL     1     -43.601  55.652 -51.072  1.00  0.00     0.163 HD
ENDROOT
BRANCH   1   5
HETATM    5  C   UNL     1     -43.635  57.332 -52.370  1.00  0.00     0.226 C 
BRANCH   5   6
HETATM    6  C   UNL     1     -43.915  56.999 -53.842  1.00  0.00     0.239 C 
HETATM    7  N   UNL     1     -42.771  56.987 -54.625  1.00  0.00    -0.325 N 
HETATM    8  H   UNL     1     -41.963  57.430 -54.185  1.00  0.00     0.169 HD
HETATM    9  O   UNL     1     -45.070  56.914 -54.250  1.00  0.00    -0.271 OA
BRANCH   7  10
HETATM   10  C   UNL     1     -42.759  56.924 -56.038  1.00  0.00     0.046 A 
HETATM   11  C   UNL     1     -42.484  58.121 -56.743  1.00  0.00    -0.035 A 
HETATM   12  C   UNL     1     -42.253  59.434 -56.039  1.00  0.00     0.050 C 
HETATM   13  C   UNL     1     -42.459  58.111 -58.147  1.00  0.00     0.009 A 
HETATM   14  C   UNL     1     -42.707  56.940 -58.852  1.00  0.00     0.001 A 
HETATM   15  C   UNL     1     -42.957  55.759 -58.161  1.00  0.00     0.009 A 
HETATM   16  C   UNL     1     -42.960  55.725 -56.754  1.00  0.00    -0.035 A 
HETATM   17  C   UNL     1     -43.144  54.378 -56.110  1.00  0.00     0.050 C 
ENDBRANCH   7  10
ENDBRANCH   5   6
ENDBRANCH   1   5
BRANCH   2  18
HETATM   18  C   UNL     1     -41.230  55.187 -50.473  1.00  0.00     0.080 A 
HETATM   19  C   UNL     1     -40.670  53.871 -50.589  1.00  0.00     0.104 A 
HETATM   20  N   UNL     1     -40.388  53.380 -49.366  1.00  0.00    -0.174 NA
HETATM   21  N   UNL     1     -40.744  54.336 -48.507  1.00  0.00    -0.288 N 
HETATM   22  H   UNL     1     -40.592  54.173 -47.517  1.00  0.00     0.188 HD
HETATM   23  C   UNL     1     -41.274  55.431 -49.110  1.00  0.00     0.128 A 
BRANCH  19  24
HETATM   24  C   UNL     1     -40.420  53.027 -51.770  1.00  0.00    -0.004 A 
HETATM   25  C   UNL     1     -40.875  53.370 -53.051  1.00  0.00     0.017 A 
HETATM   26  C   UNL     1     -40.658  52.516 -54.139  1.00  0.00     0.043 A 
HETATM   27  C   UNL     1     -39.997  51.310 -53.951  1.00  0.00     0.116 A 
HETATM   28  F   UNL     1     -39.804  50.489 -54.992  1.00  0.00    -0.206 F 
HETATM   29  C   UNL     1     -39.541  50.939 -52.695  1.00  0.00     0.043 A 
HETATM   30  C   UNL     1     -39.751  51.795 -51.610  1.00  0.00     0.017 A 
ENDBRANCH  19  24
ENDBRANCH   2  18
TORSDOF 5
ENDMDL
MODEL 3
REMARK VINA RESULT:      -7.6      3.287      5.700
REMARK  5 active torsions:
REMARK  status: ('A' for Active; 'I' for Inactive)
REMARK    1  A    between atoms: C_3  and  N_4 
REMARK       I    between atoms: N_4  and  C_5 
REMARK    2  A    between atoms: C_5  and  C_6 
REMARK    3  A    between atoms: C_6  and  N_7 
REMARK       I    between atoms: N_7  and  C_8 
REMARK    4  A    between atoms: C_8  and  C_9 
REMARK    5  A    between atoms: C_10  and  C_11 
ROOT
HETATM    1  N   UNL     1     -42.820  56.687 -51.950  1.00  0.00    -0.348 N 
HETATM    2  C   UNL     1     -41.510  56.276 -51.892  1.00  0.00     0.255 C 
HETATM    3  O   UNL     1     -40.667  56.664 -52.696  1.00  0.00    -0.268 OA
HETATM    4  H   UNL     1     -43.494  56.257 -51.331  1.00  0.00     0.163 HD
ENDROOT
BRANCH   1   5
HETATM    5  C   UNL     1     -43.273  57.775 -52.799  1.00  0.00     0.226 C 
BRANCH   5   6
HETATM    6  C   UNL     1     -43.683  57.377 -54.223  1.00  0.00     0.239 C 
HETATM    7  N   UNL     1     -42.601  57.106 -55.046  1.00  0.00    -0.325 N 
HETATM    8  H   UNL     1     -41.708  57.438 -54.680  1.00  0.00     0.169 HD
HETATM    9  O   UNL     1     -44.857  57.459 -54.576  1.00  0.00    -0.271 OA
BRANCH   7  10
HETATM   10  C   UNL     1     -42.677  56.927 -56.448  1.00  0.00     0.046 A 
HETATM   11  C   UNL     1     -43.010  55.636 -56.924  1.00  0.00    -0.035 A 
HETATM   12  C   UNL     1     -43.235  54.469 -55.997  1.00  0.00     0.050 C 
HETATM   13  C   UNL     1     -43.099  55.408 -58.307  1.00  0.00     0.009 A 
HETATM   14  C   UNL     1     -42.860  56.434 -59.212  1.00  0.00     0.001 A 
HETATM   15  C   UNL     1     -42.553  57.708 -58.746  1.00  0.00     0.009 A 
HETATM   16  C   UNL     1     -42.484  57.981 -57.366  1.00  0.00    -0.035 A 
HETATM   17  C   UNL     1     -42.242  59.413 -56.971  1.00  0.00     0.050 C 
ENDBRANCH   7  10
ENDBRANCH   5   6
ENDBRANCH   1   5
BRANCH   2  18
HETATM   18  C   UNL     1     -41.234  55.356 -50.804  1.00  0.00     0.080 A 
HETATM   19  C   UNL     1     -40.752  54.005 -50.812  1.00  0.00     0.104 A 
HETATM   20  N   UNL     1     -40.590  53.566 -49.547  1.00  0.00    -0.174 NA
HETATM   21  N   UNL     1     -40.945  54.588 -48.767  1.00  0.00    -0.288 N 
HETATM   22  H   UNL     1     -40.874  54.471 -47.762  1.00  0.00     0.188 HD
HETATM   23  C   UNL     1     -41.359  55.677 -49.463  1.00  0.00     0.128 A 
BRANCH  19  24
HETATM   24  C   UNL     1     -40.472  53.083 -51.926  1.00  0.00    -0.004 A 
HETATM   25  C   UNL     1     -40.971  53.293 -53.219  1.00  0.00     0.017 A 
HETATM   26  C   UNL     1     -40.723  52.367 -54.240  1.00  0.00     0.043 A 
HETATM   27  C   UNL     1     -39.985  51.221 -53.971  1.00  0.00     0.116 A 
HETATM   28  F   UNL     1     -39.762  50.331 -54.946  1.00  0.00    -0.206 F 
HETATM   29  C   UNL     1     -39.484  50.983 -52.699  1.00  0.00     0.043 A 
HETATM   30  C   UNL     1     -39.727  51.911 -51.683  1.00  0.00     0.017 A 
ENDBRANCH  19  24
ENDBRANCH   2  18
TORSDOF 5
ENDMDL
MODEL 4
REMARK VINA RESULT:      -7.5      3.112      6.733
REMARK  5 active torsions:
REMARK  status: ('A' for Active; 'I' for Inactive)
REMARK    1  A    between atoms: C_3  and  N_4 
REMARK       I    between atoms: N_4  and  C_5 
REMARK    2  A    between atoms: C_5  and  C_6 
REMARK    3  A    between atoms: C_6  and  N_7 
REMARK       I    between atoms: N_7  and  C_8 
REMARK    4  A    between atoms: C_8  and  C_9 
REMARK    5  A    between atoms: C_10  and  C_11 
ROOT
HETATM    1  N   UNL     1     -41.254  55.625 -55.394  1.00  0.00    -0.348 N 
HETATM    2  C   UNL     1     -42.471  55.847 -55.993  1.00  0.00     0.255 C 
HETATM    3  O   UNL     1     -42.968  55.046 -56.779  1.00  0.00    -0.268 OA
HETATM    4  H   UNL     1     -40.842  56.364 -54.839  1.00  0.00     0.163 HD
ENDROOT
BRANCH   1   5
HETATM    5  C   UNL     1     -40.566  54.348 -55.446  1.00  0.00     0.226 C 
BRANCH   5   6
HETATM    6  C   UNL     1     -40.875  53.382 -54.293  1.00  0.00     0.239 C 
HETATM    7  N   UNL     1     -39.742  52.772 -53.775  1.00  0.00    -0.325 N 
HETATM    8  H   UNL     1     -38.919  52.853 -54.372  1.00  0.00     0.169 HD
HETATM    9  O   UNL     1     -42.037  53.107 -54.008  1.00  0.00    -0.271 OA
BRANCH   7  10
HETATM   10  C   UNL     1     -39.753  51.690 -52.864  1.00  0.00     0.046 A 
HETATM   11  C   UNL     1     -39.873  51.997 -51.487  1.00  0.00    -0.035 A 
HETATM   12  C   UNL     1     -39.942  53.416 -50.982  1.00  0.00     0.050 C 
HETATM   13  C   UNL     1     -39.890  50.959 -50.542  1.00  0.00     0.009 A 
HETATM   14  C   UNL     1     -39.786  49.633 -50.944  1.00  0.00     0.001 A 
HETATM   15  C   UNL     1     -39.689  49.328 -52.297  1.00  0.00     0.009 A 
HETATM   16  C   UNL     1     -39.699  50.341 -53.274  1.00  0.00    -0.035 A 
HETATM   17  C   UNL     1     -39.688  49.895 -54.712  1.00  0.00     0.050 C 
ENDBRANCH   7  10
ENDBRANCH   5   6
ENDBRANCH   1   5
BRANCH   2  18
HETATM   18  C   UNL     1     -43.092  57.100 -55.608  1.00  0.00     0.080 A 
HETATM   19  C   UNL     1     -43.168  57.764 -54.338  1.00  0.00     0.104 A 
HETATM   20  N   UNL     1     -43.800  58.948 -54.474  1.00  0.00    -0.174 NA
HETATM   21  N   UNL     1     -44.107  59.041 -55.768  1.00  0.00    -0.288 N 
HETATM   22  H   UNL     1     -44.576  59.882 -56.090  1.00  0.00     0.188 HD
HETATM   23  C   UNL     1     -43.729  57.957 -56.491  1.00  0.00     0.128 A 
BRANCH  19  24
HETATM   24  C   UNL     1     -42.725  57.344 -52.998  1.00  0.00    -0.004 A 
HETATM   25  C   UNL     1     -41.546  57.824 -52.411  1.00  0.00     0.017 A 
HETATM   26  C   UNL     1     -41.134  57.362 -51.155  1.00  0.00     0.043 A 
HETATM   27  C   UNL     1     -41.891  56.409 -50.486  1.00  0.00     0.116 A 
HETATM   28  F   UNL     1     -41.485  55.959 -49.291  1.00  0.00    -0.206 F 
HETATM   29  C   UNL     1     -43.057  55.910 -51.045  1.00  0.00     0.043 A 
HETATM   30  C   UNL     1     -43.472  56.376 -52.295  1.00  0.00     0.017 A 
ENDBRANCH  19  24
ENDBRANCH   2  18
TORSDOF 5
ENDMDL
MODEL 5
REMARK VINA RESULT:      -7.4      3.203      5.526
REMARK  5 active torsions:
REMARK  status: ('A' for Active; 'I' for Inactive)
REMARK    1  A    between atoms: C_3  and  N_4 
REMARK       I    between atoms: N_4  and  C_5 
REMARK    2  A    between atoms: C_5  and  C_6 
REMARK    3  A    between atoms: C_6  and  N_7 
REMARK       I    between atoms: N_7  and  C_8 
REMARK    4  A    between atoms: C_8  and  C_9 
REMARK    5  A    between atoms: C_10  and  C_11 
ROOT
HETATM    1  N   UNL     1     -44.809  57.592 -54.079  1.00  0.00    -0.348 N 
HETATM    2  C   UNL     1     -43.772  57.968 -54.900  1.00  0.00     0.255 C 
HETATM    3  O   UNL     1     -43.030  58.907 -54.627  1.00  0.00    -0.268 OA
HETATM    4  H   UNL     1     -45.453  56.882 -54.402  1.00  0.00     0.163 HD
ENDROOT
BRANCH   1   5
HETATM    5  C   UNL     1     -44.976  58.101 -52.730  1.00  0.00     0.226 C 
BRANCH   5   6
HETATM    6  C   UNL     1     -44.256  57.309 -51.629  1.00  0.00     0.239 C 
HETATM    7  N   UNL     1     -43.010  56.843 -52.020  1.00  0.00    -0.325 N 
HETATM    8  H   UNL     1     -42.854  56.872 -53.028  1.00  0.00     0.169 HD
HETATM    9  O   UNL     1     -44.840  57.023 -50.588  1.00  0.00    -0.271 OA
BRANCH   7  10
HETATM   10  C   UNL     1     -42.230  55.913 -51.292  1.00  0.00     0.046 A 
HETATM   11  C   UNL     1     -41.085  56.406 -50.621  1.00  0.00    -0.035 A 
HETATM   12  C   UNL     1     -40.666  57.852 -50.701  1.00  0.00     0.050 C 
HETATM   13  C   UNL     1     -40.279  55.525 -49.882  1.00  0.00     0.009 A 
HETATM   14  C   UNL     1     -40.591  54.173 -49.807  1.00  0.00     0.001 A 
HETATM   15  C   UNL     1     -41.727  53.691 -50.449  1.00  0.00     0.009 A 
HETATM   16  C   UNL     1     -42.575  54.551 -51.173  1.00  0.00    -0.035 A 
HETATM   17  C   UNL     1     -43.827  53.942 -51.744  1.00  0.00     0.050 C 
ENDBRANCH   7  10
ENDBRANCH   5   6
ENDBRANCH   1   5
BRANCH   2  18
HETATM   18  C   UNL     1     -43.651  57.157 -56.097  1.00  0.00     0.080 A 
HETATM   19  C   UNL     1     -42.999  55.899 -56.323  1.00  0.00     0.104 A 
HETATM   20  N   UNL     1     -43.204  55.495 -57.593  1.00  0.00    -0.174 NA
HETATM   21  N   UNL     1     -43.956  56.443 -58.152  1.00  0.00    -0.288 N 
HETATM   22  H   UNL     1     -44.245  56.319 -59.116  1.00  0.00     0.188 HD
HETATM   23  C   UNL     1     -44.236  57.472 -57.313  1.00  0.00     0.128 A 
BRANCH  19  24
HETATM   24  C   UNL     1     -42.161  55.071 -55.438  1.00  0.00    -0.004 A 
HETATM   25  C   UNL     1     -40.989  55.556 -54.841  1.00  0.00     0.017 A 
HETATM   26  C   UNL     1     -40.195  54.722 -54.045  1.00  0.00     0.043 A 
HETATM   27  C   UNL     1     -40.561  53.396 -53.853  1.00  0.00     0.116 A 
HETATM   28  F   UNL     1     -39.790  52.597 -53.103  1.00  0.00    -0.206 F 
HETATM   29  C   UNL     1     -41.710  52.885 -54.437  1.00  0.00     0.043 A 
HETATM   30  C   UNL     1     -42.507  53.721 -55.225  1.00  0.00     0.017 A 
ENDBRANCH  19  24
ENDBRANCH   2  18
TORSDOF 5
ENDMDL
MODEL 6
REMARK VINA RESULT:      -7.4      3.509      6.462
REMARK  5 active torsions:
REMARK  status: ('A' for Active; 'I' for Inactive)
REMARK    1  A    between atoms: C_3  and  N_4 
REMARK       I    between atoms: N_4  and  C_5 
REMARK    2  A    between atoms: C_5  and  C_6 
REMARK    3  A    between atoms: C_6  and  N_7 
REMARK       I    between atoms: N_7  and  C_8 
REMARK    4  A    between atoms: C_8  and  C_9 
REMARK    5  A    between atoms: C_10  and  C_11 
ROOT
HETATM    1  N   UNL     1     -42.851  57.157 -52.675  1.00  0.00    -0.348 N 
HETATM    2  C   UNL     1     -43.593  57.752 -53.668  1.00  0.00     0.255 C 
HETATM    3  O   UNL     1     -44.736  57.394 -53.933  1.00  0.00    -0.268 OA
HETATM    4  H   UNL     1     -41.879  57.418 -52.570  1.00  0.00     0.163 HD
ENDROOT
BRANCH   1   5
HETATM    5  C   UNL     1     -43.416  56.233 -51.709  1.00  0.00     0.226 C 
BRANCH   5   6
HETATM    6  C   UNL     1     -42.876  54.797 -51.770  1.00  0.00     0.239 C 
HETATM    7  N   UNL     1     -41.578  54.724 -52.250  1.00  0.00    -0.325 N 
HETATM    8  H   UNL     1     -41.259  55.575 -52.715  1.00  0.00     0.169 HD
HETATM    9  O   UNL     1     -43.620  53.845 -51.550  1.00  0.00    -0.271 OA
BRANCH   7  10
HETATM   10  C   UNL     1     -40.916  53.526 -52.610  1.00  0.00     0.046 A 
HETATM   11  C   UNL     1     -40.111  52.904 -51.626  1.00  0.00    -0.035 A 
HETATM   12  C   UNL     1     -39.913  53.498 -50.255  1.00  0.00     0.050 C 
HETATM   13  C   UNL     1     -39.435  51.712 -51.933  1.00  0.00     0.009 A 
HETATM   14  C   UNL     1     -39.543  51.140 -53.195  1.00  0.00     0.001 A 
HETATM   15  C   UNL     1     -40.351  51.739 -54.156  1.00  0.00     0.009 A 
HETATM   16  C   UNL     1     -41.067  52.918 -53.874  1.00  0.00    -0.035 A 
HETATM   17  C   UNL     1     -41.985  53.426 -54.952  1.00  0.00     0.050 C 
ENDBRANCH   7  10
ENDBRANCH   5   6
ENDBRANCH   1   5
BRANCH   2  18
HETATM   18  C   UNL     1     -42.896  58.822 -54.356  1.00  0.00     0.080 A 
HETATM   19  C   UNL     1     -42.490  58.956 -55.726  1.00  0.00     0.104 A 
HETATM   20  N   UNL     1     -41.920  60.163 -55.922  1.00  0.00    -0.174 NA
HETATM   21  N   UNL     1     -41.965  60.774 -54.738  1.00  0.00    -0.288 N 
HETATM   22  H   UNL     1     -41.600  61.719 -54.673  1.00  0.00     0.188 HD
HETATM   23  C   UNL     1     -42.517  60.014 -53.759  1.00  0.00     0.128 A 
BRANCH  19  24
HETATM   24  C   UNL     1     -42.564  58.012 -56.854  1.00  0.00    -0.004 A 
HETATM   25  C   UNL     1     -42.369  58.411 -58.183  1.00  0.00     0.017 A 
HETATM   26  C   UNL     1     -42.495  57.491 -59.231  1.00  0.00     0.043 A 
HETATM   27  C   UNL     1     -42.830  56.171 -58.957  1.00  0.00     0.116 A 
HETATM   28  F   UNL     1     -42.965  55.298 -59.964  1.00  0.00    -0.206 F 
HETATM   29  C   UNL     1     -43.037  55.748 -57.653  1.00  0.00     0.043 A 
HETATM   30  C   UNL     1     -42.903  56.665 -56.607  1.00  0.00     0.017 A 
ENDBRANCH  19  24
ENDBRANCH   2  18
TORSDOF 5
ENDMDL
MODEL 7
REMARK VINA RESULT:      -7.3      3.755      6.357
REMARK  5 active torsions:
REMARK  status: ('A' for Active; 'I' for Inactive)
REMARK    1  A    between atoms: C_3  and  N_4 
REMARK       I    between atoms: N_4  and  C_5 
REMARK    2  A    between atoms: C_5  and  C_6 
REMARK    3  A    between atoms: C_6  and  N_7 
REMARK       I    between atoms: N_7  and  C_8 
REMARK    4  A    between atoms: C_8  and  C_9 
REMARK    5  A    between atoms: C_10  and  C_11 
ROOT
HETATM    1  N   UNL     1     -42.635  55.428 -52.848  1.00  0.00    -0.348 N 
HETATM    2  C   UNL     1     -42.889  54.500 -51.866  1.00  0.00     0.255 C 
HETATM    3  O   UNL     1     -43.930  53.849 -51.837  1.00  0.00    -0.268 OA
HETATM    4  H   UNL     1     -41.812  56.011 -52.766  1.00  0.00     0.163 HD
ENDROOT
BRANCH   1   5
HETATM    5  C   UNL     1     -43.443  55.555 -54.048  1.00  0.00     0.226 C 
BRANCH   5   6
HETATM    6  C   UNL     1     -42.681  55.955 -55.319  1.00  0.00     0.239 C 
HETATM    7  N   UNL     1     -43.476  56.612 -56.246  1.00  0.00    -0.325 N 
HETATM    8  H   UNL     1     -44.478  56.521 -56.072  1.00  0.00     0.169 HD
HETATM    9  O   UNL     1     -41.530  55.568 -55.500  1.00  0.00    -0.271 OA
BRANCH   7  10
HETATM   10  C   UNL     1     -43.095  56.899 -57.578  1.00  0.00     0.046 A 
HETATM   11  C   UNL     1     -42.462  58.141 -57.823  1.00  0.00    -0.035 A 
HETATM   12  C   UNL     1     -42.233  59.156 -56.732  1.00  0.00     0.050 C 
HETATM   13  C   UNL     1     -42.062  58.473 -59.127  1.00  0.00     0.009 A 
HETATM   14  C   UNL     1     -42.286  57.596 -60.182  1.00  0.00     0.001 A 
HETATM   15  C   UNL     1     -42.889  56.366 -59.940  1.00  0.00     0.009 A 
HETATM   16  C   UNL     1     -43.275  55.988 -58.640  1.00  0.00    -0.035 A 
HETATM   17  C   UNL     1     -43.829  54.598 -58.476  1.00  0.00     0.050 C 
ENDBRANCH   7  10
ENDBRANCH   5   6
ENDBRANCH   1   5
BRANCH   2  18
HETATM   18  C   UNL     1     -41.824  54.374 -50.890  1.00  0.00     0.080 A 
HETATM   19  C   UNL     1     -40.693  53.493 -50.836  1.00  0.00     0.104 A 
HETATM   20  N   UNL     1     -39.932  53.785 -49.761  1.00  0.00    -0.174 NA
HETATM   21  N   UNL     1     -40.542  54.807 -49.160  1.00  0.00    -0.288 N 
HETATM   22  H   UNL     1     -40.112  55.199 -48.328  1.00  0.00     0.188 HD
HETATM   23  C   UNL     1     -41.689  55.188 -49.777  1.00  0.00     0.128 A 
BRANCH  19  24
HETATM   24  C   UNL     1     -40.300  52.369 -51.702  1.00  0.00    -0.004 A 
HETATM   25  C   UNL     1     -39.870  51.137 -51.188  1.00  0.00     0.017 A 
HETATM   26  C   UNL     1     -39.459  50.110 -52.046  1.00  0.00     0.043 A 
HETATM   27  C   UNL     1     -39.464  50.311 -53.420  1.00  0.00     0.116 A 
HETATM   28  F   UNL     1     -39.056  49.331 -54.236  1.00  0.00    -0.206 F 
HETATM   29  C   UNL     1     -39.877  51.521 -53.958  1.00  0.00     0.043 A 
HETATM   30  C   UNL     1     -40.295  52.543 -53.102  1.00  0.00     0.017 A 
ENDBRANCH  19  24
ENDBRANCH   2  18
TORSDOF 5
ENDMDL
MODEL 8
REMARK VINA RESULT:      -7.3      4.157      6.599
REMARK  5 active torsions:
REMARK  status: ('A' for Active; 'I' for Inactive)
REMARK    1  A    between atoms: C_3  and  N_4 
REMARK       I    between atoms: N_4  and  C_5 
REMARK    2  A    between atoms: C_5  and  C_6 
REMARK    3  A    between atoms: C_6  and  N_7 
REMARK       I    between atoms: N_7  and  C_8 
REMARK    4  A    between atoms: C_8  and  C_9 
REMARK    5  A    between atoms: C_10  and  C_11 
ROOT
HETATM    1  N   UNL     1     -43.122  57.982 -53.603  1.00  0.00    -0.348 N 
HETATM    2  C   UNL     1     -42.277  57.094 -52.979  1.00  0.00     0.255 C 
HETATM    3  O   UNL     1     -41.063  57.111 -53.161  1.00  0.00    -0.268 OA
HETATM    4  H   UNL     1     -44.121  57.857 -53.501  1.00  0.00     0.163 HD
ENDROOT
BRANCH   1   5
HETATM    5  C   UNL     1     -42.652  59.146 -54.331  1.00  0.00     0.226 C 
BRANCH   5   6
HETATM    6  C   UNL     1     -42.594  58.994 -55.857  1.00  0.00     0.239 C 
HETATM    7  N   UNL     1     -43.566  58.140 -56.357  1.00  0.00    -0.325 N 
HETATM    8  H   UNL     1     -44.010  57.557 -55.647  1.00  0.00     0.169 HD
HETATM    9  O   UNL     1     -41.664  59.481 -56.494  1.00  0.00    -0.271 OA
BRANCH   7  10
HETATM   10  C   UNL     1     -43.608  57.654 -57.685  1.00  0.00     0.046 A 
HETATM   11  C   UNL     1     -43.226  56.308 -57.900  1.00  0.00    -0.035 A 
HETATM   12  C   UNL     1     -42.744  55.420 -56.781  1.00  0.00     0.050 C 
HETATM   13  C   UNL     1     -43.252  55.777 -59.199  1.00  0.00     0.009 A 
HETATM   14  C   UNL     1     -43.645  56.560 -60.277  1.00  0.00     0.001 A 
HETATM   15  C   UNL     1     -44.041  57.876 -60.066  1.00  0.00     0.009 A 
HETATM   16  C   UNL     1     -44.056  58.433 -58.772  1.00  0.00    -0.035 A 
HETATM   17  C   UNL     1     -44.595  59.832 -58.645  1.00  0.00     0.050 C 
ENDBRANCH   7  10
ENDBRANCH   5   6
ENDBRANCH   1   5
BRANCH   2  18
HETATM   18  C   UNL     1     -42.956  56.157 -52.105  1.00  0.00     0.080 A 
HETATM   19  C   UNL     1     -42.698  54.774 -51.823  1.00  0.00     0.104 A 
HETATM   20  N   UNL     1     -43.561  54.325 -50.890  1.00  0.00    -0.174 NA
HETATM   21  N   UNL     1     -44.331  55.370 -50.584  1.00  0.00    -0.288 N 
HETATM   22  H   UNL     1     -45.045  55.248 -49.873  1.00  0.00     0.188 HD
HETATM   23  C   UNL     1     -44.030  56.486 -51.294  1.00  0.00     0.128 A 
BRANCH  19  24
HETATM   24  C   UNL     1     -41.722  53.834 -52.401  1.00  0.00    -0.004 A 
HETATM   25  C   UNL     1     -41.728  53.482 -53.758  1.00  0.00     0.017 A 
HETATM   26  C   UNL     1     -40.813  52.548 -54.258  1.00  0.00     0.043 A 
HETATM   27  C   UNL     1     -39.896  51.951 -53.403  1.00  0.00     0.116 A 
HETATM   28  F   UNL     1     -39.032  51.047 -53.882  1.00  0.00    -0.206 F 
HETATM   29  C   UNL     1     -39.870  52.273 -52.054  1.00  0.00     0.043 A 
HETATM   30  C   UNL     1     -40.779  53.211 -51.557  1.00  0.00     0.017 A 
ENDBRANCH  19  24
ENDBRANCH   2  18
TORSDOF 5
ENDMDL
MODEL 9
REMARK VINA RESULT:      -7.2      3.892      6.605
REMARK  5 active torsions:
REMARK  status: ('A' for Active; 'I' for Inactive)
REMARK    1  A    between atoms: C_3  and  N_4 
REMARK       I    between atoms: N_4  and  C_5 
REMARK    2  A    between atoms: C_5  and  C_6 
REMARK    3  A    between atoms: C_6  and  N_7 
REMARK       I    between atoms: N_7  and  C_8 
REMARK    4  A    between atoms: C_8  and  C_9 
REMARK    5  A    between atoms: C_10  and  C_11 
ROOT
HETATM    1  N   UNL     1     -42.730  57.264 -53.151  1.00  0.00    -0.348 N 
HETATM    2  C   UNL     1     -43.535  57.605 -54.212  1.00  0.00     0.255 C 
HETATM    3  O   UNL     1     -44.635  57.091 -54.389  1.00  0.00    -0.268 OA
HETATM    4  H   UNL     1     -41.792  57.638 -53.112  1.00  0.00     0.163 HD
ENDROOT
BRANCH   1   5
HETATM    5  C   UNL     1     -43.191  56.460 -52.033  1.00  0.00     0.226 C 
BRANCH   5   6
HETATM    6  C   UNL     1     -42.724  54.997 -52.033  1.00  0.00     0.239 C 
HETATM    7  N   UNL     1     -41.387  54.852 -52.368  1.00  0.00    -0.325 N 
HETATM    8  H   UNL     1     -40.974  55.681 -52.797  1.00  0.00     0.169 HD
HETATM    9  O   UNL     1     -43.537  54.087 -51.893  1.00  0.00    -0.271 OA
BRANCH   7  10
HETATM   10  C   UNL     1     -40.754  53.619 -52.652  1.00  0.00     0.046 A 
HETATM   11  C   UNL     1     -40.594  53.265 -54.014  1.00  0.00    -0.035 A 
HETATM   12  C   UNL     1     -41.110  54.131 -55.135  1.00  0.00     0.050 C 
HETATM   13  C   UNL     1     -39.972  52.053 -54.348  1.00  0.00     0.009 A 
HETATM   14  C   UNL     1     -39.515  51.193 -53.357  1.00  0.00     0.001 A 
HETATM   15  C   UNL     1     -39.652  51.548 -52.020  1.00  0.00     0.009 A 
HETATM   16  C   UNL     1     -40.244  52.770 -51.647  1.00  0.00    -0.035 A 
HETATM   17  C   UNL     1     -40.254  53.098 -50.178  1.00  0.00     0.050 C 
ENDBRANCH   7  10
ENDBRANCH   5   6
ENDBRANCH   1   5
BRANCH   2  18
HETATM   18  C   UNL     1     -42.959  58.612 -55.082  1.00  0.00     0.080 A 
HETATM   19  C   UNL     1     -42.882  58.691 -56.513  1.00  0.00     0.104 A 
HETATM   20  N   UNL     1     -42.304  59.853 -56.881  1.00  0.00    -0.174 NA
HETATM   21  N   UNL     1     -42.029  60.490 -55.742  1.00  0.00    -0.288 N 
HETATM   22  H   UNL     1     -41.604  61.410 -55.798  1.00  0.00     0.188 HD
HETATM   23  C   UNL     1     -42.378  59.788 -54.634  1.00  0.00     0.128 A 
BRANCH  19  24
HETATM   24  C   UNL     1     -43.277  57.731 -57.558  1.00  0.00    -0.004 A 
HETATM   25  C   UNL     1     -42.895  56.383 -57.524  1.00  0.00     0.017 A 
HETATM   26  C   UNL     1     -43.251  55.513 -58.562  1.00  0.00     0.043 A 
HETATM   27  C   UNL     1     -43.979  55.989 -59.645  1.00  0.00     0.116 A 
HETATM   28  F   UNL     1     -44.305  55.158 -60.643  1.00  0.00    -0.206 F 
HETATM   29  C   UNL     1     -44.365  57.320 -59.710  1.00  0.00     0.043 A 
HETATM   30  C   UNL     1     -44.016  58.185 -58.670  1.00  0.00     0.017 A 
ENDBRANCH  19  24
ENDBRANCH   2  18
TORSDOF 5
ENDMDL
MODEL 10
REMARK VINA RESULT:      -7.2      4.858      7.241
REMARK  5 active torsions:
REMARK  status: ('A' for Active; 'I' for Inactive)
REMARK    1  A    between atoms: C_3  and  N_4 
REMARK       I    between atoms: N_4  and  C_5 
REMARK    2  A    between atoms: C_5  and  C_6 
REMARK    3  A    between atoms: C_6  and  N_7 
REMARK       I    between atoms: N_7  and  C_8 
REMARK    4  A    between atoms: C_8  and  C_9 
REMARK    5  A    between atoms: C_10  and  C_11 
ROOT
HETATM    1  N   UNL     1     -43.002  57.504 -54.952  1.00  0.00    -0.348 N 
HETATM    2  C   UNL     1     -42.203  57.074 -53.919  1.00  0.00     0.255 C 
HETATM    3  O   UNL     1     -40.990  57.263 -53.910  1.00  0.00    -0.268 OA
HETATM    4  H   UNL     1     -43.975  57.230 -54.961  1.00  0.00     0.163 HD
ENDROOT
BRANCH   1   5
HETATM    5  C   UNL     1     -42.540  58.407 -55.990  1.00  0.00     0.226 C 
BRANCH   5   6
HETATM    6  C   UNL     1     -43.315  58.348 -57.313  1.00  0.00     0.239 C 
HETATM    7  N   UNL     1     -44.206  57.288 -57.376  1.00  0.00    -0.325 N 
HETATM    8  H   UNL     1     -44.050  56.573 -56.664  1.00  0.00     0.169 HD
HETATM    9  O   UNL     1     -43.020  59.099 -58.239  1.00  0.00    -0.271 OA
BRANCH   7  10
HETATM   10  C   UNL     1     -44.885  56.871 -58.545  1.00  0.00     0.046 A 
HETATM   11  C   UNL     1     -46.230  57.285 -58.701  1.00  0.00    -0.035 A 
HETATM   12  C   UNL     1     -46.948  58.099 -57.655  1.00  0.00     0.050 C 
HETATM   13  C   UNL     1     -46.948  56.899 -59.844  1.00  0.00     0.009 A 
HETATM   14  C   UNL     1     -46.353  56.112 -60.823  1.00  0.00     0.001 A 
HETATM   15  C   UNL     1     -45.026  55.722 -60.681  1.00  0.00     0.009 A 
HETATM   16  C   UNL     1     -44.266  56.115 -59.563  1.00  0.00    -0.035 A 
HETATM   17  C   UNL     1     -42.814  55.720 -59.558  1.00  0.00     0.050 C 
ENDBRANCH   7  10
ENDBRANCH   5   6
ENDBRANCH   1   5
BRANCH   2  18
HETATM   18  C   UNL     1     -42.927  56.389 -52.866  1.00  0.00     0.080 A 
HETATM   19  C   UNL     1     -42.733  55.096 -52.275  1.00  0.00     0.104 A 
HETATM   20  N   UNL     1     -43.620  54.907 -51.277  1.00  0.00    -0.174 NA
HETATM   21  N   UNL     1     -44.343  56.027 -51.227  1.00  0.00    -0.288 N 
HETATM   22  H   UNL     1     -45.065  56.099 -50.517  1.00  0.00     0.188 HD
HETATM   23  C   UNL     1     -43.989  56.939 -52.166  1.00  0.00     0.128 A 
BRANCH  19  24
HETATM   24  C   UNL     1     -41.797  54.009 -52.611  1.00  0.00    -0.004 A 
HETATM   25  C   UNL     1     -40.872  53.501 -51.689  1.00  0.00     0.017 A 
HETATM   26  C   UNL     1     -39.966  52.500 -52.063  1.00  0.00     0.043 A 
HETATM   27  C   UNL     1     -39.973  52.012 -53.363  1.00  0.00     0.116 A 
HETATM   28  F   UNL     1     -39.095  51.065 -53.720  1.00  0.00    -0.206 F 
HETATM   29  C   UNL     1     -40.871  52.500 -54.299  1.00  0.00     0.043 A 
HETATM   30  C   UNL     1     -41.780  53.493 -53.924  1.00  0.00     0.017 A 
ENDBRANCH  19  24
ENDBRANCH   2  18
TORSDOF 5
ENDMDL
