MODEL 1
REMARK VINA RESULT:      -8.2      0.000      0.000
REMARK  5 active torsions:
REMARK  status: ('A' for Active; 'I' for Inactive)
REMARK    1  A    between atoms: C_6  and  N_7 
REMARK       I    between atoms: N_7  and  C_8 
REMARK    2  A    between atoms: C_8  and  C_9 
REMARK    3  A    between atoms: C_9  and  C_10 
REMARK    4  A    between atoms: C_13  and  O_14 
REMARK    5  A    between atoms: C_19  and  C_20 
ROOT
HETATM    1  C   UNL     1     -44.953  58.358 -51.504  1.00  0.00     0.073 C 
HETATM    2  C   UNL     1     -44.469  57.535 -52.641  1.00  0.00     0.065 A 
HETATM    3  N   UNL     1     -44.934  57.765 -53.875  1.00  0.00    -0.177 NA
HETATM    4  N   UNL     1     -44.282  56.869 -54.637  1.00  0.00    -0.262 N 
HETATM    5  H   UNL     1     -44.458  56.836 -55.639  1.00  0.00     0.191 HD
HETATM    6  C   UNL     1     -43.425  56.062 -53.935  1.00  0.00     0.137 A 
HETATM    7  C   UNL     1     -43.519  56.474 -52.620  1.00  0.00     0.046 A 
ENDROOT
BRANCH   6   8
HETATM    8  N   UNL     1     -42.665  55.059 -54.513  1.00  0.00    -0.311 N 
HETATM    9  C   UNL     1     -41.295  55.188 -54.704  1.00  0.00     0.227 C 
HETATM   10  O   UNL     1     -40.654  56.190 -54.390  1.00  0.00    -0.273 OA
HETATM   11  H   UNL     1     -43.144  54.210 -54.791  1.00  0.00     0.170 HD
BRANCH   9  12
HETATM   12  C   UNL     1     -40.671  53.921 -55.273  1.00  0.00     0.141 C 
BRANCH  12  13
HETATM   13  C   UNL     1     -40.278  52.881 -54.252  1.00  0.00    -0.049 A 
HETATM   14  C   UNL     1     -40.229  53.200 -52.890  1.00  0.00     0.010 A 
HETATM   15  C   UNL     1     -39.906  52.223 -51.945  1.00  0.00     0.037 A 
HETATM   16  C   UNL     1     -39.640  50.910 -52.338  1.00  0.00     0.068 A 
HETATM   17  C   UNL     1     -39.671  50.588 -53.694  1.00  0.00     0.037 A 
HETATM   18  C   UNL     1     -39.987  51.568 -54.645  1.00  0.00     0.010 A 
BRANCH  16  19
HETATM   19  O   UNL     1     -39.359  50.050 -51.314  1.00  0.00    -0.356 OA
HETATM   20  C   UNL     1     -40.113  50.211 -50.119  1.00  0.00     0.210 C 
ENDBRANCH  16  19
ENDBRANCH  12  13
ENDBRANCH   9  12
ENDBRANCH   6   8
BRANCH   7  21
HETATM   21  C   UNL     1     -42.782  55.898 -51.513  1.00  0.00    -0.020 A 
HETATM   22  C   UNL     1     -43.167  54.668 -50.965  1.00  0.00     0.014 A 
HETATM   23  C   UNL     1     -42.454  54.116 -49.898  1.00  0.00     0.020 A 
HETATM   24  C   UNL     1     -41.348  54.792 -49.384  1.00  0.00     0.011 A 
HETATM   25 BR   UNL     1     -40.380  54.045 -47.943  1.00  0.00    -0.051 Br
HETATM   26  C   UNL     1     -40.949  56.011 -49.927  1.00  0.00     0.020 A 
HETATM   27  C   UNL     1     -41.666  56.564 -50.991  1.00  0.00     0.014 A 
ENDBRANCH   7  21
TORSDOF 5
ENDMDL
MODEL 2
REMARK VINA RESULT:      -7.7      3.429      7.088
REMARK  5 active torsions:
REMARK  status: ('A' for Active; 'I' for Inactive)
REMARK    1  A    between atoms: C_6  and  N_7 
REMARK       I    between atoms: N_7  and  C_8 
REMARK    2  A    between atoms: C_8  and  C_9 
REMARK    3  A    between atoms: C_9  and  C_10 
REMARK    4  A    between atoms: C_13  and  O_14 
REMARK    5  A    between atoms: C_19  and  C_20 
ROOT
HETATM    1  C   UNL     1     -40.134  50.168 -54.446  1.00  0.00     0.073 C 
HETATM    2  C   UNL     1     -39.998  51.075 -53.279  1.00  0.00     0.065 A 
HETATM    3  N   UNL     1     -39.442  50.626 -52.147  1.00  0.00    -0.177 NA
HETATM    4  N   UNL     1     -39.467  51.694 -51.330  1.00  0.00    -0.262 N 
HETATM    5  H   UNL     1     -39.092  51.618 -50.388  1.00  0.00     0.191 HD
HETATM    6  C   UNL     1     -40.031  52.810 -51.892  1.00  0.00     0.137 A 
HETATM    7  C   UNL     1     -40.388  52.441 -53.175  1.00  0.00     0.046 A 
ENDROOT
BRANCH   6   8
HETATM    8  N   UNL     1     -40.176  54.017 -51.229  1.00  0.00    -0.311 N 
HETATM    9  C   UNL     1     -41.392  54.423 -50.694  1.00  0.00     0.227 C 
HETATM   10  O   UNL     1     -42.426  53.761 -50.770  1.00  0.00    -0.273 OA
HETATM   11  H   UNL     1     -39.354  54.602 -51.137  1.00  0.00     0.170 HD
BRANCH   9  12
HETATM   12  C   UNL     1     -41.278  55.741 -49.938  1.00  0.00     0.141 C 
BRANCH  12  13
HETATM   13  C   UNL     1     -41.326  56.982 -50.796  1.00  0.00    -0.049 A 
HETATM   14  C   UNL     1     -41.829  56.930 -52.101  1.00  0.00     0.010 A 
HETATM   15  C   UNL     1     -41.911  58.090 -52.875  1.00  0.00     0.037 A 
HETATM   16  C   UNL     1     -41.505  59.322 -52.359  1.00  0.00     0.068 A 
HETATM   17  C   UNL     1     -40.988  59.379 -51.065  1.00  0.00     0.037 A 
HETATM   18  C   UNL     1     -40.898  58.217 -50.289  1.00  0.00     0.010 A 
BRANCH  16  19
HETATM   19  O   UNL     1     -41.657  60.380 -53.211  1.00  0.00    -0.356 OA
HETATM   20  C   UNL     1     -42.066  60.076 -54.539  1.00  0.00     0.210 C 
ENDBRANCH  16  19
ENDBRANCH  12  13
ENDBRANCH   9  12
ENDBRANCH   6   8
BRANCH   7  21
HETATM   21  C   UNL     1     -41.024  53.311 -54.144  1.00  0.00    -0.020 A 
HETATM   22  C   UNL     1     -42.412  53.273 -54.331  1.00  0.00     0.014 A 
HETATM   23  C   UNL     1     -43.021  54.113 -55.267  1.00  0.00     0.020 A 
HETATM   24  C   UNL     1     -42.242  54.998 -56.010  1.00  0.00     0.011 A 
HETATM   25 BR   UNL     1     -43.065  56.137 -57.273  1.00  0.00    -0.051 Br
HETATM   26  C   UNL     1     -40.862  55.052 -55.827  1.00  0.00     0.020 A 
HETATM   27  C   UNL     1     -40.253  54.208 -54.893  1.00  0.00     0.014 A 
ENDBRANCH   7  21
TORSDOF 5
ENDMDL
MODEL 3
REMARK VINA RESULT:      -7.4      3.215      4.477
REMARK  5 active torsions:
REMARK  status: ('A' for Active; 'I' for Inactive)
REMARK    1  A    between atoms: C_6  and  N_7 
REMARK       I    between atoms: N_7  and  C_8 
REMARK    2  A    between atoms: C_8  and  C_9 
REMARK    3  A    between atoms: C_9  and  C_10 
REMARK    4  A    between atoms: C_13  and  O_14 
REMARK    5  A    between atoms: C_19  and  C_20 
ROOT
HETATM    1  C   UNL     1     -42.876  60.857 -52.534  1.00  0.00     0.073 C 
HETATM    2  C   UNL     1     -42.245  59.871 -51.623  1.00  0.00     0.065 A 
HETATM    3  N   UNL     1     -41.856  60.248 -50.398  1.00  0.00    -0.177 NA
HETATM    4  N   UNL     1     -41.356  59.124 -49.858  1.00  0.00    -0.262 N 
HETATM    5  H   UNL     1     -40.987  59.140 -48.909  1.00  0.00     0.191 HD
HETATM    6  C   UNL     1     -41.396  58.039 -50.695  1.00  0.00     0.137 A 
HETATM    7  C   UNL     1     -41.978  58.493 -51.863  1.00  0.00     0.046 A 
ENDROOT
BRANCH   6   8
HETATM    8  N   UNL     1     -40.919  56.785 -50.354  1.00  0.00    -0.311 N 
HETATM    9  C   UNL     1     -41.768  55.707 -50.136  1.00  0.00     0.227 C 
HETATM   10  O   UNL     1     -42.994  55.776 -50.217  1.00  0.00    -0.273 OA
HETATM   11  H   UNL     1     -39.916  56.671 -50.274  1.00  0.00     0.170 HD
BRANCH   9  12
HETATM   12  C   UNL     1     -41.005  54.418 -49.862  1.00  0.00     0.141 C 
BRANCH  12  13
HETATM   13  C   UNL     1     -40.737  53.557 -51.074  1.00  0.00    -0.049 A 
HETATM   14  C   UNL     1     -41.296  53.880 -52.316  1.00  0.00     0.010 A 
HETATM   15  C   UNL     1     -41.010  53.105 -53.443  1.00  0.00     0.037 A 
HETATM   16  C   UNL     1     -40.155  52.006 -53.355  1.00  0.00     0.068 A 
HETATM   17  C   UNL     1     -39.606  51.669 -52.118  1.00  0.00     0.037 A 
HETATM   18  C   UNL     1     -39.897  52.440 -50.985  1.00  0.00     0.010 A 
BRANCH  16  19
HETATM   19  O   UNL     1     -39.943  51.347 -54.534  1.00  0.00    -0.356 OA
HETATM   20  C   UNL     1     -39.959  49.926 -54.484  1.00  0.00     0.210 C 
ENDBRANCH  16  19
ENDBRANCH  12  13
ENDBRANCH   9  12
ENDBRANCH   6   8
BRANCH   7  21
HETATM   21  C   UNL     1     -42.226  57.682 -53.039  1.00  0.00    -0.020 A 
HETATM   22  C   UNL     1     -41.168  57.301 -53.876  1.00  0.00     0.014 A 
HETATM   23  C   UNL     1     -41.412  56.519 -55.008  1.00  0.00     0.020 A 
HETATM   24  C   UNL     1     -42.712  56.111 -55.299  1.00  0.00     0.011 A 
HETATM   25 BR   UNL     1     -43.042  55.050 -56.828  1.00  0.00    -0.051 Br
HETATM   26  C   UNL     1     -43.770  56.475 -54.469  1.00  0.00     0.020 A 
HETATM   27  C   UNL     1     -43.527  57.260 -53.339  1.00  0.00     0.014 A 
ENDBRANCH   7  21
TORSDOF 5
ENDMDL
MODEL 4
REMARK VINA RESULT:      -7.1      3.064      4.262
REMARK  5 active torsions:
REMARK  status: ('A' for Active; 'I' for Inactive)
REMARK    1  A    between atoms: C_6  and  N_7 
REMARK       I    between atoms: N_7  and  C_8 
REMARK    2  A    between atoms: C_8  and  C_9 
REMARK    3  A    between atoms: C_9  and  C_10 
REMARK    4  A    between atoms: C_13  and  O_14 
REMARK    5  A    between atoms: C_19  and  C_20 
ROOT
HETATM    1  C   UNL     1     -43.904  59.251 -57.583  1.00  0.00     0.073 C 
HETATM    2  C   UNL     1     -43.278  57.945 -57.257  1.00  0.00     0.065 A 
HETATM    3  N   UNL     1     -43.163  57.006 -58.206  1.00  0.00    -0.177 NA
HETATM    4  N   UNL     1     -42.549  55.988 -57.578  1.00  0.00    -0.262 N 
HETATM    5  H   UNL     1     -42.338  55.134 -58.089  1.00  0.00     0.191 HD
HETATM    6  C   UNL     1     -42.278  56.232 -56.256  1.00  0.00     0.137 A 
HETATM    7  C   UNL     1     -42.740  57.511 -56.012  1.00  0.00     0.046 A 
ENDROOT
BRANCH   6   8
HETATM    8  N   UNL     1     -41.667  55.319 -55.414  1.00  0.00    -0.311 N 
HETATM    9  C   UNL     1     -42.248  54.094 -55.109  1.00  0.00     0.227 C 
HETATM   10  O   UNL     1     -43.337  53.727 -55.546  1.00  0.00    -0.273 OA
HETATM   11  H   UNL     1     -40.766  55.570 -55.025  1.00  0.00     0.170 HD
BRANCH   9  12
HETATM   12  C   UNL     1     -41.346  53.230 -54.236  1.00  0.00     0.141 C 
BRANCH  12  13
HETATM   13  C   UNL     1     -41.402  53.529 -52.757  1.00  0.00    -0.049 A 
HETATM   14  C   UNL     1     -40.269  53.365 -51.952  1.00  0.00     0.010 A 
HETATM   15  C   UNL     1     -40.315  53.684 -50.592  1.00  0.00     0.037 A 
HETATM   16  C   UNL     1     -41.485  54.182 -50.015  1.00  0.00     0.068 A 
HETATM   17  C   UNL     1     -42.622  54.332 -50.808  1.00  0.00     0.037 A 
HETATM   18  C   UNL     1     -42.581  54.007 -52.170  1.00  0.00     0.010 A 
BRANCH  16  19
HETATM   19  O   UNL     1     -41.389  54.472 -48.683  1.00  0.00    -0.356 OA
HETATM   20  C   UNL     1     -40.329  53.850 -47.968  1.00  0.00     0.210 C 
ENDBRANCH  16  19
ENDBRANCH  12  13
ENDBRANCH   9  12
ENDBRANCH   6   8
BRANCH   7  21
HETATM   21  C   UNL     1     -42.662  58.194 -54.736  1.00  0.00    -0.020 A 
HETATM   22  C   UNL     1     -43.504  57.824 -53.679  1.00  0.00     0.014 A 
HETATM   23  C   UNL     1     -43.426  58.485 -52.450  1.00  0.00     0.020 A 
HETATM   24  C   UNL     1     -42.499  59.511 -52.276  1.00  0.00     0.011 A 
HETATM   25 BR   UNL     1     -42.390  60.403 -50.614  1.00  0.00    -0.051 Br
HETATM   26  C   UNL     1     -41.650  59.882 -53.316  1.00  0.00     0.020 A 
HETATM   27  C   UNL     1     -41.731  59.223 -54.546  1.00  0.00     0.014 A 
ENDBRANCH   7  21
TORSDOF 5
ENDMDL
MODEL 5
REMARK VINA RESULT:      -7.1      3.919      6.473
REMARK  5 active torsions:
REMARK  status: ('A' for Active; 'I' for Inactive)
REMARK    1  A    between atoms: C_6  and  N_7 
REMARK       I    between atoms: N_7  and  C_8 
REMARK    2  A    between atoms: C_8  and  C_9 
REMARK    3  A    between atoms: C_9  and  C_10 
REMARK    4  A    between atoms: C_13  and  O_14 
REMARK    5  A    between atoms: C_19  and  C_20 
ROOT
HETATM    1  C   UNL     1     -41.654  54.754 -49.498  1.00  0.00     0.073 C 
HETATM    2  C   UNL     1     -41.719  55.598 -50.718  1.00  0.00     0.065 A 
HETATM    3  N   UNL     1     -42.105  56.877 -50.623  1.00  0.00    -0.177 NA
HETATM    4  N   UNL     1     -42.031  57.331 -51.887  1.00  0.00    -0.262 N 
HETATM    5  H   UNL     1     -42.276  58.297 -52.091  1.00  0.00     0.191 HD
HETATM    6  C   UNL     1     -41.626  56.385 -52.793  1.00  0.00     0.137 A 
HETATM    7  C   UNL     1     -41.408  55.235 -52.059  1.00  0.00     0.046 A 
ENDROOT
BRANCH   6   8
HETATM    8  N   UNL     1     -41.497  56.626 -54.150  1.00  0.00    -0.311 N 
HETATM    9  C   UNL     1     -42.600  56.760 -54.985  1.00  0.00     0.227 C 
HETATM   10  O   UNL     1     -43.764  56.670 -54.596  1.00  0.00    -0.273 OA
HETATM   11  H   UNL     1     -40.558  56.710 -54.524  1.00  0.00     0.170 HD
BRANCH   9  12
HETATM   12  C   UNL     1     -42.203  57.108 -56.413  1.00  0.00     0.141 C 
BRANCH  12  13
HETATM   13  C   UNL     1     -43.185  56.680 -57.477  1.00  0.00    -0.049 A 
HETATM   14  C   UNL     1     -44.168  57.564 -57.939  1.00  0.00     0.010 A 
HETATM   15  C   UNL     1     -45.047  57.178 -58.954  1.00  0.00     0.037 A 
HETATM   16  C   UNL     1     -44.954  55.912 -59.535  1.00  0.00     0.068 A 
HETATM   17  C   UNL     1     -43.988  55.021 -59.069  1.00  0.00     0.037 A 
HETATM   18  C   UNL     1     -43.110  55.402 -58.047  1.00  0.00     0.010 A 
BRANCH  16  19
HETATM   19  O   UNL     1     -45.859  55.669 -60.530  1.00  0.00    -0.356 OA
HETATM   20  C   UNL     1     -47.104  56.352 -60.442  1.00  0.00     0.210 C 
ENDBRANCH  16  19
ENDBRANCH  12  13
ENDBRANCH   9  12
ENDBRANCH   6   8
BRANCH   7  21
HETATM   21  C   UNL     1     -40.963  53.970 -52.608  1.00  0.00    -0.020 A 
HETATM   22  C   UNL     1     -41.413  53.542 -53.864  1.00  0.00     0.014 A 
HETATM   23  C   UNL     1     -40.982  52.321 -54.390  1.00  0.00     0.020 A 
HETATM   24  C   UNL     1     -40.094  51.532 -53.663  1.00  0.00     0.011 A 
HETATM   25 BR   UNL     1     -39.507  49.882 -54.374  1.00  0.00    -0.051 Br
HETATM   26  C   UNL     1     -39.632  51.951 -52.417  1.00  0.00     0.020 A 
HETATM   27  C   UNL     1     -40.066  53.170 -51.890  1.00  0.00     0.014 A 
ENDBRANCH   7  21
TORSDOF 5
ENDMDL
MODEL 6
REMARK VINA RESULT:      -7.0      4.348      5.919
REMARK  5 active torsions:
REMARK  status: ('A' for Active; 'I' for Inactive)
REMARK    1  A    between atoms: C_6  and  N_7 
REMARK       I    between atoms: N_7  and  C_8 
REMARK    2  A    between atoms: C_8  and  C_9 
REMARK    3  A    between atoms: C_9  and  C_10 
REMARK    4  A    between atoms: C_13  and  O_14 
REMARK    5  A    between atoms: C_19  and  C_20 
ROOT
HETATM    1  C   UNL     1     -42.114  60.759 -57.845  1.00  0.00     0.073 C 
HETATM    2  C   UNL     1     -42.177  59.858 -56.667  1.00  0.00     0.065 A 
HETATM    3  N   UNL     1     -41.727  60.281 -55.479  1.00  0.00    -0.177 NA
HETATM    4  N   UNL     1     -41.951  59.239 -54.660  1.00  0.00    -0.262 N 
HETATM    5  H   UNL     1     -41.695  59.305 -53.677  1.00  0.00     0.191 HD
HETATM    6  C   UNL     1     -42.517  58.155 -55.281  1.00  0.00     0.137 A 
HETATM    7  C   UNL     1     -42.684  58.528 -56.601  1.00  0.00     0.046 A 
ENDROOT
BRANCH   6   8
HETATM    8  N   UNL     1     -42.818  56.968 -54.635  1.00  0.00    -0.311 N 
HETATM    9  C   UNL     1     -42.048  56.483 -53.585  1.00  0.00     0.227 C 
HETATM   10  O   UNL     1     -41.046  57.053 -53.154  1.00  0.00    -0.273 OA
HETATM   11  H   UNL     1     -43.635  56.458 -54.951  1.00  0.00     0.170 HD
BRANCH   9  12
HETATM   12  C   UNL     1     -42.630  55.211 -52.983  1.00  0.00     0.141 C 
BRANCH  12  13
HETATM   13  C   UNL     1     -41.740  53.994 -53.061  1.00  0.00    -0.049 A 
HETATM   14  C   UNL     1     -41.649  53.251 -54.244  1.00  0.00     0.010 A 
HETATM   15  C   UNL     1     -40.791  52.151 -54.325  1.00  0.00     0.037 A 
HETATM   16  C   UNL     1     -40.000  51.782 -53.235  1.00  0.00     0.068 A 
HETATM   17  C   UNL     1     -40.097  52.508 -52.049  1.00  0.00     0.037 A 
HETATM   18  C   UNL     1     -40.962  53.607 -51.963  1.00  0.00     0.010 A 
BRANCH  16  19
HETATM   19  O   UNL     1     -39.191  50.702 -53.453  1.00  0.00    -0.356 OA
HETATM   20  C   UNL     1     -39.592  49.799 -54.475  1.00  0.00     0.210 C 
ENDBRANCH  16  19
ENDBRANCH  12  13
ENDBRANCH   9  12
ENDBRANCH   6   8
BRANCH   7  21
HETATM   21  C   UNL     1     -43.253  57.689 -57.636  1.00  0.00    -0.020 A 
HETATM   22  C   UNL     1     -44.570  57.890 -58.071  1.00  0.00     0.014 A 
HETATM   23  C   UNL     1     -45.114  57.079 -59.070  1.00  0.00     0.020 A 
HETATM   24  C   UNL     1     -44.339  56.072 -59.641  1.00  0.00     0.011 A 
HETATM   25 BR   UNL     1     -45.073  54.977 -60.994  1.00  0.00    -0.051 Br
HETATM   26  C   UNL     1     -43.025  55.869 -59.224  1.00  0.00     0.020 A 
HETATM   27  C   UNL     1     -42.482  56.678 -58.222  1.00  0.00     0.014 A 
ENDBRANCH   7  21
TORSDOF 5
ENDMDL
MODEL 7
REMARK VINA RESULT:      -6.9      2.503      4.928
REMARK  5 active torsions:
REMARK  status: ('A' for Active; 'I' for Inactive)
REMARK    1  A    between atoms: C_6  and  N_7 
REMARK       I    between atoms: N_7  and  C_8 
REMARK    2  A    between atoms: C_8  and  C_9 
REMARK    3  A    between atoms: C_9  and  C_10 
REMARK    4  A    between atoms: C_13  and  O_14 
REMARK    5  A    between atoms: C_19  and  C_20 
ROOT
HETATM    1  C   UNL     1     -43.148  55.440 -58.507  1.00  0.00     0.073 C 
HETATM    2  C   UNL     1     -43.236  56.343 -57.332  1.00  0.00     0.065 A 
HETATM    3  N   UNL     1     -43.838  57.533 -57.449  1.00  0.00    -0.177 NA
HETATM    4  N   UNL     1     -43.751  58.062 -56.216  1.00  0.00    -0.262 N 
HETATM    5  H   UNL     1     -44.143  58.983 -56.033  1.00  0.00     0.191 HD
HETATM    6  C   UNL     1     -43.102  57.260 -55.313  1.00  0.00     0.137 A 
HETATM    7  C   UNL     1     -42.753  56.120 -56.011  1.00  0.00     0.046 A 
ENDROOT
BRANCH   6   8
HETATM    8  N   UNL     1     -42.882  57.610 -53.992  1.00  0.00    -0.311 N 
HETATM    9  C   UNL     1     -43.927  57.817 -53.099  1.00  0.00     0.227 C 
HETATM   10  O   UNL     1     -45.115  57.716 -53.404  1.00  0.00    -0.273 OA
HETATM   11  H   UNL     1     -41.921  57.707 -53.687  1.00  0.00     0.170 HD
BRANCH   9  12
HETATM   12  C   UNL     1     -43.431  58.105 -51.688  1.00  0.00     0.141 C 
BRANCH  12  13
HETATM   13  C   UNL     1     -42.710  56.963 -51.013  1.00  0.00    -0.049 A 
HETATM   14  C   UNL     1     -43.334  55.721 -50.848  1.00  0.00     0.010 A 
HETATM   15  C   UNL     1     -42.647  54.655 -50.262  1.00  0.00     0.037 A 
HETATM   16  C   UNL     1     -41.324  54.804 -49.842  1.00  0.00     0.068 A 
HETATM   17  C   UNL     1     -40.701  56.043 -49.989  1.00  0.00     0.037 A 
HETATM   18  C   UNL     1     -41.390  57.115 -50.569  1.00  0.00     0.010 A 
BRANCH  16  19
HETATM   19  O   UNL     1     -40.763  53.679 -49.305  1.00  0.00    -0.356 OA
HETATM   20  C   UNL     1     -40.429  53.729 -47.924  1.00  0.00     0.210 C 
ENDBRANCH  16  19
ENDBRANCH  12  13
ENDBRANCH   9  12
ENDBRANCH   6   8
BRANCH   7  21
HETATM   21  C   UNL     1     -42.045  54.986 -55.451  1.00  0.00    -0.020 A 
HETATM   22  C   UNL     1     -42.750  53.888 -54.942  1.00  0.00     0.014 A 
HETATM   23  C   UNL     1     -42.062  52.797 -54.403  1.00  0.00     0.020 A 
HETATM   24  C   UNL     1     -40.669  52.801 -54.382  1.00  0.00     0.011 A 
HETATM   25 BR   UNL     1     -39.738  51.324 -53.657  1.00  0.00    -0.051 Br
HETATM   26  C   UNL     1     -39.957  53.883 -54.895  1.00  0.00     0.020 A 
HETATM   27  C   UNL     1     -40.645  54.975 -55.429  1.00  0.00     0.014 A 
ENDBRANCH   7  21
TORSDOF 5
ENDMDL
MODEL 8
REMARK VINA RESULT:      -6.9     14.347     16.485
REMARK  5 active torsions:
REMARK  status: ('A' for Active; 'I' for Inactive)
REMARK    1  A    between atoms: C_6  and  N_7 
REMARK       I    between atoms: N_7  and  C_8 
REMARK    2  A    between atoms: C_8  and  C_9 
REMARK    3  A    between atoms: C_9  and  C_10 
REMARK    4  A    between atoms: C_13  and  O_14 
REMARK    5  A    between atoms: C_19  and  C_20 
ROOT
HETATM    1  C   UNL     1     -31.924  39.476 -51.778  1.00  0.00     0.073 C 
HETATM    2  C   UNL     1     -32.784  40.002 -52.867  1.00  0.00     0.065 A 
HETATM    3  N   UNL     1     -32.225  40.497 -53.979  1.00  0.00    -0.177 NA
HETATM    4  N   UNL     1     -33.277  40.856 -54.736  1.00  0.00    -0.262 N 
HETATM    5  H   UNL     1     -33.121  41.267 -55.654  1.00  0.00     0.191 HD
HETATM    6  C   UNL     1     -34.492  40.624 -54.145  1.00  0.00     0.137 A 
HETATM    7  C   UNL     1     -34.207  40.059 -52.917  1.00  0.00     0.046 A 
ENDROOT
BRANCH   6   8
HETATM    8  N   UNL     1     -35.706  40.932 -54.734  1.00  0.00    -0.311 N 
HETATM    9  C   UNL     1     -35.880  42.068 -55.516  1.00  0.00     0.227 C 
HETATM   10  O   UNL     1     -34.988  42.885 -55.740  1.00  0.00    -0.273 OA
HETATM   11  H   UNL     1     -36.476  40.292 -54.583  1.00  0.00     0.170 HD
BRANCH   9  12
HETATM   12  C   UNL     1     -37.274  42.141 -56.124  1.00  0.00     0.141 C 
BRANCH  12  13
HETATM   13  C   UNL     1     -37.422  41.490 -57.479  1.00  0.00    -0.049 A 
HETATM   14  C   UNL     1     -37.097  42.189 -58.647  1.00  0.00     0.010 A 
HETATM   15  C   UNL     1     -37.194  41.567 -59.894  1.00  0.00     0.037 A 
HETATM   16  C   UNL     1     -37.604  40.237 -59.998  1.00  0.00     0.068 A 
HETATM   17  C   UNL     1     -37.944  39.539 -58.840  1.00  0.00     0.037 A 
HETATM   18  C   UNL     1     -37.855  40.162 -57.589  1.00  0.00     0.010 A 
BRANCH  16  19
HETATM   19  O   UNL     1     -37.636  39.744 -61.273  1.00  0.00    -0.356 OA
HETATM   20  C   UNL     1     -36.695  38.725 -61.588  1.00  0.00     0.210 C 
ENDBRANCH  16  19
ENDBRANCH  12  13
ENDBRANCH   9  12
ENDBRANCH   6   8
BRANCH   7  21
HETATM   21  C   UNL     1     -35.196  39.645 -51.942  1.00  0.00    -0.020 A 
HETATM   22  C   UNL     1     -35.554  40.495 -50.887  1.00  0.00     0.014 A 
HETATM   23  C   UNL     1     -36.509  40.091 -49.950  1.00  0.00     0.020 A 
HETATM   24  C   UNL     1     -37.111  38.841 -50.072  1.00  0.00     0.011 A 
HETATM   25 BR   UNL     1     -38.404  38.295 -48.806  1.00  0.00    -0.051 Br
HETATM   26  C   UNL     1     -36.770  37.990 -51.121  1.00  0.00     0.020 A 
HETATM   27  C   UNL     1     -35.812  38.393 -52.057  1.00  0.00     0.014 A 
ENDBRANCH   7  21
TORSDOF 5
ENDMDL
MODEL 9
REMARK VINA RESULT:      -6.8      3.209      4.421
REMARK  5 active torsions:
REMARK  status: ('A' for Active; 'I' for Inactive)
REMARK    1  A    between atoms: C_6  and  N_7 
REMARK       I    between atoms: N_7  and  C_8 
REMARK    2  A    between atoms: C_8  and  C_9 
REMARK    3  A    between atoms: C_9  and  C_10 
REMARK    4  A    between atoms: C_13  and  O_14 
REMARK    5  A    between atoms: C_19  and  C_20 
ROOT
HETATM    1  C   UNL     1     -45.899  59.171 -50.971  1.00  0.00     0.073 C 
HETATM    2  C   UNL     1     -45.081  58.000 -51.375  1.00  0.00     0.065 A 
HETATM    3  N   UNL     1     -45.022  56.922 -50.581  1.00  0.00    -0.177 NA
HETATM    4  N   UNL     1     -44.226  56.071 -51.252  1.00  0.00    -0.262 N 
HETATM    5  H   UNL     1     -44.018  55.157 -50.857  1.00  0.00     0.191 HD
HETATM    6  C   UNL     1     -43.760  56.568 -52.443  1.00  0.00     0.137 A 
HETATM    7  C   UNL     1     -44.306  57.832 -52.558  1.00  0.00     0.046 A 
ENDROOT
BRANCH   6   8
HETATM    8  N   UNL     1     -42.913  55.872 -53.288  1.00  0.00    -0.311 N 
HETATM    9  C   UNL     1     -41.555  56.155 -53.370  1.00  0.00     0.227 C 
HETATM   10  O   UNL     1     -41.002  57.038 -52.716  1.00  0.00    -0.273 OA
HETATM   11  H   UNL     1     -43.317  55.132 -53.851  1.00  0.00     0.170 HD
BRANCH   9  12
HETATM   12  C   UNL     1     -40.822  55.198 -54.301  1.00  0.00     0.141 C 
BRANCH  12  13
HETATM   13  C   UNL     1     -40.509  53.842 -53.715  1.00  0.00    -0.049 A 
HETATM   14  C   UNL     1     -40.298  52.736 -54.547  1.00  0.00     0.010 A 
HETATM   15  C   UNL     1     -39.966  51.493 -54.001  1.00  0.00     0.037 A 
HETATM   16  C   UNL     1     -39.828  51.334 -52.621  1.00  0.00     0.068 A 
HETATM   17  C   UNL     1     -40.053  52.427 -51.786  1.00  0.00     0.037 A 
HETATM   18  C   UNL     1     -40.392  53.672 -52.329  1.00  0.00     0.010 A 
BRANCH  16  19
HETATM   19  O   UNL     1     -39.482  50.073 -52.221  1.00  0.00    -0.356 OA
HETATM   20  C   UNL     1     -39.636  49.777 -50.839  1.00  0.00     0.210 C 
ENDBRANCH  16  19
ENDBRANCH  12  13
ENDBRANCH   9  12
ENDBRANCH   6   8
BRANCH   7  21
HETATM   21  C   UNL     1     -44.085  58.735 -53.670  1.00  0.00    -0.020 A 
HETATM   22  C   UNL     1     -44.833  58.609 -54.848  1.00  0.00     0.014 A 
HETATM   23  C   UNL     1     -44.617  59.482 -55.917  1.00  0.00     0.020 A 
HETATM   24  C   UNL     1     -43.659  60.487 -55.805  1.00  0.00     0.011 A 
HETATM   25 BR   UNL     1     -43.368  61.671 -57.249  1.00  0.00    -0.051 Br
HETATM   26  C   UNL     1     -42.916  60.629 -54.635  1.00  0.00     0.020 A 
HETATM   27  C   UNL     1     -43.129  59.753 -53.567  1.00  0.00     0.014 A 
ENDBRANCH   7  21
TORSDOF 5
ENDMDL
MODEL 10
REMARK VINA RESULT:      -6.8     14.523     17.009
REMARK  5 active torsions:
REMARK  status: ('A' for Active; 'I' for Inactive)
REMARK    1  A    between atoms: C_6  and  N_7 
REMARK       I    between atoms: N_7  and  C_8 
REMARK    2  A    between atoms: C_8  and  C_9 
REMARK    3  A    between atoms: C_9  and  C_10 
REMARK    4  A    between atoms: C_13  and  O_14 
REMARK    5  A    between atoms: C_19  and  C_20 
ROOT
HETATM    1  C   UNL     1     -32.041  40.218 -51.663  1.00  0.00     0.073 C 
HETATM    2  C   UNL     1     -33.353  40.733 -52.129  1.00  0.00     0.065 A 
HETATM    3  N   UNL     1     -34.109  41.473 -51.308  1.00  0.00    -0.177 NA
HETATM    4  N   UNL     1     -35.190  41.775 -52.048  1.00  0.00    -0.262 N 
HETATM    5  H   UNL     1     -35.932  42.344 -51.648  1.00  0.00     0.191 HD
HETATM    6  C   UNL     1     -35.163  41.244 -53.312  1.00  0.00     0.137 A 
HETATM    7  C   UNL     1     -33.969  40.556 -53.402  1.00  0.00     0.046 A 
ENDROOT
BRANCH   6   8
HETATM    8  N   UNL     1     -36.179  41.411 -54.238  1.00  0.00    -0.311 N 
HETATM    9  C   UNL     1     -36.037  42.236 -55.347  1.00  0.00     0.227 C 
HETATM   10  O   UNL     1     -35.019  42.883 -55.591  1.00  0.00    -0.273 OA
HETATM   11  H   UNL     1     -37.041  40.900 -54.086  1.00  0.00     0.170 HD
BRANCH   9  12
HETATM   12  C   UNL     1     -37.254  42.186 -56.262  1.00  0.00     0.141 C 
BRANCH  12  13
HETATM   13  C   UNL     1     -37.052  41.447 -57.563  1.00  0.00    -0.049 A 
HETATM   14  C   UNL     1     -36.546  40.142 -57.573  1.00  0.00     0.010 A 
HETATM   15  C   UNL     1     -36.402  39.448 -58.776  1.00  0.00     0.037 A 
HETATM   16  C   UNL     1     -36.769  40.036 -59.988  1.00  0.00     0.068 A 
HETATM   17  C   UNL     1     -37.259  41.341 -59.988  1.00  0.00     0.037 A 
HETATM   18  C   UNL     1     -37.398  42.043 -58.783  1.00  0.00     0.010 A 
BRANCH  16  19
HETATM   19  O   UNL     1     -36.597  39.242 -61.087  1.00  0.00    -0.356 OA
HETATM   20  C   UNL     1     -35.550  38.281 -61.024  1.00  0.00     0.210 C 
ENDBRANCH  16  19
ENDBRANCH  12  13
ENDBRANCH   9  12
ENDBRANCH   6   8
BRANCH   7  21
HETATM   21  C   UNL     1     -33.512  39.830 -54.570  1.00  0.00    -0.020 A 
HETATM   22  C   UNL     1     -34.001  38.546 -54.846  1.00  0.00     0.014 A 
HETATM   23  C   UNL     1     -33.558  37.850 -55.974  1.00  0.00     0.020 A 
HETATM   24  C   UNL     1     -32.633  38.443 -56.831  1.00  0.00     0.011 A 
HETATM   25 BR   UNL     1     -32.036  37.504 -58.359  1.00  0.00    -0.051 Br
HETATM   26  C   UNL     1     -32.148  39.723 -56.574  1.00  0.00     0.020 A 
HETATM   27  C   UNL     1     -32.588  40.417 -55.443  1.00  0.00     0.014 A 
ENDBRANCH   7  21
TORSDOF 5
ENDMDL
