MODEL 1
REMARK VINA RESULT:      -8.7      0.000      0.000
REMARK  5 active torsions:
REMARK  status: ('A' for Active; 'I' for Inactive)
REMARK    1  A    between atoms: C_8  and  N_9 
REMARK    2  A    between atoms: C_12  and  N_13 
REMARK    3  A    between atoms: N_13  and  C_15 
REMARK    4  A    between atoms: C_15  and  C_16 
REMARK    5  A    between atoms: C_17  and  C_18 
ROOT
HETATM    1  N   UNL     1     -41.826  57.960 -52.186  1.00  0.00    -0.067 N 
HETATM    2  H   UNL     1     -42.816  57.840 -52.433  1.00  0.00     0.280 HD
HETATM    3  C   UNL     1     -41.771  59.105 -51.195  1.00  0.00     0.270 C 
ENDROOT
BRANCH   1   4
HETATM    4  C   UNL     1     -41.000  58.174 -53.470  1.00  0.00     0.190 C 
HETATM    5  C   UNL     1     -40.927  56.881 -54.300  1.00  0.00     0.048 C 
HETATM    6  C   UNL     1     -42.205  56.595 -55.088  1.00  0.00     0.099 C 
HETATM    7  N   UNL     1     -42.543  57.771 -55.900  1.00  0.00    -0.268 NA
HETATM    8  C   UNL     1     -42.768  58.997 -55.130  1.00  0.00     0.099 C 
HETATM    9  C   UNL     1     -41.496  59.330 -54.355  1.00  0.00     0.048 C 
BRANCH   7  10
HETATM   10  C   UNL     1     -43.479  57.522 -56.916  1.00  0.00     0.109 A 
HETATM   11  N   UNL     1     -44.678  58.130 -56.876  1.00  0.00    -0.224 NA
HETATM   12  C   UNL     1     -45.592  57.814 -57.828  1.00  0.00     0.102 A 
HETATM   13  N   UNL     1     -45.359  56.922 -58.800  1.00  0.00    -0.348 N 
HETATM   14  C   UNL     1     -46.939  58.459 -57.754  1.00  0.00     0.091 C 
HETATM   15  C   UNL     1     -44.171  56.301 -58.872  1.00  0.00     0.009 A 
HETATM   16  H   UNL     1     -46.094  56.713 -59.473  1.00  0.00     0.167 HD
HETATM   17  C   UNL     1     -43.939  55.297 -59.955  1.00  0.00     0.068 C 
HETATM   18  C   UNL     1     -43.199  56.594 -57.913  1.00  0.00     0.069 A 
ENDBRANCH   7  10
ENDBRANCH   1   4
BRANCH   1  19
HETATM   19  C   UNL     1     -41.415  56.659 -51.474  1.00  0.00     0.277 C 
BRANCH  19  20
HETATM   20  C   UNL     1     -42.539  55.717 -51.238  1.00  0.00     0.016 A 
HETATM   21  C   UNL     1     -42.624  54.331 -51.574  1.00  0.00     0.096 A 
HETATM   22  N   UNL     1     -43.839  53.848 -51.294  1.00  0.00    -0.174 NA
HETATM   23  N   UNL     1     -44.480  54.846 -50.675  1.00  0.00    -0.288 N 
HETATM   24  H   UNL     1     -45.418  54.672 -50.316  1.00  0.00     0.188 HD
HETATM   25  C   UNL     1     -43.756  56.001 -50.646  1.00  0.00     0.120 A 
BRANCH  21  26
HETATM   26  C   UNL     1     -41.622  53.476 -52.202  1.00  0.00    -0.005 A 
HETATM   27  C   UNL     1     -41.615  53.275 -53.591  1.00  0.00     0.017 A 
HETATM   28  C   UNL     1     -40.649  52.454 -54.176  1.00  0.00     0.043 A 
HETATM   29  C   UNL     1     -39.686  51.846 -53.377  1.00  0.00     0.116 A 
HETATM   30  F   UNL     1     -38.770  51.049 -53.940  1.00  0.00    -0.206 F 
HETATM   31  C   UNL     1     -39.662  52.055 -52.004  1.00  0.00     0.043 A 
HETATM   32  C   UNL     1     -40.628  52.873 -51.416  1.00  0.00     0.017 A 
ENDBRANCH  21  26
ENDBRANCH  19  20
ENDBRANCH   1  19
TORSDOF 5
ENDMDL
MODEL 2
REMARK VINA RESULT:      -8.5      1.926      2.370
REMARK  5 active torsions:
REMARK  status: ('A' for Active; 'I' for Inactive)
REMARK    1  A    between atoms: C_8  and  N_9 
REMARK    2  A    between atoms: C_12  and  N_13 
REMARK    3  A    between atoms: N_13  and  C_15 
REMARK    4  A    between atoms: C_15  and  C_16 
REMARK    5  A    between atoms: C_17  and  C_18 
ROOT
HETATM    1  N   UNL     1     -43.388  55.575 -53.388  1.00  0.00    -0.067 N 
HETATM    2  H   UNL     1     -44.114  55.206 -54.015  1.00  0.00     0.280 HD
HETATM    3  C   UNL     1     -43.995  56.780 -52.700  1.00  0.00     0.270 C 
ENDROOT
BRANCH   1   4
HETATM    4  C   UNL     1     -42.110  55.866 -54.200  1.00  0.00     0.190 C 
HETATM    5  C   UNL     1     -41.923  54.831 -55.323  1.00  0.00     0.048 C 
HETATM    6  C   UNL     1     -42.828  55.079 -56.530  1.00  0.00     0.099 C 
HETATM    7  N   UNL     1     -42.644  56.459 -56.995  1.00  0.00    -0.268 NA
HETATM    8  C   UNL     1     -42.957  57.484 -55.995  1.00  0.00     0.099 C 
HETATM    9  C   UNL     1     -42.045  57.285 -54.787  1.00  0.00     0.048 C 
BRANCH   7  10
HETATM   10  C   UNL     1     -43.144  56.707 -58.283  1.00  0.00     0.109 A 
HETATM   11  N   UNL     1     -43.113  57.958 -58.776  1.00  0.00    -0.224 NA
HETATM   12  C   UNL     1     -43.671  58.184 -59.992  1.00  0.00     0.102 A 
HETATM   13  N   UNL     1     -44.258  57.223 -60.719  1.00  0.00    -0.348 N 
HETATM   14  C   UNL     1     -43.673  59.584 -60.518  1.00  0.00     0.091 C 
HETATM   15  C   UNL     1     -44.303  55.964 -60.258  1.00  0.00     0.009 A 
HETATM   16  H   UNL     1     -44.677  57.461 -61.616  1.00  0.00     0.167 HD
HETATM   17  C   UNL     1     -44.977  54.911 -61.078  1.00  0.00     0.068 C 
HETATM   18  C   UNL     1     -43.740  55.683 -59.011  1.00  0.00     0.069 A 
ENDBRANCH   7  10
ENDBRANCH   1   4
BRANCH   1  19
HETATM   19  C   UNL     1     -43.142  54.471 -52.344  1.00  0.00     0.277 C 
BRANCH  19  20
HETATM   20  C   UNL     1     -42.016  54.754 -51.418  1.00  0.00     0.016 A 
HETATM   21  C   UNL     1     -40.822  53.998 -51.210  1.00  0.00     0.096 A 
HETATM   22  N   UNL     1     -40.097  54.519 -50.215  1.00  0.00    -0.174 NA
HETATM   23  N   UNL     1     -40.726  55.649 -49.875  1.00  0.00    -0.288 N 
HETATM   24  H   UNL     1     -40.305  56.245 -49.164  1.00  0.00     0.188 HD
HETATM   25  C   UNL     1     -41.903  55.820 -50.543  1.00  0.00     0.120 A 
BRANCH  21  26
HETATM   26  C   UNL     1     -40.383  52.775 -51.875  1.00  0.00    -0.005 A 
HETATM   27  C   UNL     1     -40.326  52.698 -53.275  1.00  0.00     0.017 A 
HETATM   28  C   UNL     1     -39.904  51.520 -53.895  1.00  0.00     0.043 A 
HETATM   29  C   UNL     1     -39.529  50.428 -53.119  1.00  0.00     0.116 A 
HETATM   30  F   UNL     1     -39.138  49.297 -53.718  1.00  0.00    -0.206 F 
HETATM   31  C   UNL     1     -39.554  50.496 -51.732  1.00  0.00     0.043 A 
HETATM   32  C   UNL     1     -39.978  51.672 -51.108  1.00  0.00     0.017 A 
ENDBRANCH  21  26
ENDBRANCH  19  20
ENDBRANCH   1  19
TORSDOF 5
ENDMDL
MODEL 3
REMARK VINA RESULT:      -8.5      1.962      2.644
REMARK  5 active torsions:
REMARK  status: ('A' for Active; 'I' for Inactive)
REMARK    1  A    between atoms: C_8  and  N_9 
REMARK    2  A    between atoms: C_12  and  N_13 
REMARK    3  A    between atoms: N_13  and  C_15 
REMARK    4  A    between atoms: C_15  and  C_16 
REMARK    5  A    between atoms: C_17  and  C_18 
ROOT
HETATM    1  N   UNL     1     -43.321  55.472 -53.286  1.00  0.00    -0.067 N 
HETATM    2  H   UNL     1     -44.067  55.113 -53.894  1.00  0.00     0.280 HD
HETATM    3  C   UNL     1     -43.888  56.696 -52.595  1.00  0.00     0.270 C 
ENDROOT
BRANCH   1   4
HETATM    4  C   UNL     1     -42.055  55.731 -54.128  1.00  0.00     0.190 C 
HETATM    5  C   UNL     1     -41.935  54.709 -55.271  1.00  0.00     0.048 C 
HETATM    6  C   UNL     1     -42.862  55.009 -56.449  1.00  0.00     0.099 C 
HETATM    7  N   UNL     1     -42.641  56.389 -56.897  1.00  0.00    -0.268 NA
HETATM    8  C   UNL     1     -42.890  57.408 -55.874  1.00  0.00     0.099 C 
HETATM    9  C   UNL     1     -41.954  57.157 -54.694  1.00  0.00     0.048 C 
BRANCH   7  10
HETATM   10  C   UNL     1     -43.166  56.676 -58.167  1.00  0.00     0.109 A 
HETATM   11  N   UNL     1     -43.813  55.715 -58.850  1.00  0.00    -0.224 NA
HETATM   12  C   UNL     1     -44.244  55.996 -60.105  1.00  0.00     0.102 A 
HETATM   13  N   UNL     1     -44.049  57.182 -60.698  1.00  0.00    -0.348 N 
HETATM   14  C   UNL     1     -44.923  54.911 -60.877  1.00  0.00     0.091 C 
HETATM   15  C   UNL     1     -43.412  58.165 -60.043  1.00  0.00     0.009 A 
HETATM   16  H   UNL     1     -44.379  57.324 -61.651  1.00  0.00     0.167 HD
HETATM   17  C   UNL     1     -43.191  59.474 -60.730  1.00  0.00     0.068 C 
HETATM   18  C   UNL     1     -42.950  57.922 -58.748  1.00  0.00     0.069 A 
ENDBRANCH   7  10
ENDBRANCH   1   4
BRANCH   1  19
HETATM   19  C   UNL     1     -43.073  54.373 -52.238  1.00  0.00     0.277 C 
BRANCH  19  20
HETATM   20  C   UNL     1     -41.925  54.643 -51.336  1.00  0.00     0.016 A 
HETATM   21  C   UNL     1     -40.734  53.875 -51.155  1.00  0.00     0.096 A 
HETATM   22  N   UNL     1     -39.983  54.387 -50.176  1.00  0.00    -0.174 NA
HETATM   23  N   UNL     1     -40.594  55.523 -49.820  1.00  0.00    -0.288 N 
HETATM   24  H   UNL     1     -40.151  56.113 -49.117  1.00  0.00     0.188 HD
HETATM   25  C   UNL     1     -41.783  55.706 -50.462  1.00  0.00     0.120 A 
BRANCH  21  26
HETATM   26  C   UNL     1     -40.322  52.650 -51.832  1.00  0.00    -0.005 A 
HETATM   27  C   UNL     1     -40.231  52.595 -53.231  1.00  0.00     0.017 A 
HETATM   28  C   UNL     1     -39.835  51.414 -53.863  1.00  0.00     0.043 A 
HETATM   29  C   UNL     1     -39.519  50.296 -53.098  1.00  0.00     0.116 A 
HETATM   30  F   UNL     1     -39.153  49.163 -53.708  1.00  0.00    -0.206 F 
HETATM   31  C   UNL     1     -39.577  50.340 -51.711  1.00  0.00     0.043 A 
HETATM   32  C   UNL     1     -39.976  51.518 -51.076  1.00  0.00     0.017 A 
ENDBRANCH  21  26
ENDBRANCH  19  20
ENDBRANCH   1  19
TORSDOF 5
ENDMDL
MODEL 4
REMARK VINA RESULT:      -8.1      1.016      1.870
REMARK  5 active torsions:
REMARK  status: ('A' for Active; 'I' for Inactive)
REMARK    1  A    between atoms: C_8  and  N_9 
REMARK    2  A    between atoms: C_12  and  N_13 
REMARK    3  A    between atoms: N_13  and  C_15 
REMARK    4  A    between atoms: C_15  and  C_16 
REMARK    5  A    between atoms: C_17  and  C_18 
ROOT
HETATM    1  N   UNL     1     -42.526  57.809 -53.305  1.00  0.00    -0.067 N 
HETATM    2  H   UNL     1     -43.441  57.387 -53.506  1.00  0.00     0.280 HD
HETATM    3  C   UNL     1     -42.809  59.151 -52.661  1.00  0.00     0.270 C 
ENDROOT
BRANCH   1   4
HETATM    4  C   UNL     1     -41.694  57.873 -54.601  1.00  0.00     0.190 C 
HETATM    5  C   UNL     1     -41.751  56.536 -55.359  1.00  0.00     0.048 C 
HETATM    6  C   UNL     1     -43.057  56.330 -56.126  1.00  0.00     0.099 C 
HETATM    7  N   UNL     1     -43.289  57.487 -57.000  1.00  0.00    -0.268 NA
HETATM    8  C   UNL     1     -43.391  58.769 -56.298  1.00  0.00     0.099 C 
HETATM    9  C   UNL     1     -42.086  59.021 -55.546  1.00  0.00     0.048 C 
BRANCH   7  10
HETATM   10  C   UNL     1     -44.253  57.274 -57.998  1.00  0.00     0.109 A 
HETATM   11  N   UNL     1     -44.140  56.210 -58.812  1.00  0.00    -0.224 NA
HETATM   12  C   UNL     1     -45.042  56.069 -59.816  1.00  0.00     0.102 A 
HETATM   13  N   UNL     1     -46.034  56.942 -60.037  1.00  0.00    -0.348 N 
HETATM   14  C   UNL     1     -44.887  54.908 -60.746  1.00  0.00     0.091 C 
HETATM   15  C   UNL     1     -46.178  58.012 -59.241  1.00  0.00     0.009 A 
HETATM   16  H   UNL     1     -46.667  56.791 -60.821  1.00  0.00     0.167 HD
HETATM   17  C   UNL     1     -47.282  58.982 -59.516  1.00  0.00     0.068 C 
HETATM   18  C   UNL     1     -45.273  58.199 -58.194  1.00  0.00     0.069 A 
ENDBRANCH   7  10
ENDBRANCH   1   4
BRANCH   1  19
HETATM   19  C   UNL     1     -41.863  56.885 -52.267  1.00  0.00     0.277 C 
BRANCH  19  20
HETATM   20  C   UNL     1     -42.795  55.917 -51.634  1.00  0.00     0.016 A 
HETATM   21  C   UNL     1     -42.738  54.489 -51.642  1.00  0.00     0.096 A 
HETATM   22  N   UNL     1     -43.817  53.968 -51.050  1.00  0.00    -0.174 NA
HETATM   23  N   UNL     1     -44.489  55.014 -50.556  1.00  0.00    -0.288 N 
HETATM   24  H   UNL     1     -45.327  54.837 -50.005  1.00  0.00     0.188 HD
HETATM   25  C   UNL     1     -43.936  56.210 -50.908  1.00  0.00     0.120 A 
BRANCH  21  26
HETATM   26  C   UNL     1     -41.735  53.615 -52.241  1.00  0.00    -0.005 A 
HETATM   27  C   UNL     1     -41.724  53.374 -53.623  1.00  0.00     0.017 A 
HETATM   28  C   UNL     1     -40.756  52.534 -54.180  1.00  0.00     0.043 A 
HETATM   29  C   UNL     1     -39.797  51.949 -53.360  1.00  0.00     0.116 A 
HETATM   30  F   UNL     1     -38.880  51.134 -53.896  1.00  0.00    -0.206 F 
HETATM   31  C   UNL     1     -39.777  52.198 -51.994  1.00  0.00     0.043 A 
HETATM   32  C   UNL     1     -40.745  53.035 -51.434  1.00  0.00     0.017 A 
ENDBRANCH  21  26
ENDBRANCH  19  20
ENDBRANCH   1  19
TORSDOF 5
ENDMDL
MODEL 5
REMARK VINA RESULT:      -8.0      1.869      2.437
REMARK  5 active torsions:
REMARK  status: ('A' for Active; 'I' for Inactive)
REMARK    1  A    between atoms: C_8  and  N_9 
REMARK    2  A    between atoms: C_12  and  N_13 
REMARK    3  A    between atoms: N_13  and  C_15 
REMARK    4  A    between atoms: C_15  and  C_16 
REMARK    5  A    between atoms: C_17  and  C_18 
ROOT
HETATM    1  N   UNL     1     -42.648  56.011 -52.254  1.00  0.00    -0.067 N 
HETATM    2  H   UNL     1     -42.717  55.260 -52.952  1.00  0.00     0.280 HD
HETATM    3  C   UNL     1     -43.569  55.619 -51.116  1.00  0.00     0.270 C 
ENDROOT
BRANCH   1   4
HETATM    4  C   UNL     1     -42.978  57.362 -52.919  1.00  0.00     0.190 C 
HETATM    5  C   UNL     1     -41.812  57.840 -53.802  1.00  0.00     0.048 C 
HETATM    6  C   UNL     1     -41.738  57.118 -55.148  1.00  0.00     0.099 C 
HETATM    7  N   UNL     1     -43.038  57.220 -55.822  1.00  0.00    -0.268 NA
HETATM    8  C   UNL     1     -44.157  56.639 -55.074  1.00  0.00     0.099 C 
HETATM    9  C   UNL     1     -44.281  57.362 -53.736  1.00  0.00     0.048 C 
BRANCH   7  10
HETATM   10  C   UNL     1     -43.007  56.907 -57.190  1.00  0.00     0.109 A 
HETATM   11  N   UNL     1     -42.411  57.753 -58.049  1.00  0.00    -0.224 NA
HETATM   12  C   UNL     1     -42.460  57.464 -59.374  1.00  0.00     0.102 A 
HETATM   13  N   UNL     1     -43.081  56.384 -59.866  1.00  0.00    -0.348 N 
HETATM   14  C   UNL     1     -41.834  58.429 -60.329  1.00  0.00     0.091 C 
HETATM   15  C   UNL     1     -43.682  55.517 -59.036  1.00  0.00     0.009 A 
HETATM   16  H   UNL     1     -43.101  56.234 -60.873  1.00  0.00     0.167 HD
HETATM   17  C   UNL     1     -44.383  54.327 -59.608  1.00  0.00     0.068 C 
HETATM   18  C   UNL     1     -43.657  55.772 -57.663  1.00  0.00     0.069 A 
ENDBRANCH   7  10
ENDBRANCH   1   4
BRANCH   1  19
HETATM   19  C   UNL     1     -41.192  55.980 -51.755  1.00  0.00     0.277 C 
BRANCH  19  20
HETATM   20  C   UNL     1     -40.966  55.075 -50.599  1.00  0.00     0.016 A 
HETATM   21  C   UNL     1     -40.622  53.688 -50.608  1.00  0.00     0.096 A 
HETATM   22  N   UNL     1     -40.608  53.195 -49.366  1.00  0.00    -0.174 NA
HETATM   23  N   UNL     1     -40.805  54.249 -48.565  1.00  0.00    -0.288 N 
HETATM   24  H   UNL     1     -40.771  54.106 -47.557  1.00  0.00     0.188 HD
HETATM   25  C   UNL     1     -41.059  55.396 -49.257  1.00  0.00     0.120 A 
BRANCH  21  26
HETATM   26  C   UNL     1     -40.370  52.813 -51.748  1.00  0.00    -0.005 A 
HETATM   27  C   UNL     1     -40.725  53.204 -53.048  1.00  0.00     0.017 A 
HETATM   28  C   UNL     1     -40.477  52.354 -54.128  1.00  0.00     0.043 A 
HETATM   29  C   UNL     1     -39.865  51.124 -53.911  1.00  0.00     0.116 A 
HETATM   30  F   UNL     1     -39.641  50.307 -54.947  1.00  0.00    -0.206 F 
HETATM   31  C   UNL     1     -39.482  50.733 -52.634  1.00  0.00     0.043 A 
HETATM   32  C   UNL     1     -39.732  51.579 -51.552  1.00  0.00     0.017 A 
ENDBRANCH  21  26
ENDBRANCH  19  20
ENDBRANCH   1  19
TORSDOF 5
ENDMDL
MODEL 6
REMARK VINA RESULT:      -7.9      2.327      3.401
REMARK  5 active torsions:
REMARK  status: ('A' for Active; 'I' for Inactive)
REMARK    1  A    between atoms: C_8  and  N_9 
REMARK    2  A    between atoms: C_12  and  N_13 
REMARK    3  A    between atoms: N_13  and  C_15 
REMARK    4  A    between atoms: C_15  and  C_16 
REMARK    5  A    between atoms: C_17  and  C_18 
ROOT
HETATM    1  N   UNL     1     -42.695  55.684 -51.202  1.00  0.00    -0.067 N 
HETATM    2  H   UNL     1     -42.775  55.266 -52.137  1.00  0.00     0.280 HD
HETATM    3  C   UNL     1     -43.610  54.882 -50.298  1.00  0.00     0.270 C 
ENDROOT
BRANCH   1   4
HETATM    4  C   UNL     1     -43.020  57.189 -51.282  1.00  0.00     0.190 C 
HETATM    5  C   UNL     1     -41.984  57.930 -52.145  1.00  0.00     0.048 C 
HETATM    6  C   UNL     1     -42.195  57.734 -53.646  1.00  0.00     0.099 C 
HETATM    7  N   UNL     1     -43.577  58.092 -53.988  1.00  0.00    -0.268 NA
HETATM    8  C   UNL     1     -44.599  57.302 -53.296  1.00  0.00     0.099 C 
HETATM    9  C   UNL     1     -44.436  57.503 -51.791  1.00  0.00     0.048 C 
BRANCH   7  10
HETATM   10  C   UNL     1     -43.801  58.287 -55.360  1.00  0.00     0.109 A 
HETATM   11  N   UNL     1     -45.044  58.147 -55.856  1.00  0.00    -0.224 NA
HETATM   12  C   UNL     1     -45.219  58.267 -57.196  1.00  0.00     0.102 A 
HETATM   13  N   UNL     1     -44.214  58.510 -58.048  1.00  0.00    -0.348 N 
HETATM   14  C   UNL     1     -46.595  58.067 -57.747  1.00  0.00     0.091 C 
HETATM   15  C   UNL     1     -42.963  58.660 -57.586  1.00  0.00     0.009 A 
HETATM   16  H   UNL     1     -44.408  58.569 -59.046  1.00  0.00     0.167 HD
HETATM   17  C   UNL     1     -41.854  58.914 -58.556  1.00  0.00     0.068 C 
HETATM   18  C   UNL     1     -42.733  58.545 -56.213  1.00  0.00     0.069 A 
ENDBRANCH   7  10
ENDBRANCH   1   4
BRANCH   1  19
HETATM   19  C   UNL     1     -41.236  55.455 -50.769  1.00  0.00     0.277 C 
BRANCH  19  20
HETATM   20  C   UNL     1     -40.684  54.136 -51.171  1.00  0.00     0.016 A 
HETATM   21  C   UNL     1     -40.745  53.496 -52.447  1.00  0.00     0.096 A 
HETATM   22  N   UNL     1     -40.223  52.267 -52.387  1.00  0.00    -0.174 NA
HETATM   23  N   UNL     1     -39.721  52.156 -51.152  1.00  0.00    -0.288 N 
HETATM   24  H   UNL     1     -39.216  51.306 -50.907  1.00  0.00     0.188 HD
HETATM   25  C   UNL     1     -40.001  53.238 -50.371  1.00  0.00     0.120 A 
BRANCH  21  26
HETATM   26  C   UNL     1     -41.330  53.985 -53.691  1.00  0.00    -0.005 A 
HETATM   27  C   UNL     1     -40.527  54.557 -54.689  1.00  0.00     0.017 A 
HETATM   28  C   UNL     1     -41.104  55.020 -55.874  1.00  0.00     0.043 A 
HETATM   29  C   UNL     1     -42.476  54.901 -56.064  1.00  0.00     0.116 A 
HETATM   30  F   UNL     1     -43.027  55.358 -57.195  1.00  0.00    -0.206 F 
HETATM   31  C   UNL     1     -43.283  54.313 -55.098  1.00  0.00     0.043 A 
HETATM   32  C   UNL     1     -42.710  53.852 -53.912  1.00  0.00     0.017 A 
ENDBRANCH  21  26
ENDBRANCH  19  20
ENDBRANCH   1  19
TORSDOF 5
ENDMDL
MODEL 7
REMARK VINA RESULT:      -7.6      1.726      2.657
REMARK  5 active torsions:
REMARK  status: ('A' for Active; 'I' for Inactive)
REMARK    1  A    between atoms: C_8  and  N_9 
REMARK    2  A    between atoms: C_12  and  N_13 
REMARK    3  A    between atoms: N_13  and  C_15 
REMARK    4  A    between atoms: C_15  and  C_16 
REMARK    5  A    between atoms: C_17  and  C_18 
ROOT
HETATM    1  N   UNL     1     -42.206  57.721 -53.278  1.00  0.00    -0.067 N 
HETATM    2  H   UNL     1     -42.295  58.179 -52.363  1.00  0.00     0.280 HD
HETATM    3  C   UNL     1     -41.569  58.739 -54.203  1.00  0.00     0.270 C 
ENDROOT
BRANCH   1   4
HETATM    4  C   UNL     1     -43.586  57.207 -53.732  1.00  0.00     0.190 C 
HETATM    5  C   UNL     1     -44.360  58.300 -54.488  1.00  0.00     0.048 C 
HETATM    6  C   UNL     1     -43.883  58.493 -55.928  1.00  0.00     0.099 C 
HETATM    7  N   UNL     1     -43.908  57.199 -56.621  1.00  0.00    -0.268 NA
HETATM    8  C   UNL     1     -43.062  56.168 -56.014  1.00  0.00     0.099 C 
HETATM    9  C   UNL     1     -43.535  55.927 -54.583  1.00  0.00     0.048 C 
BRANCH   7  10
HETATM   10  C   UNL     1     -43.828  57.291 -58.020  1.00  0.00     0.109 A 
HETATM   11  N   UNL     1     -44.458  56.378 -58.780  1.00  0.00    -0.224 NA
HETATM   12  C   UNL     1     -44.303  56.445 -60.127  1.00  0.00     0.102 A 
HETATM   13  N   UNL     1     -43.547  57.372 -60.732  1.00  0.00    -0.348 N 
HETATM   14  C   UNL     1     -44.969  55.403 -60.966  1.00  0.00     0.091 C 
HETATM   15  C   UNL     1     -42.908  58.300 -60.002  1.00  0.00     0.009 A 
HETATM   16  H   UNL     1     -43.454  57.356 -61.746  1.00  0.00     0.167 HD
HETATM   17  C   UNL     1     -42.057  59.314 -60.697  1.00  0.00     0.068 C 
HETATM   18  C   UNL     1     -43.039  58.271 -58.612  1.00  0.00     0.069 A 
ENDBRANCH   7  10
ENDBRANCH   1   4
BRANCH   1  19
HETATM   19  C   UNL     1     -41.224  56.554 -53.064  1.00  0.00     0.277 C 
BRANCH  19  20
HETATM   20  C   UNL     1     -41.252  55.983 -51.693  1.00  0.00     0.016 A 
HETATM   21  C   UNL     1     -40.985  54.641 -51.281  1.00  0.00     0.096 A 
HETATM   22  N   UNL     1     -41.214  54.492 -49.973  1.00  0.00    -0.174 NA
HETATM   23  N   UNL     1     -41.492  55.719 -49.521  1.00  0.00    -0.288 N 
HETATM   24  H   UNL     1     -41.643  55.846 -48.521  1.00  0.00     0.188 HD
HETATM   25  C   UNL     1     -41.561  56.646 -50.519  1.00  0.00     0.120 A 
BRANCH  21  26
HETATM   26  C   UNL     1     -40.584  53.497 -52.092  1.00  0.00    -0.005 A 
HETATM   27  C   UNL     1     -39.713  52.522 -51.581  1.00  0.00     0.017 A 
HETATM   28  C   UNL     1     -39.339  51.432 -52.371  1.00  0.00     0.043 A 
HETATM   29  C   UNL     1     -39.843  51.312 -53.661  1.00  0.00     0.116 A 
HETATM   30  F   UNL     1     -39.472  50.273 -54.420  1.00  0.00    -0.206 F 
HETATM   31  C   UNL     1     -40.727  52.253 -54.174  1.00  0.00     0.043 A 
HETATM   32  C   UNL     1     -41.101  53.344 -53.388  1.00  0.00     0.017 A 
ENDBRANCH  21  26
ENDBRANCH  19  20
ENDBRANCH   1  19
TORSDOF 5
ENDMDL
MODEL 8
REMARK VINA RESULT:      -7.6      3.288      5.884
REMARK  5 active torsions:
REMARK  status: ('A' for Active; 'I' for Inactive)
REMARK    1  A    between atoms: C_8  and  N_9 
REMARK    2  A    between atoms: C_12  and  N_13 
REMARK    3  A    between atoms: N_13  and  C_15 
REMARK    4  A    between atoms: C_15  and  C_16 
REMARK    5  A    between atoms: C_17  and  C_18 
ROOT
HETATM    1  N   UNL     1     -41.937  56.748 -52.963  1.00  0.00    -0.067 N 
HETATM    2  H   UNL     1     -41.503  57.299 -52.211  1.00  0.00     0.280 HD
HETATM    3  C   UNL     1     -40.869  56.559 -54.022  1.00  0.00     0.270 C 
ENDROOT
BRANCH   1   4
HETATM    4  C   UNL     1     -43.214  57.460 -53.449  1.00  0.00     0.190 C 
HETATM    5  C   UNL     1     -44.337  57.353 -52.403  1.00  0.00     0.048 C 
HETATM    6  C   UNL     1     -44.164  58.317 -51.230  1.00  0.00     0.099 C 
HETATM    7  N   UNL     1     -44.001  59.681 -51.747  1.00  0.00    -0.268 NA
HETATM    8  C   UNL     1     -42.848  59.861 -52.634  1.00  0.00     0.099 C 
HETATM    9  C   UNL     1     -43.007  58.934 -53.837  1.00  0.00     0.048 C 
BRANCH   7  10
HETATM   10  C   UNL     1     -44.178  60.689 -50.786  1.00  0.00     0.109 A 
HETATM   11  N   UNL     1     -43.498  61.843 -50.903  1.00  0.00    -0.224 NA
HETATM   12  C   UNL     1     -43.630  62.770 -49.921  1.00  0.00     0.102 A 
HETATM   13  N   UNL     1     -44.399  62.587 -48.839  1.00  0.00    -0.348 N 
HETATM   14  C   UNL     1     -42.838  64.033 -50.032  1.00  0.00     0.091 C 
HETATM   15  C   UNL     1     -45.096  61.449 -48.694  1.00  0.00     0.009 A 
HETATM   16  H   UNL     1     -44.441  63.313 -48.127  1.00  0.00     0.167 HD
HETATM   17  C   UNL     1     -45.935  61.259 -47.471  1.00  0.00     0.068 C 
HETATM   18  C   UNL     1     -44.991  60.465 -49.680  1.00  0.00     0.069 A 
ENDBRANCH   7  10
ENDBRANCH   1   4
BRANCH   1  19
HETATM   19  C   UNL     1     -42.269  55.382 -52.336  1.00  0.00     0.277 C 
BRANCH  19  20
HETATM   20  C   UNL     1     -41.340  54.969 -51.254  1.00  0.00     0.016 A 
HETATM   21  C   UNL     1     -40.497  53.817 -51.194  1.00  0.00     0.096 A 
HETATM   22  N   UNL     1     -39.885  53.738 -50.008  1.00  0.00    -0.174 NA
HETATM   23  N   UNL     1     -40.211  54.865 -49.367  1.00  0.00    -0.288 N 
HETATM   24  H   UNL     1     -39.798  55.040 -48.452  1.00  0.00     0.188 HD
HETATM   25  C   UNL     1     -41.110  55.623 -50.057  1.00  0.00     0.120 A 
BRANCH  21  26
HETATM   26  C   UNL     1     -40.304  52.769 -52.191  1.00  0.00    -0.005 A 
HETATM   27  C   UNL     1     -40.684  52.968 -53.527  1.00  0.00     0.017 A 
HETATM   28  C   UNL     1     -40.493  51.954 -54.469  1.00  0.00     0.043 A 
HETATM   29  C   UNL     1     -39.913  50.752 -54.078  1.00  0.00     0.116 A 
HETATM   30  F   UNL     1     -39.744  49.778 -54.981  1.00  0.00    -0.206 F 
HETATM   31  C   UNL     1     -39.507  50.547 -52.766  1.00  0.00     0.043 A 
HETATM   32  C   UNL     1     -39.700  51.558 -51.822  1.00  0.00     0.017 A 
ENDBRANCH  21  26
ENDBRANCH  19  20
ENDBRANCH   1  19
TORSDOF 5
ENDMDL
MODEL 9
REMARK VINA RESULT:      -7.6      2.188      3.086
REMARK  5 active torsions:
REMARK  status: ('A' for Active; 'I' for Inactive)
REMARK    1  A    between atoms: C_8  and  N_9 
REMARK    2  A    between atoms: C_12  and  N_13 
REMARK    3  A    between atoms: N_13  and  C_15 
REMARK    4  A    between atoms: C_15  and  C_16 
REMARK    5  A    between atoms: C_17  and  C_18 
ROOT
HETATM    1  N   UNL     1     -43.093  57.086 -51.672  1.00  0.00    -0.067 N 
HETATM    2  H   UNL     1     -43.109  56.369 -52.407  1.00  0.00     0.280 HD
HETATM    3  C   UNL     1     -44.209  56.733 -50.710  1.00  0.00     0.270 C 
ENDROOT
BRANCH   1   4
HETATM    4  C   UNL     1     -43.208  58.483 -52.315  1.00  0.00     0.190 C 
HETATM    5  C   UNL     1     -42.074  58.718 -53.327  1.00  0.00     0.048 C 
HETATM    6  C   UNL     1     -42.299  58.009 -54.663  1.00  0.00     0.099 C 
HETATM    7  N   UNL     1     -43.617  58.384 -55.191  1.00  0.00    -0.268 NA
HETATM    8  C   UNL     1     -44.742  58.040 -54.317  1.00  0.00     0.099 C 
HETATM    9  C   UNL     1     -44.564  58.760 -52.983  1.00  0.00     0.048 C 
BRANCH   7  10
HETATM   10  C   UNL     1     -43.802  58.085 -56.550  1.00  0.00     0.109 A 
HETATM   11  N   UNL     1     -42.731  57.966 -57.354  1.00  0.00    -0.224 NA
HETATM   12  C   UNL     1     -42.940  57.751 -58.677  1.00  0.00     0.102 A 
HETATM   13  N   UNL     1     -44.162  57.662 -59.220  1.00  0.00    -0.348 N 
HETATM   14  C   UNL     1     -41.747  57.663 -59.575  1.00  0.00     0.091 C 
HETATM   15  C   UNL     1     -45.252  57.772 -58.446  1.00  0.00     0.009 A 
HETATM   16  H   UNL     1     -44.253  57.520 -60.225  1.00  0.00     0.167 HD
HETATM   17  C   UNL     1     -46.605  57.685 -59.076  1.00  0.00     0.068 C 
HETATM   18  C   UNL     1     -45.086  57.993 -57.077  1.00  0.00     0.069 A 
ENDBRANCH   7  10
ENDBRANCH   1   4
BRANCH   1  19
HETATM   19  C   UNL     1     -41.741  56.916 -50.956  1.00  0.00     0.277 C 
BRANCH  19  20
HETATM   20  C   UNL     1     -41.302  55.504 -50.817  1.00  0.00     0.016 A 
HETATM   21  C   UNL     1     -41.343  54.459 -51.790  1.00  0.00     0.096 A 
HETATM   22  N   UNL     1     -40.955  53.297 -51.255  1.00  0.00    -0.174 NA
HETATM   23  N   UNL     1     -40.548  53.597 -50.017  1.00  0.00    -0.288 N 
HETATM   24  H   UNL     1     -40.150  52.856 -49.443  1.00  0.00     0.188 HD
HETATM   25  C   UNL     1     -40.767  54.904 -49.692  1.00  0.00     0.120 A 
BRANCH  21  26
HETATM   26  C   UNL     1     -41.793  54.514 -53.177  1.00  0.00    -0.005 A 
HETATM   27  C   UNL     1     -40.872  54.622 -54.229  1.00  0.00     0.017 A 
HETATM   28  C   UNL     1     -41.320  54.674 -55.551  1.00  0.00     0.043 A 
HETATM   29  C   UNL     1     -42.683  54.606 -55.820  1.00  0.00     0.116 A 
HETATM   30  F   UNL     1     -43.109  54.669 -57.087  1.00  0.00    -0.206 F 
HETATM   31  C   UNL     1     -43.608  54.472 -54.792  1.00  0.00     0.043 A 
HETATM   32  C   UNL     1     -43.163  54.422 -53.469  1.00  0.00     0.017 A 
ENDBRANCH  21  26
ENDBRANCH  19  20
ENDBRANCH   1  19
TORSDOF 5
ENDMDL
MODEL 10
REMARK VINA RESULT:      -7.6      1.824      2.473
REMARK  5 active torsions:
REMARK  status: ('A' for Active; 'I' for Inactive)
REMARK    1  A    between atoms: C_8  and  N_9 
REMARK    2  A    between atoms: C_12  and  N_13 
REMARK    3  A    between atoms: N_13  and  C_15 
REMARK    4  A    between atoms: C_15  and  C_16 
REMARK    5  A    between atoms: C_17  and  C_18 
ROOT
HETATM    1  N   UNL     1     -41.816  56.428 -51.708  1.00  0.00    -0.067 N 
HETATM    2  H   UNL     1     -41.793  56.607 -50.696  1.00  0.00     0.280 HD
HETATM    3  C   UNL     1     -41.305  57.689 -52.374  1.00  0.00     0.270 C 
ENDROOT
BRANCH   1   4
HETATM    4  C   UNL     1     -43.240  56.008 -52.121  1.00  0.00     0.190 C 
HETATM    5  C   UNL     1     -44.079  57.231 -52.530  1.00  0.00     0.048 C 
HETATM    6  C   UNL     1     -43.751  57.748 -53.930  1.00  0.00     0.099 C 
HETATM    7  N   UNL     1     -43.858  56.642 -54.890  1.00  0.00    -0.268 NA
HETATM    8  C   UNL     1     -42.963  55.514 -54.619  1.00  0.00     0.099 C 
HETATM    9  C   UNL     1     -43.288  54.951 -53.238  1.00  0.00     0.048 C 
BRANCH   7  10
HETATM   10  C   UNL     1     -43.923  57.046 -56.233  1.00  0.00     0.109 A 
HETATM   11  N   UNL     1     -44.755  58.041 -56.587  1.00  0.00    -0.224 NA
HETATM   12  C   UNL     1     -44.854  58.360 -57.902  1.00  0.00     0.102 A 
HETATM   13  N   UNL     1     -44.168  57.727 -58.863  1.00  0.00    -0.348 N 
HETATM   14  C   UNL     1     -45.812  59.438 -58.296  1.00  0.00     0.091 C 
HETATM   15  C   UNL     1     -43.326  56.732 -58.544  1.00  0.00     0.009 A 
HETATM   16  H   UNL     1     -44.302  58.000 -59.835  1.00  0.00     0.167 HD
HETATM   17  C   UNL     1     -42.584  56.027 -59.634  1.00  0.00     0.068 C 
HETATM   18  C   UNL     1     -43.191  56.368 -57.202  1.00  0.00     0.069 A 
ENDBRANCH   7  10
ENDBRANCH   1   4
BRANCH   1  19
HETATM   19  C   UNL     1     -40.810  55.288 -51.950  1.00  0.00     0.277 C 
BRANCH  19  20
HETATM   20  C   UNL     1     -40.635  54.378 -50.790  1.00  0.00     0.016 A 
HETATM   21  C   UNL     1     -40.378  52.972 -50.792  1.00  0.00     0.096 A 
HETATM   22  N   UNL     1     -40.388  52.486 -49.547  1.00  0.00    -0.174 NA
HETATM   23  N   UNL     1     -40.513  53.555 -48.752  1.00  0.00    -0.288 N 
HETATM   24  H   UNL     1     -40.483  53.416 -47.744  1.00  0.00     0.188 HD
HETATM   25  C   UNL     1     -40.699  54.712 -49.450  1.00  0.00     0.120 A 
BRANCH  21  26
HETATM   26  C   UNL     1     -40.188  52.076 -51.928  1.00  0.00    -0.005 A 
HETATM   27  C   UNL     1     -40.441  52.511 -53.238  1.00  0.00     0.017 A 
HETATM   28  C   UNL     1     -40.254  51.640 -54.315  1.00  0.00     0.043 A 
HETATM   29  C   UNL     1     -39.805  50.345 -54.082  1.00  0.00     0.116 A 
HETATM   30  F   UNL     1     -39.640  49.509 -55.115  1.00  0.00    -0.206 F 
HETATM   31  C   UNL     1     -39.524  49.906 -52.794  1.00  0.00     0.043 A 
HETATM   32  C   UNL     1     -39.713  50.773 -51.716  1.00  0.00     0.017 A 
ENDBRANCH  21  26
ENDBRANCH  19  20
ENDBRANCH   1  19
TORSDOF 5
ENDMDL
