MODEL 1
REMARK VINA RESULT:      -7.5      0.000      0.000
REMARK  4 active torsions:
REMARK  status: ('A' for Active; 'I' for Inactive)
REMARK    1  A    between atoms: C_9  and  N_10 
REMARK    2  A    between atoms: N_10  and  C_12 
REMARK    3  A    between atoms: C_12  and  C_13 
REMARK    4  A    between atoms: C_14  and  C_15 
ROOT
HETATM    1  C   UNL     1     -41.757  57.764 -51.297  1.00  0.00     0.016 A 
HETATM    2  C   UNL     1     -42.054  58.654 -52.380  1.00  0.00     0.096 A 
HETATM    3  N   UNL     1     -41.499  59.854 -52.177  1.00  0.00    -0.174 NA
HETATM    4  N   UNL     1     -40.845  59.751 -51.020  1.00  0.00    -0.288 N 
HETATM    5  H   UNL     1     -40.330  60.563 -50.685  1.00  0.00     0.188 HD
HETATM    6  C   UNL     1     -40.957  58.514 -50.451  1.00  0.00     0.120 A 
ENDROOT
BRANCH   1   7
HETATM    7  C   UNL     1     -42.153  56.333 -51.185  1.00  0.00     0.277 C 
BRANCH   7   8
HETATM    8  N   UNL     1     -41.007  55.354 -51.310  1.00  0.00    -0.065 N 
HETATM    9  H   UNL     1     -40.240  55.835 -51.796  1.00  0.00     0.280 HD
HETATM   10  C   UNL     1     -40.513  54.858 -49.977  1.00  0.00     0.270 C 
BRANCH   8  11
HETATM   11  C   UNL     1     -41.474  54.161 -52.088  1.00  0.00     0.205 C 
HETATM   12  C   UNL     1     -41.499  54.337 -53.693  1.00  0.00     0.008 C 
HETATM   13  C   UNL     1     -40.503  55.262 -54.394  1.00  0.00     0.020 C 
HETATM   14  C   UNL     1     -42.908  54.537 -54.264  1.00  0.00     0.020 C 
HETATM   15  C   UNL     1     -41.115  52.844 -53.672  1.00  0.00     0.137 C 
HETATM   16  C   UNL     1     -40.326  53.127 -52.360  1.00  0.00     0.049 C 
HETATM   17  O   UNL     1     -40.195  52.156 -54.516  1.00  0.00    -0.385 OA
HETATM   18  C   UNL     1     -39.942  51.661 -52.202  1.00  0.00     0.035 C 
HETATM   19  C   UNL     1     -39.424  51.304 -53.629  1.00  0.00     0.168 C 
ENDBRANCH   8  11
ENDBRANCH   7   8
ENDBRANCH   1   7
BRANCH   2  20
HETATM   20  C   UNL     1     -42.793  58.390 -53.612  1.00  0.00    -0.002 A 
HETATM   21  C   UNL     1     -42.126  58.473 -54.844  1.00  0.00     0.053 A 
HETATM   22  C   UNL     1     -42.808  58.211 -56.031  1.00  0.00     0.103 A 
HETATM   23  C   UNL     1     -44.166  57.891 -56.000  1.00  0.00     0.102 A 
HETATM   24  O   UNL     1     -42.080  58.300 -57.189  1.00  0.00    -0.346 OA
HETATM   25  O   UNL     1     -44.906  57.654 -57.130  1.00  0.00    -0.346 OA
HETATM   26  C   UNL     1     -44.837  57.805 -54.782  1.00  0.00     0.040 A 
HETATM   27  C   UNL     1     -44.244  58.164 -58.296  1.00  0.00     0.202 C 
HETATM   28  C   UNL     1     -42.783  57.745 -58.307  1.00  0.00     0.202 C 
HETATM   29  C   UNL     1     -44.156  58.065 -53.589  1.00  0.00     0.017 A 
ENDBRANCH   2  20
TORSDOF 4
ENDMDL
MODEL 2
REMARK VINA RESULT:      -7.3      1.733      2.765
REMARK  4 active torsions:
REMARK  status: ('A' for Active; 'I' for Inactive)
REMARK    1  A    between atoms: C_9  and  N_10 
REMARK    2  A    between atoms: N_10  and  C_12 
REMARK    3  A    between atoms: C_12  and  C_13 
REMARK    4  A    between atoms: C_14  and  C_15 
ROOT
HETATM    1  C   UNL     1     -42.422  58.289 -54.049  1.00  0.00     0.016 A 
HETATM    2  C   UNL     1     -42.567  58.686 -55.417  1.00  0.00     0.096 A 
HETATM    3  N   UNL     1     -42.081  59.918 -55.610  1.00  0.00    -0.174 NA
HETATM    4  N   UNL     1     -41.615  60.305 -54.423  1.00  0.00    -0.288 N 
HETATM    5  H   UNL     1     -41.180  61.223 -54.355  1.00  0.00     0.188 HD
HETATM    6  C   UNL     1     -41.784  59.363 -53.449  1.00  0.00     0.120 A 
ENDROOT
BRANCH   1   7
HETATM    7  C   UNL     1     -42.795  56.974 -53.457  1.00  0.00     0.277 C 
BRANCH   7   8
HETATM    8  N   UNL     1     -41.670  56.275 -52.726  1.00  0.00    -0.065 N 
HETATM    9  H   UNL     1     -40.789  56.547 -53.180  1.00  0.00     0.280 HD
HETATM   10  C   UNL     1     -41.607  56.636 -51.267  1.00  0.00     0.270 C 
BRANCH   8  11
HETATM   11  C   UNL     1     -41.886  54.793 -52.813  1.00  0.00     0.205 C 
HETATM   12  C   UNL     1     -41.387  54.091 -54.180  1.00  0.00     0.008 C 
HETATM   13  C   UNL     1     -40.199  54.656 -54.960  1.00  0.00     0.020 C 
HETATM   14  C   UNL     1     -42.531  53.731 -55.134  1.00  0.00     0.020 C 
HETATM   15  C   UNL     1     -41.062  52.919 -53.235  1.00  0.00     0.137 C 
HETATM   16  C   UNL     1     -40.733  53.972 -52.137  1.00  0.00     0.049 C 
HETATM   17  O   UNL     1     -39.932  52.048 -53.262  1.00  0.00    -0.385 OA
HETATM   18  C   UNL     1     -40.450  52.893 -51.099  1.00  0.00     0.035 C 
HETATM   19  C   UNL     1     -39.508  51.928 -51.879  1.00  0.00     0.168 C 
ENDBRANCH   8  11
ENDBRANCH   7   8
ENDBRANCH   1   7
BRANCH   2  20
HETATM   20  C   UNL     1     -43.096  57.924 -56.545  1.00  0.00    -0.002 A 
HETATM   21  C   UNL     1     -44.281  58.349 -57.165  1.00  0.00     0.053 A 
HETATM   22  C   UNL     1     -44.797  57.646 -58.253  1.00  0.00     0.103 A 
HETATM   23  C   UNL     1     -44.149  56.498 -58.712  1.00  0.00     0.102 A 
HETATM   24  O   UNL     1     -45.949  58.135 -58.809  1.00  0.00    -0.346 OA
HETATM   25  O   UNL     1     -44.618  55.739 -59.754  1.00  0.00    -0.346 OA
HETATM   26  C   UNL     1     -42.971  56.068 -58.105  1.00  0.00     0.040 A 
HETATM   27  C   UNL     1     -45.999  56.022 -60.017  1.00  0.00     0.202 C 
HETATM   28  C   UNL     1     -46.236  57.522 -60.072  1.00  0.00     0.202 C 
HETATM   29  C   UNL     1     -42.450  56.772 -57.015  1.00  0.00     0.017 A 
ENDBRANCH   2  20
TORSDOF 4
ENDMDL
MODEL 3
REMARK VINA RESULT:      -7.2      1.628      6.434
REMARK  4 active torsions:
REMARK  status: ('A' for Active; 'I' for Inactive)
REMARK    1  A    between atoms: C_9  and  N_10 
REMARK    2  A    between atoms: N_10  and  C_12 
REMARK    3  A    between atoms: C_12  and  C_13 
REMARK    4  A    between atoms: C_14  and  C_15 
ROOT
HETATM    1  C   UNL     1     -42.726  56.853 -51.838  1.00  0.00     0.016 A 
HETATM    2  C   UNL     1     -42.772  55.521 -51.313  1.00  0.00     0.096 A 
HETATM    3  N   UNL     1     -43.884  55.331 -50.594  1.00  0.00    -0.174 NA
HETATM    4  N   UNL     1     -44.552  56.482 -50.661  1.00  0.00    -0.288 N 
HETATM    5  H   UNL     1     -45.451  56.545 -50.188  1.00  0.00     0.188 HD
HETATM    6  C   UNL     1     -43.908  57.431 -51.405  1.00  0.00     0.120 A 
ENDROOT
BRANCH   1   7
HETATM    7  C   UNL     1     -41.676  57.426 -52.726  1.00  0.00     0.277 C 
BRANCH   7   8
HETATM    8  N   UNL     1     -42.194  58.411 -53.752  1.00  0.00    -0.065 N 
HETATM    9  H   UNL     1     -43.163  58.640 -53.501  1.00  0.00     0.280 HD
HETATM   10  C   UNL     1     -41.383  59.678 -53.807  1.00  0.00     0.270 C 
BRANCH   8  11
HETATM   11  C   UNL     1     -42.124  57.775 -55.108  1.00  0.00     0.205 C 
HETATM   12  C   UNL     1     -43.430  56.936 -55.556  1.00  0.00     0.008 C 
HETATM   13  C   UNL     1     -44.821  57.328 -55.056  1.00  0.00     0.020 C 
HETATM   14  C   UNL     1     -43.239  55.417 -55.472  1.00  0.00     0.020 C 
HETATM   15  C   UNL     1     -43.055  57.465 -56.954  1.00  0.00     0.137 C 
HETATM   16  C   UNL     1     -42.533  58.758 -56.260  1.00  0.00     0.049 C 
HETATM   17  O   UNL     1     -43.924  57.926 -57.988  1.00  0.00    -0.385 OA
HETATM   18  C   UNL     1     -42.062  59.352 -57.582  1.00  0.00     0.035 C 
HETATM   19  C   UNL     1     -43.305  59.135 -58.498  1.00  0.00     0.168 C 
ENDBRANCH   8  11
ENDBRANCH   7   8
ENDBRANCH   1   7
BRANCH   2  20
HETATM   20  C   UNL     1     -41.835  54.421 -51.514  1.00  0.00    -0.002 A 
HETATM   21  C   UNL     1     -41.852  53.715 -52.727  1.00  0.00     0.053 A 
HETATM   22  C   UNL     1     -40.956  52.670 -52.946  1.00  0.00     0.103 A 
HETATM   23  C   UNL     1     -40.055  52.303 -51.946  1.00  0.00     0.102 A 
HETATM   24  O   UNL     1     -41.030  52.043 -54.162  1.00  0.00    -0.346 OA
HETATM   25  O   UNL     1     -39.169  51.264 -52.080  1.00  0.00    -0.346 OA
HETATM   26  C   UNL     1     -40.028  52.997 -50.738  1.00  0.00     0.040 A 
HETATM   27  C   UNL     1     -39.557  50.391 -53.149  1.00  0.00     0.202 C 
HETATM   28  C   UNL     1     -39.902  51.191 -54.394  1.00  0.00     0.202 C 
HETATM   29  C   UNL     1     -40.924  54.047 -50.516  1.00  0.00     0.017 A 
ENDBRANCH   2  20
TORSDOF 4
ENDMDL
MODEL 4
REMARK VINA RESULT:      -7.1      2.991      4.603
REMARK  4 active torsions:
REMARK  status: ('A' for Active; 'I' for Inactive)
REMARK    1  A    between atoms: C_9  and  N_10 
REMARK    2  A    between atoms: N_10  and  C_12 
REMARK    3  A    between atoms: C_12  and  C_13 
REMARK    4  A    between atoms: C_14  and  C_15 
ROOT
HETATM    1  C   UNL     1     -42.515  56.239 -55.935  1.00  0.00     0.016 A 
HETATM    2  C   UNL     1     -43.463  57.245 -55.560  1.00  0.00     0.096 A 
HETATM    3  N   UNL     1     -44.308  57.502 -56.565  1.00  0.00    -0.174 NA
HETATM    4  N   UNL     1     -43.945  56.684 -57.552  1.00  0.00    -0.288 N 
HETATM    5  H   UNL     1     -44.481  56.708 -58.417  1.00  0.00     0.188 HD
HETATM    6  C   UNL     1     -42.879  55.893 -57.226  1.00  0.00     0.120 A 
ENDROOT
BRANCH   1   7
HETATM    7  C   UNL     1     -41.452  55.649 -55.075  1.00  0.00     0.277 C 
BRANCH   7   8
HETATM    8  N   UNL     1     -41.953  54.650 -54.055  1.00  0.00    -0.065 N 
HETATM    9  H   UNL     1     -42.877  54.968 -53.738  1.00  0.00     0.280 HD
HETATM   10  C   UNL     1     -42.075  53.257 -54.614  1.00  0.00     0.270 C 
BRANCH   8  11
HETATM   11  C   UNL     1     -40.980  54.593 -52.916  1.00  0.00     0.205 C 
HETATM   12  C   UNL     1     -41.604  54.850 -51.449  1.00  0.00     0.008 C 
HETATM   13  C   UNL     1     -43.049  54.460 -51.134  1.00  0.00     0.020 C 
HETATM   14  C   UNL     1     -41.291  56.242 -50.888  1.00  0.00     0.020 C 
HETATM   15  C   UNL     1     -40.533  53.827 -51.023  1.00  0.00     0.137 C 
HETATM   16  C   UNL     1     -40.734  53.132 -52.402  1.00  0.00     0.049 C 
HETATM   17  O   UNL     1     -40.643  52.780 -50.061  1.00  0.00    -0.385 OA
HETATM   18  C   UNL     1     -39.644  52.107 -52.114  1.00  0.00     0.035 C 
HETATM   19  C   UNL     1     -40.021  51.624 -50.680  1.00  0.00     0.168 C 
ENDBRANCH   8  11
ENDBRANCH   7   8
ENDBRANCH   1   7
BRANCH   2  20
HETATM   20  C   UNL     1     -43.625  57.923 -54.277  1.00  0.00    -0.002 A 
HETATM   21  C   UNL     1     -43.108  59.217 -54.114  1.00  0.00     0.053 A 
HETATM   22  C   UNL     1     -43.263  59.890 -52.903  1.00  0.00     0.103 A 
HETATM   23  C   UNL     1     -43.912  59.266 -51.836  1.00  0.00     0.102 A 
HETATM   24  O   UNL     1     -42.742  61.155 -52.833  1.00  0.00    -0.346 OA
HETATM   25  O   UNL     1     -44.071  59.854 -50.608  1.00  0.00    -0.346 OA
HETATM   26  C   UNL     1     -44.430  57.982 -51.988  1.00  0.00     0.040 A 
HETATM   27  C   UNL     1     -43.167  60.956 -50.444  1.00  0.00     0.202 C 
HETATM   28  C   UNL     1     -43.194  61.856 -51.668  1.00  0.00     0.202 C 
HETATM   29  C   UNL     1     -44.278  57.304 -53.201  1.00  0.00     0.017 A 
ENDBRANCH   2  20
TORSDOF 4
ENDMDL
MODEL 5
REMARK VINA RESULT:      -7.1      2.641      7.146
REMARK  4 active torsions:
REMARK  status: ('A' for Active; 'I' for Inactive)
REMARK    1  A    between atoms: C_9  and  N_10 
REMARK    2  A    between atoms: N_10  and  C_12 
REMARK    3  A    between atoms: C_12  and  C_13 
REMARK    4  A    between atoms: C_14  and  C_15 
ROOT
HETATM    1  C   UNL     1     -41.920  56.460 -54.550  1.00  0.00     0.016 A 
HETATM    2  C   UNL     1     -41.994  55.039 -54.714  1.00  0.00     0.096 A 
HETATM    3  N   UNL     1     -42.775  54.718 -55.753  1.00  0.00    -0.174 NA
HETATM    4  N   UNL     1     -43.178  55.881 -56.265  1.00  0.00    -0.288 N 
HETATM    5  H   UNL     1     -43.776  55.861 -57.088  1.00  0.00     0.188 HD
HETATM    6  C   UNL     1     -42.687  56.962 -55.589  1.00  0.00     0.120 A 
ENDROOT
BRANCH   1   7
HETATM    7  C   UNL     1     -41.113  57.201 -53.541  1.00  0.00     0.277 C 
BRANCH   7   8
HETATM    8  N   UNL     1     -41.838  57.481 -52.243  1.00  0.00    -0.065 N 
HETATM    9  H   UNL     1     -42.461  56.685 -52.058  1.00  0.00     0.280 HD
HETATM   10  C   UNL     1     -40.902  57.658 -51.078  1.00  0.00     0.270 C 
BRANCH   8  11
HETATM   11  C   UNL     1     -42.617  58.753 -52.391  1.00  0.00     0.205 C 
HETATM   12  C   UNL     1     -44.215  58.624 -52.189  1.00  0.00     0.008 C 
HETATM   13  C   UNL     1     -44.801  57.568 -51.251  1.00  0.00     0.020 C 
HETATM   14  C   UNL     1     -45.002  58.669 -53.504  1.00  0.00     0.020 C 
HETATM   15  C   UNL     1     -44.060  60.034 -51.586  1.00  0.00     0.137 C 
HETATM   16  C   UNL     1     -42.659  59.595 -51.068  1.00  0.00     0.049 C 
HETATM   17  O   UNL     1     -44.719  60.586 -50.448  1.00  0.00    -0.385 OA
HETATM   18  C   UNL     1     -42.372  60.975 -50.489  1.00  0.00     0.035 C 
HETATM   19  C   UNL     1     -43.683  61.280 -49.704  1.00  0.00     0.168 C 
ENDBRANCH   8  11
ENDBRANCH   7   8
ENDBRANCH   1   7
BRANCH   2  20
HETATM   20  C   UNL     1     -41.315  53.989 -53.960  1.00  0.00    -0.002 A 
HETATM   21  C   UNL     1     -41.063  52.754 -54.576  1.00  0.00     0.053 A 
HETATM   22  C   UNL     1     -40.403  51.742 -53.879  1.00  0.00     0.103 A 
HETATM   23  C   UNL     1     -40.015  51.946 -52.554  1.00  0.00     0.102 A 
HETATM   24  O   UNL     1     -40.184  50.573 -54.559  1.00  0.00    -0.346 OA
HETATM   25  O   UNL     1     -39.393  50.985 -51.800  1.00  0.00    -0.346 OA
HETATM   26  C   UNL     1     -40.259  53.169 -51.934  1.00  0.00     0.040 A 
HETATM   27  C   UNL     1     -39.565  49.684 -52.378  1.00  0.00     0.202 C 
HETATM   28  C   UNL     1     -39.265  49.717 -53.867  1.00  0.00     0.202 C 
HETATM   29  C   UNL     1     -40.919  54.187 -52.629  1.00  0.00     0.017 A 
ENDBRANCH   2  20
TORSDOF 4
ENDMDL
MODEL 6
REMARK VINA RESULT:      -7.0      3.604      5.062
REMARK  4 active torsions:
REMARK  status: ('A' for Active; 'I' for Inactive)
REMARK    1  A    between atoms: C_9  and  N_10 
REMARK    2  A    between atoms: N_10  and  C_12 
REMARK    3  A    between atoms: C_12  and  C_13 
REMARK    4  A    between atoms: C_14  and  C_15 
ROOT
HETATM    1  C   UNL     1     -44.033  56.943 -53.156  1.00  0.00     0.016 A 
HETATM    2  C   UNL     1     -44.442  58.315 -53.191  1.00  0.00     0.096 A 
HETATM    3  N   UNL     1     -45.044  58.604 -54.351  1.00  0.00    -0.174 NA
HETATM    4  N   UNL     1     -45.052  57.463 -55.040  1.00  0.00    -0.288 N 
HETATM    5  H   UNL     1     -45.488  57.461 -55.959  1.00  0.00     0.188 HD
HETATM    6  C   UNL     1     -44.467  56.428 -54.367  1.00  0.00     0.120 A 
ENDROOT
BRANCH   1   7
HETATM    7  C   UNL     1     -43.380  56.235 -52.020  1.00  0.00     0.277 C 
BRANCH   7   8
HETATM    8  N   UNL     1     -41.959  55.791 -52.293  1.00  0.00    -0.065 N 
HETATM    9  H   UNL     1     -41.601  56.359 -53.070  1.00  0.00     0.280 HD
HETATM   10  C   UNL     1     -41.056  55.957 -51.101  1.00  0.00     0.270 C 
BRANCH   8  11
HETATM   11  C   UNL     1     -41.970  54.335 -52.649  1.00  0.00     0.205 C 
HETATM   12  C   UNL     1     -41.385  53.966 -54.109  1.00  0.00     0.008 C 
HETATM   13  C   UNL     1     -40.288  54.819 -54.749  1.00  0.00     0.020 C 
HETATM   14  C   UNL     1     -42.472  53.631 -55.136  1.00  0.00     0.020 C 
HETATM   15  C   UNL     1     -40.897  52.697 -53.382  1.00  0.00     0.137 C 
HETATM   16  C   UNL     1     -40.712  53.569 -52.106  1.00  0.00     0.049 C 
HETATM   17  O   UNL     1     -39.659  52.007 -53.541  1.00  0.00    -0.385 OA
HETATM   18  C   UNL     1     -40.280  52.369 -51.273  1.00  0.00     0.035 C 
HETATM   19  C   UNL     1     -39.216  51.699 -52.194  1.00  0.00     0.168 C 
ENDBRANCH   8  11
ENDBRANCH   7   8
ENDBRANCH   1   7
BRANCH   2  20
HETATM   20  C   UNL     1     -44.328  59.336 -52.153  1.00  0.00    -0.002 A 
HETATM   21  C   UNL     1     -45.195  59.293 -51.050  1.00  0.00     0.053 A 
HETATM   22  C   UNL     1     -45.095  60.248 -50.040  1.00  0.00     0.103 A 
HETATM   23  C   UNL     1     -44.149  61.269 -50.136  1.00  0.00     0.102 A 
HETATM   24  O   UNL     1     -45.969  60.126 -48.992  1.00  0.00    -0.346 OA
HETATM   25  O   UNL     1     -44.017  62.260 -49.197  1.00  0.00    -0.346 OA
HETATM   26  C   UNL     1     -43.283  61.320 -51.226  1.00  0.00     0.040 A 
HETATM   27  C   UNL     1     -45.187  62.347 -48.372  1.00  0.00     0.202 C 
HETATM   28  C   UNL     1     -45.605  60.968 -47.890  1.00  0.00     0.202 C 
HETATM   29  C   UNL     1     -43.378  60.363 -52.241  1.00  0.00     0.017 A 
ENDBRANCH   2  20
TORSDOF 4
ENDMDL
MODEL 7
REMARK VINA RESULT:      -6.9      2.674      6.608
REMARK  4 active torsions:
REMARK  status: ('A' for Active; 'I' for Inactive)
REMARK    1  A    between atoms: C_9  and  N_10 
REMARK    2  A    between atoms: N_10  and  C_12 
REMARK    3  A    between atoms: C_12  and  C_13 
REMARK    4  A    between atoms: C_14  and  C_15 
ROOT
HETATM    1  C   UNL     1     -41.566  58.216 -54.484  1.00  0.00     0.016 A 
HETATM    2  C   UNL     1     -41.728  56.884 -54.986  1.00  0.00     0.096 A 
HETATM    3  N   UNL     1     -42.375  56.891 -56.157  1.00  0.00    -0.174 NA
HETATM    4  N   UNL     1     -42.608  58.176 -56.426  1.00  0.00    -0.288 N 
HETATM    5  H   UNL     1     -43.082  58.406 -57.296  1.00  0.00     0.188 HD
HETATM    6  C   UNL     1     -42.134  59.018 -55.460  1.00  0.00     0.120 A 
ENDROOT
BRANCH   1   7
HETATM    7  C   UNL     1     -40.855  58.620 -53.240  1.00  0.00     0.277 C 
BRANCH   7   8
HETATM    8  N   UNL     1     -41.645  58.400 -51.968  1.00  0.00    -0.065 N 
HETATM    9  H   UNL     1     -41.664  57.389 -51.786  1.00  0.00     0.280 HD
HETATM   10  C   UNL     1     -41.048  59.106 -50.780  1.00  0.00     0.270 C 
BRANCH   8  11
HETATM   11  C   UNL     1     -43.030  58.941 -52.162  1.00  0.00     0.205 C 
HETATM   12  C   UNL     1     -44.229  57.872 -51.994  1.00  0.00     0.008 C 
HETATM   13  C   UNL     1     -44.087  56.680 -51.046  1.00  0.00     0.020 C 
HETATM   14  C   UNL     1     -44.841  57.426 -53.327  1.00  0.00     0.020 C 
HETATM   15  C   UNL     1     -44.978  59.090 -51.419  1.00  0.00     0.137 C 
HETATM   16  C   UNL     1     -43.614  59.590 -50.859  1.00  0.00     0.049 C 
HETATM   17  O   UNL     1     -45.873  59.135 -50.309  1.00  0.00    -0.385 OA
HETATM   18  C   UNL     1     -44.239  60.864 -50.305  1.00  0.00     0.035 C 
HETATM   19  C   UNL     1     -45.492  60.316 -49.557  1.00  0.00     0.168 C 
ENDBRANCH   8  11
ENDBRANCH   7   8
ENDBRANCH   1   7
BRANCH   2  20
HETATM   20  C   UNL     1     -41.250  55.624 -54.423  1.00  0.00    -0.002 A 
HETATM   21  C   UNL     1     -41.294  55.432 -53.034  1.00  0.00     0.053 A 
HETATM   22  C   UNL     1     -40.855  54.232 -52.476  1.00  0.00     0.103 A 
HETATM   23  C   UNL     1     -40.345  53.226 -53.297  1.00  0.00     0.102 A 
HETATM   24  O   UNL     1     -40.946  54.120 -51.113  1.00  0.00    -0.346 OA
HETATM   25  O   UNL     1     -39.866  52.035 -52.814  1.00  0.00    -0.346 OA
HETATM   26  C   UNL     1     -40.298  53.406 -54.678  1.00  0.00     0.040 A 
HETATM   27  C   UNL     1     -39.584  52.124 -51.411  1.00  0.00     0.202 C 
HETATM   28  C   UNL     1     -40.743  52.772 -50.672  1.00  0.00     0.202 C 
HETATM   29  C   UNL     1     -40.738  54.607 -55.242  1.00  0.00     0.017 A 
ENDBRANCH   2  20
TORSDOF 4
ENDMDL
MODEL 8
REMARK VINA RESULT:      -6.8      2.456      4.829
REMARK  4 active torsions:
REMARK  status: ('A' for Active; 'I' for Inactive)
REMARK    1  A    between atoms: C_9  and  N_10 
REMARK    2  A    between atoms: N_10  and  C_12 
REMARK    3  A    between atoms: C_12  and  C_13 
REMARK    4  A    between atoms: C_14  and  C_15 
ROOT
HETATM    1  C   UNL     1     -42.258  54.370 -53.753  1.00  0.00     0.016 A 
HETATM    2  C   UNL     1     -41.656  54.883 -54.948  1.00  0.00     0.096 A 
HETATM    3  N   UNL     1     -40.410  54.418 -55.092  1.00  0.00    -0.174 NA
HETATM    4  N   UNL     1     -40.209  53.614 -54.048  1.00  0.00    -0.288 N 
HETATM    5  H   UNL     1     -39.313  53.136 -53.976  1.00  0.00     0.188 HD
HETATM    6  C   UNL     1     -41.289  53.538 -53.215  1.00  0.00     0.120 A 
ENDROOT
BRANCH   1   7
HETATM    7  C   UNL     1     -43.648  54.616 -53.277  1.00  0.00     0.277 C 
BRANCH   7   8
HETATM    8  N   UNL     1     -43.746  55.541 -52.084  1.00  0.00    -0.065 N 
HETATM    9  H   UNL     1     -44.743  55.684 -51.884  1.00  0.00     0.280 HD
HETATM   10  C   UNL     1     -43.070  54.988 -50.858  1.00  0.00     0.270 C 
BRANCH   8  11
HETATM   11  C   UNL     1     -43.071  56.837 -52.421  1.00  0.00     0.205 C 
HETATM   12  C   UNL     1     -43.953  58.169 -52.181  1.00  0.00     0.008 C 
HETATM   13  C   UNL     1     -45.013  58.216 -51.079  1.00  0.00     0.020 C 
HETATM   14  C   UNL     1     -44.499  58.782 -53.475  1.00  0.00     0.020 C 
HETATM   15  C   UNL     1     -42.586  58.777 -51.812  1.00  0.00     0.137 C 
HETATM   16  C   UNL     1     -42.184  57.382 -51.248  1.00  0.00     0.049 C 
HETATM   17  O   UNL     1     -42.281  59.699 -50.767  1.00  0.00    -0.385 OA
HETATM   18  C   UNL     1     -40.779  57.858 -50.901  1.00  0.00     0.035 C 
HETATM   19  C   UNL     1     -41.063  59.198 -50.157  1.00  0.00     0.168 C 
ENDBRANCH   8  11
ENDBRANCH   7   8
ENDBRANCH   1   7
BRANCH   2  20
HETATM   20  C   UNL     1     -42.236  55.748 -55.971  1.00  0.00    -0.002 A 
HETATM   21  C   UNL     1     -42.851  55.168 -57.092  1.00  0.00     0.053 A 
HETATM   22  C   UNL     1     -43.424  55.974 -58.075  1.00  0.00     0.103 A 
HETATM   23  C   UNL     1     -43.364  57.364 -57.961  1.00  0.00     0.102 A 
HETATM   24  O   UNL     1     -44.016  55.329 -59.129  1.00  0.00    -0.346 OA
HETATM   25  O   UNL     1     -43.877  58.216 -58.905  1.00  0.00    -0.346 OA
HETATM   26  C   UNL     1     -42.758  57.949 -56.851  1.00  0.00     0.040 A 
HETATM   27  C   UNL     1     -44.090  57.537 -60.150  1.00  0.00     0.202 C 
HETATM   28  C   UNL     1     -44.810  56.218 -59.924  1.00  0.00     0.202 C 
HETATM   29  C   UNL     1     -42.183  57.144 -55.863  1.00  0.00     0.017 A 
ENDBRANCH   2  20
TORSDOF 4
ENDMDL
MODEL 9
REMARK VINA RESULT:      -6.7      2.004      2.932
REMARK  4 active torsions:
REMARK  status: ('A' for Active; 'I' for Inactive)
REMARK    1  A    between atoms: C_9  and  N_10 
REMARK    2  A    between atoms: N_10  and  C_12 
REMARK    3  A    between atoms: C_12  and  C_13 
REMARK    4  A    between atoms: C_14  and  C_15 
ROOT
HETATM    1  C   UNL     1     -42.768  56.522 -52.299  1.00  0.00     0.016 A 
HETATM    2  C   UNL     1     -43.546  57.234 -53.267  1.00  0.00     0.096 A 
HETATM    3  N   UNL     1     -44.741  57.570 -52.766  1.00  0.00    -0.174 NA
HETATM    4  N   UNL     1     -44.739  57.118 -51.512  1.00  0.00    -0.288 N 
HETATM    5  H   UNL     1     -45.562  57.289 -50.939  1.00  0.00     0.188 HD
HETATM    6  C   UNL     1     -43.575  56.488 -51.173  1.00  0.00     0.120 A 
ENDROOT
BRANCH   1   7
HETATM    7  C   UNL     1     -41.372  56.028 -52.464  1.00  0.00     0.277 C 
BRANCH   7   8
HETATM    8  N   UNL     1     -41.262  54.678 -53.137  1.00  0.00    -0.065 N 
HETATM    9  H   UNL     1     -42.167  54.204 -53.033  1.00  0.00     0.280 HD
HETATM   10  C   UNL     1     -40.921  54.780 -54.599  1.00  0.00     0.270 C 
BRANCH   8  11
HETATM   11  C   UNL     1     -40.166  53.897 -52.475  1.00  0.00     0.205 C 
HETATM   12  C   UNL     1     -40.450  53.444 -50.951  1.00  0.00     0.008 C 
HETATM   13  C   UNL     1     -41.876  53.162 -50.472  1.00  0.00     0.020 C 
HETATM   14  C   UNL     1     -39.693  54.281 -49.913  1.00  0.00     0.020 C 
HETATM   15  C   UNL     1     -39.635  52.205 -51.368  1.00  0.00     0.137 C 
HETATM   16  C   UNL     1     -40.235  52.363 -52.796  1.00  0.00     0.049 C 
HETATM   17  O   UNL     1     -39.860  50.840 -51.021  1.00  0.00    -0.385 OA
HETATM   18  C   UNL     1     -39.424  51.192 -53.334  1.00  0.00     0.035 C 
HETATM   19  C   UNL     1     -39.676  50.096 -52.254  1.00  0.00     0.168 C 
ENDBRANCH   8  11
ENDBRANCH   7   8
ENDBRANCH   1   7
BRANCH   2  20
HETATM   20  C   UNL     1     -43.179  57.648 -54.619  1.00  0.00    -0.002 A 
HETATM   21  C   UNL     1     -43.564  56.853 -55.709  1.00  0.00     0.053 A 
HETATM   22  C   UNL     1     -43.236  57.235 -57.009  1.00  0.00     0.103 A 
HETATM   23  C   UNL     1     -42.499  58.400 -57.229  1.00  0.00     0.102 A 
HETATM   24  O   UNL     1     -43.662  56.411 -58.016  1.00  0.00    -0.346 OA
HETATM   25  O   UNL     1     -42.114  58.819 -58.477  1.00  0.00    -0.346 OA
HETATM   26  C   UNL     1     -42.113  59.197 -56.154  1.00  0.00     0.040 A 
HETATM   27  C   UNL     1     -42.197  57.748 -59.427  1.00  0.00     0.202 C 
HETATM   28  C   UNL     1     -43.528  57.025 -59.304  1.00  0.00     0.202 C 
HETATM   29  C   UNL     1     -42.441  58.818 -54.848  1.00  0.00     0.017 A 
ENDBRANCH   2  20
TORSDOF 4
ENDMDL
MODEL 10
REMARK VINA RESULT:      -6.7      1.602      6.557
REMARK  4 active torsions:
REMARK  status: ('A' for Active; 'I' for Inactive)
REMARK    1  A    between atoms: C_9  and  N_10 
REMARK    2  A    between atoms: N_10  and  C_12 
REMARK    3  A    between atoms: C_12  and  C_13 
REMARK    4  A    between atoms: C_14  and  C_15 
ROOT
HETATM    1  C   UNL     1     -42.156  57.624 -52.875  1.00  0.00     0.016 A 
HETATM    2  C   UNL     1     -41.820  56.404 -52.204  1.00  0.00     0.096 A 
HETATM    3  N   UNL     1     -41.850  56.566 -50.876  1.00  0.00    -0.174 NA
HETATM    4  N   UNL     1     -42.213  57.834 -50.682  1.00  0.00    -0.288 N 
HETATM    5  H   UNL     1     -42.314  58.163 -49.724  1.00  0.00     0.188 HD
HETATM    6  C   UNL     1     -42.420  58.515 -51.848  1.00  0.00     0.120 A 
ENDROOT
BRANCH   1   7
HETATM    7  C   UNL     1     -42.280  57.829 -54.345  1.00  0.00     0.277 C 
BRANCH   7   8
HETATM    8  N   UNL     1     -43.589  57.353 -54.936  1.00  0.00    -0.065 N 
HETATM    9  H   UNL     1     -43.498  56.346 -55.117  1.00  0.00     0.280 HD
HETATM   10  C   UNL     1     -44.762  57.588 -54.023  1.00  0.00     0.270 C 
BRANCH   8  11
HETATM   11  C   UNL     1     -43.848  58.109 -56.205  1.00  0.00     0.205 C 
HETATM   12  C   UNL     1     -43.247  57.447 -57.550  1.00  0.00     0.008 C 
HETATM   13  C   UNL     1     -43.098  55.930 -57.676  1.00  0.00     0.020 C 
HETATM   14  C   UNL     1     -41.989  58.154 -58.068  1.00  0.00     0.020 C 
HETATM   15  C   UNL     1     -44.519  58.043 -58.184  1.00  0.00     0.137 C 
HETATM   16  C   UNL     1     -45.246  57.775 -56.833  1.00  0.00     0.049 C 
HETATM   17  O   UNL     1     -45.364  57.469 -59.179  1.00  0.00    -0.385 OA
HETATM   18  C   UNL     1     -46.540  58.403 -57.334  1.00  0.00     0.035 C 
HETATM   19  C   UNL     1     -46.718  57.721 -58.724  1.00  0.00     0.168 C 
ENDBRANCH   8  11
ENDBRANCH   7   8
ENDBRANCH   1   7
BRANCH   2  20
HETATM   20  C   UNL     1     -41.527  55.092 -52.773  1.00  0.00    -0.002 A 
HETATM   21  C   UNL     1     -40.668  54.221 -52.086  1.00  0.00     0.053 A 
HETATM   22  C   UNL     1     -40.385  52.958 -52.603  1.00  0.00     0.103 A 
HETATM   23  C   UNL     1     -40.936  52.565 -53.824  1.00  0.00     0.102 A 
HETATM   24  O   UNL     1     -39.549  52.165 -51.862  1.00  0.00    -0.346 OA
HETATM   25  O   UNL     1     -40.675  51.351 -54.407  1.00  0.00    -0.346 OA
HETATM   26  C   UNL     1     -41.791  53.421 -54.514  1.00  0.00     0.040 A 
HETATM   27  C   UNL     1     -39.502  50.750 -53.843  1.00  0.00     0.202 C 
HETATM   28  C   UNL     1     -39.548  50.808 -52.325  1.00  0.00     0.202 C 
HETATM   29  C   UNL     1     -42.078  54.688 -53.997  1.00  0.00     0.017 A 
ENDBRANCH   2  20
TORSDOF 4
ENDMDL
