MODEL 1
REMARK VINA RESULT:      -8.8      0.000      0.000
REMARK  3 active torsions:
REMARK  status: ('A' for Active; 'I' for Inactive)
REMARK    1  A    between atoms: C_5  and  C_6 
REMARK       I    between atoms: C_6  and  N_7 
REMARK    2  A    between atoms: N_7  and  C_8 
REMARK    3  A    between atoms: C_15  and  C_16 
REMARK       I    between atoms: C_16  and  N_17 
ROOT
HETATM    1  C   UNL     1     -42.398  57.395 -55.376  1.00  0.00     0.035 A 
HETATM    2  C   UNL     1     -42.381  57.194 -56.767  1.00  0.00     0.046 A 
HETATM    3  C   UNL     1     -42.257  58.299 -57.634  1.00  0.00     0.030 A 
HETATM    4  C   UNL     1     -42.154  59.569 -57.086  1.00  0.00     0.063 A 
HETATM    5  N   UNL     1     -42.054  60.417 -58.154  1.00  0.00    -0.277 N 
HETATM    6  H   UNL     1     -41.967  61.427 -58.128  1.00  0.00     0.189 HD
HETATM    7  N   UNL     1     -42.074  59.809 -59.352  1.00  0.00    -0.168 NA
HETATM    8  C   UNL     1     -42.199  58.497 -59.045  1.00  0.00     0.156 A 
HETATM    9  C   UNL     1     -42.163  59.806 -55.711  1.00  0.00     0.034 A 
HETATM   10  C   UNL     1     -42.284  58.692 -54.868  1.00  0.00     0.032 A 
ENDROOT
BRANCH   1  11
HETATM   11  N   UNL     1     -42.532  56.244 -54.572  1.00  0.00    -0.326 N 
HETATM   12  C   UNL     1     -41.527  55.405 -54.100  1.00  0.00     0.240 C 
HETATM   13  O   UNL     1     -40.329  55.536 -54.340  1.00  0.00    -0.272 OA
HETATM   14  H   UNL     1     -43.465  56.054 -54.219  1.00  0.00     0.169 HD
BRANCH  12  15
HETATM   15  C   UNL     1     -42.085  54.237 -53.249  1.00  0.00     0.172 C 
HETATM   16  C   UNL     1     -41.141  53.046 -53.166  1.00  0.00    -0.029 A 
HETATM   17  C   UNL     1     -40.275  52.807 -52.078  1.00  0.00    -0.050 A 
HETATM   18  C   UNL     1     -41.105  52.163 -54.266  1.00  0.00     0.009 A 
HETATM   19  C   UNL     1     -39.419  51.690 -52.113  1.00  0.00     0.007 A 
HETATM   20  C   UNL     1     -40.263  53.651 -50.822  1.00  0.00     0.049 C 
HETATM   21  C   UNL     1     -39.401  50.829 -53.209  1.00  0.00     0.001 A 
HETATM   22  C   UNL     1     -40.244  51.066 -54.287  1.00  0.00     0.001 A 
HETATM   23  C   UNL     1     -40.916  55.023 -50.924  1.00  0.00     0.080 C 
HETATM   24  S   UNL     1     -42.589  54.873 -51.603  1.00  0.00    -0.149 SA
ENDBRANCH  12  15
ENDBRANCH   1  11
BRANCH   8  25
HETATM   25  C   UNL     1     -42.257  57.467 -60.091  1.00  0.00     0.270 C 
HETATM   26  N   UNL     1     -41.068  56.828 -60.312  1.00  0.00    -0.365 N 
HETATM   27  H   UNL     1     -40.262  57.097 -59.759  1.00  0.00     0.159 HD
HETATM   28  H   UNL     1     -41.009  56.101 -61.007  1.00  0.00     0.159 HD
HETATM   29  O   UNL     1     -43.266  57.179 -60.725  1.00  0.00    -0.266 OA
ENDBRANCH   8  25
TORSDOF 3
ENDMDL
MODEL 2
REMARK VINA RESULT:      -8.5      1.733      2.670
REMARK  3 active torsions:
REMARK  status: ('A' for Active; 'I' for Inactive)
REMARK    1  A    between atoms: C_5  and  C_6 
REMARK       I    between atoms: C_6  and  N_7 
REMARK    2  A    between atoms: N_7  and  C_8 
REMARK    3  A    between atoms: C_15  and  C_16 
REMARK       I    between atoms: C_16  and  N_17 
ROOT
HETATM    1  C   UNL     1     -42.827  56.054 -57.404  1.00  0.00     0.035 A 
HETATM    2  C   UNL     1     -42.449  57.389 -57.179  1.00  0.00     0.046 A 
HETATM    3  C   UNL     1     -42.311  58.272 -58.269  1.00  0.00     0.030 A 
HETATM    4  C   UNL     1     -42.553  57.796 -59.549  1.00  0.00     0.063 A 
HETATM    5  N   UNL     1     -42.337  58.860 -60.379  1.00  0.00    -0.277 N 
HETATM    6  H   UNL     1     -42.418  58.875 -61.390  1.00  0.00     0.189 HD
HETATM    7  N   UNL     1     -41.982  59.993 -59.750  1.00  0.00    -0.168 NA
HETATM    8  C   UNL     1     -41.962  59.644 -58.443  1.00  0.00     0.156 A 
HETATM    9  C   UNL     1     -42.934  56.479 -59.810  1.00  0.00     0.034 A 
HETATM   10  C   UNL     1     -43.069  55.620 -58.710  1.00  0.00     0.032 A 
ENDROOT
BRANCH   1  11
HETATM   11  N   UNL     1     -42.938  55.228 -56.266  1.00  0.00    -0.326 N 
HETATM   12  C   UNL     1     -41.942  54.881 -55.358  1.00  0.00     0.240 C 
HETATM   13  O   UNL     1     -40.770  55.240 -55.425  1.00  0.00    -0.272 OA
HETATM   14  H   UNL     1     -43.877  54.920 -56.029  1.00  0.00     0.169 HD
BRANCH  12  15
HETATM   15  C   UNL     1     -42.465  53.940 -54.241  1.00  0.00     0.172 C 
HETATM   16  C   UNL     1     -41.387  53.035 -53.663  1.00  0.00    -0.029 A 
HETATM   17  C   UNL     1     -40.696  53.307 -52.463  1.00  0.00    -0.050 A 
HETATM   18  C   UNL     1     -41.035  51.885 -54.400  1.00  0.00     0.009 A 
HETATM   19  C   UNL     1     -39.695  52.419 -52.030  1.00  0.00     0.007 A 
HETATM   20  C   UNL     1     -41.022  54.478 -51.562  1.00  0.00     0.049 C 
HETATM   21  C   UNL     1     -39.365  51.286 -52.772  1.00  0.00     0.001 A 
HETATM   22  C   UNL     1     -40.035  51.019 -53.959  1.00  0.00     0.001 A 
HETATM   23  C   UNL     1     -41.838  55.603 -52.184  1.00  0.00     0.080 C 
HETATM   24  S   UNL     1     -43.331  54.937 -52.967  1.00  0.00    -0.149 SA
ENDBRANCH  12  15
ENDBRANCH   1  11
BRANCH   8  25
HETATM   25  C   UNL     1     -41.619  60.614 -57.394  1.00  0.00     0.270 C 
HETATM   26  N   UNL     1     -41.126  61.799 -57.869  1.00  0.00    -0.365 N 
HETATM   27  H   UNL     1     -41.039  61.921 -58.871  1.00  0.00     0.159 HD
HETATM   28  H   UNL     1     -40.867  62.529 -57.226  1.00  0.00     0.159 HD
HETATM   29  O   UNL     1     -41.752  60.412 -56.192  1.00  0.00    -0.266 OA
ENDBRANCH   8  25
TORSDOF 3
ENDMDL
MODEL 3
REMARK VINA RESULT:      -8.4      3.176      8.174
REMARK  3 active torsions:
REMARK  status: ('A' for Active; 'I' for Inactive)
REMARK    1  A    between atoms: C_5  and  C_6 
REMARK       I    between atoms: C_6  and  N_7 
REMARK    2  A    between atoms: N_7  and  C_8 
REMARK    3  A    between atoms: C_15  and  C_16 
REMARK       I    between atoms: C_16  and  N_17 
ROOT
HETATM    1  C   UNL     1     -40.775  54.396 -54.358  1.00  0.00     0.035 A 
HETATM    2  C   UNL     1     -41.046  54.611 -52.996  1.00  0.00     0.046 A 
HETATM    3  C   UNL     1     -40.720  53.617 -52.050  1.00  0.00     0.030 A 
HETATM    4  C   UNL     1     -40.133  52.441 -52.494  1.00  0.00     0.063 A 
HETATM    5  N   UNL     1     -39.942  51.685 -51.371  1.00  0.00    -0.277 N 
HETATM    6  H   UNL     1     -39.537  50.757 -51.319  1.00  0.00     0.189 HD
HETATM    7  N   UNL     1     -40.346  52.270 -50.231  1.00  0.00    -0.168 NA
HETATM    8  C   UNL     1     -40.829  53.467 -50.636  1.00  0.00     0.156 A 
HETATM    9  C   UNL     1     -39.846  52.195 -53.837  1.00  0.00     0.034 A 
HETATM   10  C   UNL     1     -40.177  53.199 -54.759  1.00  0.00     0.032 A 
ENDROOT
BRANCH   1  11
HETATM   11  N   UNL     1     -41.137  55.431 -55.245  1.00  0.00    -0.326 N 
HETATM   12  C   UNL     1     -42.307  55.553 -55.989  1.00  0.00     0.240 C 
HETATM   13  O   UNL     1     -43.226  54.738 -55.997  1.00  0.00    -0.272 OA
HETATM   14  H   UNL     1     -40.509  56.228 -55.280  1.00  0.00     0.169 HD
BRANCH  12  15
HETATM   15  C   UNL     1     -42.323  56.838 -56.856  1.00  0.00     0.172 C 
HETATM   16  C   UNL     1     -43.317  56.777 -58.007  1.00  0.00    -0.029 A 
HETATM   17  C   UNL     1     -44.604  57.353 -57.961  1.00  0.00    -0.050 A 
HETATM   18  C   UNL     1     -42.938  56.061 -59.161  1.00  0.00     0.009 A 
HETATM   19  C   UNL     1     -45.459  57.215 -59.070  1.00  0.00     0.007 A 
HETATM   20  C   UNL     1     -45.102  58.189 -56.802  1.00  0.00     0.049 C 
HETATM   21  C   UNL     1     -45.063  56.504 -60.202  1.00  0.00     0.001 A 
HETATM   22  C   UNL     1     -43.801  55.926 -60.248  1.00  0.00     0.001 A 
HETATM   23  C   UNL     1     -44.338  58.051 -55.493  1.00  0.00     0.080 C 
HETATM   24  S   UNL     1     -42.564  58.298 -55.771  1.00  0.00    -0.149 SA
ENDBRANCH  12  15
ENDBRANCH   1  11
BRANCH   8  25
HETATM   25  C   UNL     1     -41.377  54.438 -49.679  1.00  0.00     0.270 C 
HETATM   26  N   UNL     1     -40.733  54.457 -48.472  1.00  0.00    -0.365 N 
HETATM   27  H   UNL     1     -39.951  53.828 -48.330  1.00  0.00     0.159 HD
HETATM   28  H   UNL     1     -41.034  55.094 -47.752  1.00  0.00     0.159 HD
HETATM   29  O   UNL     1     -42.325  55.181 -49.911  1.00  0.00    -0.266 OA
ENDBRANCH   8  25
TORSDOF 3
ENDMDL
MODEL 4
REMARK VINA RESULT:      -8.4      3.453      7.848
REMARK  3 active torsions:
REMARK  status: ('A' for Active; 'I' for Inactive)
REMARK    1  A    between atoms: C_5  and  C_6 
REMARK       I    between atoms: C_6  and  N_7 
REMARK    2  A    between atoms: N_7  and  C_8 
REMARK    3  A    between atoms: C_15  and  C_16 
REMARK       I    between atoms: C_16  and  N_17 
ROOT
HETATM    1  C   UNL     1     -41.114  54.978 -54.668  1.00  0.00     0.035 A 
HETATM    2  C   UNL     1     -40.770  53.618 -54.739  1.00  0.00     0.046 A 
HETATM    3  C   UNL     1     -40.444  52.914 -53.562  1.00  0.00     0.030 A 
HETATM    4  C   UNL     1     -40.470  53.591 -52.351  1.00  0.00     0.063 A 
HETATM    5  N   UNL     1     -40.110  52.666 -51.411  1.00  0.00    -0.277 N 
HETATM    6  H   UNL     1     -40.019  52.811 -50.411  1.00  0.00     0.189 HD
HETATM    7  N   UNL     1     -39.859  51.441 -51.903  1.00  0.00    -0.168 NA
HETATM    8  C   UNL     1     -40.062  51.580 -53.233  1.00  0.00     0.156 A 
HETATM    9  C   UNL     1     -40.810  54.939 -52.242  1.00  0.00     0.034 A 
HETATM   10  C   UNL     1     -41.134  55.618 -53.426  1.00  0.00     0.032 A 
ENDROOT
BRANCH   1  11
HETATM   11  N   UNL     1     -41.421  55.618 -55.887  1.00  0.00    -0.326 N 
HETATM   12  C   UNL     1     -42.661  56.067 -56.331  1.00  0.00     0.240 C 
HETATM   13  O   UNL     1     -43.716  55.951 -55.713  1.00  0.00    -0.272 OA
HETATM   14  H   UNL     1     -40.629  55.862 -56.474  1.00  0.00     0.169 HD
BRANCH  12  15
HETATM   15  C   UNL     1     -42.584  56.715 -57.738  1.00  0.00     0.172 C 
HETATM   16  C   UNL     1     -43.777  56.380 -58.622  1.00  0.00    -0.029 A 
HETATM   17  C   UNL     1     -44.884  57.236 -58.801  1.00  0.00    -0.050 A 
HETATM   18  C   UNL     1     -43.788  55.119 -59.255  1.00  0.00     0.009 A 
HETATM   19  C   UNL     1     -45.951  56.819 -59.618  1.00  0.00     0.007 A 
HETATM   20  C   UNL     1     -44.961  58.631 -58.218  1.00  0.00     0.049 C 
HETATM   21  C   UNL     1     -45.940  55.570 -60.236  1.00  0.00     0.001 A 
HETATM   22  C   UNL     1     -44.858  54.719 -60.055  1.00  0.00     0.001 A 
HETATM   23  C   UNL     1     -43.998  58.941 -57.080  1.00  0.00     0.080 C 
HETATM   24  S   UNL     1     -42.302  58.519 -57.560  1.00  0.00    -0.149 SA
ENDBRANCH  12  15
ENDBRANCH   1  11
BRANCH   8  25
HETATM   25  C   UNL     1     -39.894  50.450 -54.157  1.00  0.00     0.270 C 
HETATM   26  N   UNL     1     -41.069  49.956 -54.654  1.00  0.00    -0.365 N 
HETATM   27  H   UNL     1     -41.939  50.388 -54.364  1.00  0.00     0.159 HD
HETATM   28  H   UNL     1     -41.056  49.183 -55.301  1.00  0.00     0.159 HD
HETATM   29  O   UNL     1     -38.811  49.972 -54.478  1.00  0.00    -0.266 OA
ENDBRANCH   8  25
TORSDOF 3
ENDMDL
MODEL 5
REMARK VINA RESULT:      -8.3      1.581      1.744
REMARK  3 active torsions:
REMARK  status: ('A' for Active; 'I' for Inactive)
REMARK    1  A    between atoms: C_5  and  C_6 
REMARK       I    between atoms: C_6  and  N_7 
REMARK    2  A    between atoms: N_7  and  C_8 
REMARK    3  A    between atoms: C_15  and  C_16 
REMARK       I    between atoms: C_16  and  N_17 
ROOT
HETATM    1  C   UNL     1     -42.882  56.638 -56.387  1.00  0.00     0.035 A 
HETATM    2  C   UNL     1     -43.510  56.346 -57.610  1.00  0.00     0.046 A 
HETATM    3  C   UNL     1     -43.526  57.310 -58.638  1.00  0.00     0.030 A 
HETATM    4  C   UNL     1     -42.915  58.535 -58.414  1.00  0.00     0.063 A 
HETATM    5  N   UNL     1     -43.095  59.247 -59.567  1.00  0.00    -0.277 N 
HETATM    6  H   UNL     1     -42.781  60.192 -59.759  1.00  0.00     0.189 HD
HETATM    7  N   UNL     1     -43.765  58.589 -60.528  1.00  0.00    -0.168 NA
HETATM    8  C   UNL     1     -44.037  57.388 -59.967  1.00  0.00     0.156 A 
HETATM    9  C   UNL     1     -42.279  58.859 -57.215  1.00  0.00     0.034 A 
HETATM   10  C   UNL     1     -42.273  57.883 -56.208  1.00  0.00     0.032 A 
ENDROOT
BRANCH   1  11
HETATM   11  N   UNL     1     -42.913  55.628 -55.403  1.00  0.00    -0.326 N 
HETATM   12  C   UNL     1     -41.835  54.990 -54.795  1.00  0.00     0.240 C 
HETATM   13  O   UNL     1     -40.653  55.206 -55.049  1.00  0.00    -0.272 OA
HETATM   14  H   UNL     1     -43.828  55.401 -55.026  1.00  0.00     0.169 HD
BRANCH  12  15
HETATM   15  C   UNL     1     -42.287  53.926 -53.762  1.00  0.00     0.172 C 
HETATM   16  C   UNL     1     -41.230  52.866 -53.488  1.00  0.00    -0.029 A 
HETATM   17  C   UNL     1     -40.360  52.896 -52.377  1.00  0.00    -0.050 A 
HETATM   18  C   UNL     1     -41.090  51.824 -54.428  1.00  0.00     0.009 A 
HETATM   19  C   UNL     1     -39.396  51.881 -52.231  1.00  0.00     0.007 A 
HETATM   20  C   UNL     1     -40.450  53.930 -51.276  1.00  0.00     0.049 C 
HETATM   21  C   UNL     1     -39.277  50.859 -53.171  1.00  0.00     0.001 A 
HETATM   22  C   UNL     1     -40.123  50.830 -54.271  1.00  0.00     0.001 A 
HETATM   23  C   UNL     1     -41.235  55.194 -51.600  1.00  0.00     0.080 C 
HETATM   24  S   UNL     1     -42.875  54.768 -52.242  1.00  0.00    -0.149 SA
ENDBRANCH  12  15
ENDBRANCH   1  11
BRANCH   8  25
HETATM   25  C   UNL     1     -44.769  56.347 -60.700  1.00  0.00     0.270 C 
HETATM   26  N   UNL     1     -46.065  56.673 -60.990  1.00  0.00    -0.365 N 
HETATM   27  H   UNL     1     -46.416  57.577 -60.693  1.00  0.00     0.159 HD
HETATM   28  H   UNL     1     -46.647  56.024 -61.495  1.00  0.00     0.159 HD
HETATM   29  O   UNL     1     -44.289  55.270 -61.040  1.00  0.00    -0.266 OA
ENDBRANCH   8  25
TORSDOF 3
ENDMDL
MODEL 6
REMARK VINA RESULT:      -8.3      3.318      8.040
REMARK  3 active torsions:
REMARK  status: ('A' for Active; 'I' for Inactive)
REMARK    1  A    between atoms: C_5  and  C_6 
REMARK       I    between atoms: C_6  and  N_7 
REMARK    2  A    between atoms: N_7  and  C_8 
REMARK    3  A    between atoms: C_15  and  C_16 
REMARK       I    between atoms: C_16  and  N_17 
ROOT
HETATM    1  C   UNL     1     -41.375  54.994 -55.219  1.00  0.00     0.035 A 
HETATM    2  C   UNL     1     -42.063  55.206 -54.012  1.00  0.00     0.046 A 
HETATM    3  C   UNL     1     -41.722  54.456 -52.868  1.00  0.00     0.030 A 
HETATM    4  C   UNL     1     -40.706  53.516 -52.965  1.00  0.00     0.063 A 
HETATM    5  N   UNL     1     -40.610  52.956 -51.722  1.00  0.00    -0.277 N 
HETATM    6  H   UNL     1     -39.972  52.226 -51.426  1.00  0.00     0.189 HD
HETATM    7  N   UNL     1     -41.472  53.455 -50.819  1.00  0.00    -0.168 NA
HETATM    8  C   UNL     1     -42.166  54.384 -51.515  1.00  0.00     0.156 A 
HETATM    9  C   UNL     1     -39.999  53.281 -54.145  1.00  0.00     0.034 A 
HETATM   10  C   UNL     1     -40.353  54.043 -55.268  1.00  0.00     0.032 A 
ENDROOT
BRANCH   1  11
HETATM   11  N   UNL     1     -41.776  55.776 -56.322  1.00  0.00    -0.326 N 
HETATM   12  C   UNL     1     -42.836  55.548 -57.195  1.00  0.00     0.240 C 
HETATM   13  O   UNL     1     -43.597  54.585 -57.144  1.00  0.00    -0.272 OA
HETATM   14  H   UNL     1     -41.290  56.660 -56.442  1.00  0.00     0.169 HD
BRANCH  12  15
HETATM   15  C   UNL     1     -42.944  56.641 -58.289  1.00  0.00     0.172 C 
HETATM   16  C   UNL     1     -44.156  56.471 -59.193  1.00  0.00    -0.029 A 
HETATM   17  C   UNL     1     -45.364  57.181 -59.026  1.00  0.00    -0.050 A 
HETATM   18  C   UNL     1     -44.072  55.514 -60.226  1.00  0.00     0.009 A 
HETATM   19  C   UNL     1     -46.437  56.928 -59.900  1.00  0.00     0.007 A 
HETATM   20  C   UNL     1     -45.554  58.268 -57.991  1.00  0.00     0.049 C 
HETATM   21  C   UNL     1     -46.332  55.979 -60.916  1.00  0.00     0.001 A 
HETATM   22  C   UNL     1     -45.149  55.270 -61.079  1.00  0.00     0.001 A 
HETATM   23  C   UNL     1     -44.547  58.297 -56.849  1.00  0.00     0.080 C 
HETATM   24  S   UNL     1     -42.857  58.296 -57.502  1.00  0.00    -0.149 SA
ENDBRANCH  12  15
ENDBRANCH   1  11
BRANCH   8  25
HETATM   25  C   UNL     1     -43.226  55.182 -50.884  1.00  0.00     0.270 C 
HETATM   26  N   UNL     1     -44.346  54.466 -50.560  1.00  0.00    -0.365 N 
HETATM   27  H   UNL     1     -44.364  53.474 -50.767  1.00  0.00     0.159 HD
HETATM   28  H   UNL     1     -45.126  54.925 -50.118  1.00  0.00     0.159 HD
HETATM   29  O   UNL     1     -43.145  56.384 -50.652  1.00  0.00    -0.266 OA
ENDBRANCH   8  25
TORSDOF 3
ENDMDL
MODEL 7
REMARK VINA RESULT:      -8.2      2.716      3.789
REMARK  3 active torsions:
REMARK  status: ('A' for Active; 'I' for Inactive)
REMARK    1  A    between atoms: C_5  and  C_6 
REMARK       I    between atoms: C_6  and  N_7 
REMARK    2  A    between atoms: N_7  and  C_8 
REMARK    3  A    between atoms: C_15  and  C_16 
REMARK       I    between atoms: C_16  and  N_17 
ROOT
HETATM    1  C   UNL     1     -43.172  57.275 -57.044  1.00  0.00     0.035 A 
HETATM    2  C   UNL     1     -43.598  56.391 -58.050  1.00  0.00     0.046 A 
HETATM    3  C   UNL     1     -44.604  56.789 -58.954  1.00  0.00     0.030 A 
HETATM    4  C   UNL     1     -45.152  58.057 -58.826  1.00  0.00     0.063 A 
HETATM    5  N   UNL     1     -46.086  58.150 -59.821  1.00  0.00    -0.277 N 
HETATM    6  H   UNL     1     -46.687  58.941 -60.025  1.00  0.00     0.189 HD
HETATM    7  N   UNL     1     -46.188  57.054 -60.592  1.00  0.00    -0.168 NA
HETATM    8  C   UNL     1     -45.276  56.204 -60.068  1.00  0.00     0.156 A 
HETATM    9  C   UNL     1     -44.752  58.962 -57.844  1.00  0.00     0.034 A 
HETATM   10  C   UNL     1     -43.747  58.546 -56.958  1.00  0.00     0.032 A 
ENDROOT
BRANCH   1  11
HETATM   11  N   UNL     1     -42.168  56.805 -56.172  1.00  0.00    -0.326 N 
HETATM   12  C   UNL     1     -42.327  56.101 -54.982  1.00  0.00     0.240 C 
HETATM   13  O   UNL     1     -43.407  55.789 -54.486  1.00  0.00    -0.272 OA
HETATM   14  H   UNL     1     -41.211  56.913 -56.494  1.00  0.00     0.169 HD
BRANCH  12  15
HETATM   15  C   UNL     1     -40.971  55.770 -54.307  1.00  0.00     0.172 C 
HETATM   16  C   UNL     1     -41.061  55.666 -52.792  1.00  0.00    -0.029 A 
HETATM   17  C   UNL     1     -41.174  54.444 -52.095  1.00  0.00    -0.050 A 
HETATM   18  C   UNL     1     -41.079  56.869 -52.055  1.00  0.00     0.009 A 
HETATM   19  C   UNL     1     -41.281  54.460 -50.692  1.00  0.00     0.007 A 
HETATM   20  C   UNL     1     -41.111  53.092 -52.771  1.00  0.00     0.049 C 
HETATM   21  C   UNL     1     -41.294  55.660 -49.983  1.00  0.00     0.001 A 
HETATM   22  C   UNL     1     -41.194  56.865 -50.664  1.00  0.00     0.001 A 
HETATM   23  C   UNL     1     -41.344  53.078 -54.276  1.00  0.00     0.080 C 
HETATM   24  S   UNL     1     -40.254  54.273 -55.091  1.00  0.00    -0.149 SA
ENDBRANCH  12  15
ENDBRANCH   1  11
BRANCH   8  25
HETATM   25  C   UNL     1     -45.061  54.865 -60.632  1.00  0.00     0.270 C 
HETATM   26  N   UNL     1     -45.105  53.856 -59.709  1.00  0.00    -0.365 N 
HETATM   27  H   UNL     1     -45.278  54.093 -58.739  1.00  0.00     0.159 HD
HETATM   28  H   UNL     1     -44.973  52.901 -60.001  1.00  0.00     0.159 HD
HETATM   29  O   UNL     1     -44.860  54.637 -61.821  1.00  0.00    -0.266 OA
ENDBRANCH   8  25
TORSDOF 3
ENDMDL
MODEL 8
REMARK VINA RESULT:      -7.7      4.120      5.702
REMARK  3 active torsions:
REMARK  status: ('A' for Active; 'I' for Inactive)
REMARK    1  A    between atoms: C_5  and  C_6 
REMARK       I    between atoms: C_6  and  N_7 
REMARK    2  A    between atoms: N_7  and  C_8 
REMARK    3  A    between atoms: C_15  and  C_16 
REMARK       I    between atoms: C_16  and  N_17 
ROOT
HETATM    1  C   UNL     1     -44.592  57.856 -52.869  1.00  0.00     0.035 A 
HETATM    2  C   UNL     1     -44.772  58.674 -51.740  1.00  0.00     0.046 A 
HETATM    3  C   UNL     1     -45.058  60.045 -51.905  1.00  0.00     0.030 A 
HETATM    4  C   UNL     1     -45.155  60.556 -53.191  1.00  0.00     0.063 A 
HETATM    5  N   UNL     1     -45.429  61.886 -53.032  1.00  0.00    -0.277 N 
HETATM    6  H   UNL     1     -45.562  62.576 -53.764  1.00  0.00     0.189 HD
HETATM    7  N   UNL     1     -45.528  62.285 -51.753  1.00  0.00    -0.168 NA
HETATM    8  C   UNL     1     -45.301  61.155 -51.045  1.00  0.00     0.156 A 
HETATM    9  C   UNL     1     -44.986  59.775 -54.334  1.00  0.00     0.034 A 
HETATM   10  C   UNL     1     -44.706  58.413 -54.146  1.00  0.00     0.032 A 
ENDROOT
BRANCH   1  11
HETATM   11  N   UNL     1     -44.302  56.498 -52.627  1.00  0.00    -0.326 N 
HETATM   12  C   UNL     1     -43.074  55.850 -52.738  1.00  0.00     0.240 C 
HETATM   13  O   UNL     1     -42.027  56.381 -53.098  1.00  0.00    -0.272 OA
HETATM   14  H   UNL     1     -45.057  55.943 -52.236  1.00  0.00     0.169 HD
BRANCH  12  15
HETATM   15  C   UNL     1     -43.170  54.342 -52.390  1.00  0.00     0.172 C 
HETATM   16  C   UNL     1     -41.908  53.563 -52.733  1.00  0.00    -0.029 A 
HETATM   17  C   UNL     1     -40.908  53.239 -51.793  1.00  0.00    -0.050 A 
HETATM   18  C   UNL     1     -41.718  53.190 -54.080  1.00  0.00     0.009 A 
HETATM   19  C   UNL     1     -39.764  52.539 -52.220  1.00  0.00     0.007 A 
HETATM   20  C   UNL     1     -41.025  53.538 -50.315  1.00  0.00     0.049 C 
HETATM   21  C   UNL     1     -39.597  52.178 -53.556  1.00  0.00     0.001 A 
HETATM   22  C   UNL     1     -40.574  52.504 -54.487  1.00  0.00     0.001 A 
HETATM   23  C   UNL     1     -42.067  54.575 -49.916  1.00  0.00     0.080 C 
HETATM   24  S   UNL     1     -43.676  54.158 -50.636  1.00  0.00    -0.149 SA
ENDBRANCH  12  15
ENDBRANCH   1  11
BRANCH   8  25
HETATM   25  C   UNL     1     -45.323  61.153 -49.576  1.00  0.00     0.270 C 
HETATM   26  N   UNL     1     -44.096  60.968 -48.999  1.00  0.00    -0.365 N 
HETATM   27  H   UNL     1     -43.289  60.854 -49.602  1.00  0.00     0.159 HD
HETATM   28  H   UNL     1     -44.008  60.957 -47.996  1.00  0.00     0.159 HD
HETATM   29  O   UNL     1     -46.333  61.304 -48.896  1.00  0.00    -0.266 OA
ENDBRANCH   8  25
TORSDOF 3
ENDMDL
MODEL 9
REMARK VINA RESULT:      -7.6      2.043      3.139
REMARK  3 active torsions:
REMARK  status: ('A' for Active; 'I' for Inactive)
REMARK    1  A    between atoms: C_5  and  C_6 
REMARK       I    between atoms: C_6  and  N_7 
REMARK    2  A    between atoms: N_7  and  C_8 
REMARK    3  A    between atoms: C_15  and  C_16 
REMARK       I    between atoms: C_16  and  N_17 
ROOT
HETATM    1  C   UNL     1     -42.942  56.421 -56.515  1.00  0.00     0.035 A 
HETATM    2  C   UNL     1     -42.545  57.729 -56.840  1.00  0.00     0.046 A 
HETATM    3  C   UNL     1     -42.332  58.082 -58.188  1.00  0.00     0.030 A 
HETATM    4  C   UNL     1     -42.521  57.119 -59.169  1.00  0.00     0.063 A 
HETATM    5  N   UNL     1     -42.239  57.745 -60.351  1.00  0.00    -0.277 N 
HETATM    6  H   UNL     1     -42.269  57.340 -61.281  1.00  0.00     0.189 HD
HETATM    7  N   UNL     1     -41.890  59.037 -60.228  1.00  0.00    -0.168 NA
HETATM    8  C   UNL     1     -41.944  59.259 -58.894  1.00  0.00     0.156 A 
HETATM    9  C   UNL     1     -42.918  55.813 -58.883  1.00  0.00     0.034 A 
HETATM   10  C   UNL     1     -43.128  55.485 -57.536  1.00  0.00     0.032 A 
ENDROOT
BRANCH   1  11
HETATM   11  N   UNL     1     -43.129  56.139 -55.145  1.00  0.00    -0.326 N 
HETATM   12  C   UNL     1     -42.156  55.921 -54.174  1.00  0.00     0.240 C 
HETATM   13  O   UNL     1     -40.944  55.921 -54.377  1.00  0.00    -0.272 OA
HETATM   14  H   UNL     1     -44.085  56.190 -54.806  1.00  0.00     0.169 HD
BRANCH  12  15
HETATM   15  C   UNL     1     -42.769  55.633 -52.780  1.00  0.00     0.172 C 
HETATM   16  C   UNL     1     -41.789  54.986 -51.812  1.00  0.00    -0.029 A 
HETATM   17  C   UNL     1     -41.070  55.701 -50.831  1.00  0.00    -0.050 A 
HETATM   18  C   UNL     1     -41.559  53.600 -51.943  1.00  0.00     0.009 A 
HETATM   19  C   UNL     1     -40.164  55.011 -50.003  1.00  0.00     0.007 A 
HETATM   20  C   UNL     1     -41.271  57.176 -50.560  1.00  0.00     0.049 C 
HETATM   21  C   UNL     1     -39.954  53.641 -50.149  1.00  0.00     0.001 A 
HETATM   22  C   UNL     1     -40.651  52.934 -51.120  1.00  0.00     0.001 A 
HETATM   23  C   UNL     1     -41.969  57.973 -51.653  1.00  0.00     0.080 C 
HETATM   24  S   UNL     1     -43.525  57.170 -52.121  1.00  0.00    -0.149 SA
ENDBRANCH  12  15
ENDBRANCH   1  11
BRANCH   8  25
HETATM   25  C   UNL     1     -41.631  60.576 -58.323  1.00  0.00     0.270 C 
HETATM   26  N   UNL     1     -41.810  61.618 -59.191  1.00  0.00    -0.365 N 
HETATM   27  H   UNL     1     -42.136  61.418 -60.129  1.00  0.00     0.159 HD
HETATM   28  H   UNL     1     -41.626  62.561 -58.888  1.00  0.00     0.159 HD
HETATM   29  O   UNL     1     -41.245  60.759 -57.173  1.00  0.00    -0.266 OA
ENDBRANCH   8  25
TORSDOF 3
ENDMDL
MODEL 10
REMARK VINA RESULT:      -7.6      1.461      1.498
REMARK  3 active torsions:
REMARK  status: ('A' for Active; 'I' for Inactive)
REMARK    1  A    between atoms: C_5  and  C_6 
REMARK       I    between atoms: C_6  and  N_7 
REMARK    2  A    between atoms: N_7  and  C_8 
REMARK    3  A    between atoms: C_15  and  C_16 
REMARK       I    between atoms: C_16  and  N_17 
ROOT
HETATM    1  C   UNL     1     -43.828  57.568 -55.430  1.00  0.00     0.035 A 
HETATM    2  C   UNL     1     -43.646  57.299 -56.798  1.00  0.00     0.046 A 
HETATM    3  C   UNL     1     -43.746  58.345 -57.738  1.00  0.00     0.030 A 
HETATM    4  C   UNL     1     -44.025  59.626 -57.283  1.00  0.00     0.063 A 
HETATM    5  N   UNL     1     -44.065  60.408 -58.404  1.00  0.00    -0.277 N 
HETATM    6  H   UNL     1     -44.248  61.404 -58.450  1.00  0.00     0.189 HD
HETATM    7  N   UNL     1     -43.827  59.748 -59.551  1.00  0.00    -0.168 NA
HETATM    8  C   UNL     1     -43.628  58.471 -59.153  1.00  0.00     0.156 A 
HETATM    9  C   UNL     1     -44.208  59.930 -55.934  1.00  0.00     0.034 A 
HETATM   10  C   UNL     1     -44.100  58.875 -55.017  1.00  0.00     0.032 A 
ENDROOT
BRANCH   1  11
HETATM   11  N   UNL     1     -43.721  56.471 -54.550  1.00  0.00    -0.326 N 
HETATM   12  C   UNL     1     -42.606  56.058 -53.826  1.00  0.00     0.240 C 
HETATM   13  O   UNL     1     -41.502  56.597 -53.862  1.00  0.00    -0.272 OA
HETATM   14  H   UNL     1     -44.583  55.974 -54.350  1.00  0.00     0.169 HD
BRANCH  12  15
HETATM   15  C   UNL     1     -42.891  54.796 -52.973  1.00  0.00     0.172 C 
HETATM   16  C   UNL     1     -41.769  53.769 -53.021  1.00  0.00    -0.029 A 
HETATM   17  C   UNL     1     -40.777  53.645 -52.026  1.00  0.00    -0.050 A 
HETATM   18  C   UNL     1     -41.701  52.929 -54.153  1.00  0.00     0.009 A 
HETATM   19  C   UNL     1     -39.764  52.680 -52.181  1.00  0.00     0.007 A 
HETATM   20  C   UNL     1     -40.777  54.450 -50.745  1.00  0.00     0.049 C 
HETATM   21  C   UNL     1     -39.717  51.859 -53.306  1.00  0.00     0.001 A 
HETATM   22  C   UNL     1     -40.685  51.984 -54.294  1.00  0.00     0.001 A 
HETATM   23  C   UNL     1     -41.643  55.703 -50.735  1.00  0.00     0.080 C 
HETATM   24  S   UNL     1     -43.329  55.305 -51.265  1.00  0.00    -0.149 SA
ENDBRANCH  12  15
ENDBRANCH   1  11
BRANCH   8  25
HETATM   25  C   UNL     1     -43.328  57.405 -60.118  1.00  0.00     0.270 C 
HETATM   26  N   UNL     1     -44.434  56.874 -60.725  1.00  0.00    -0.365 N 
HETATM   27  H   UNL     1     -45.346  57.241 -60.478  1.00  0.00     0.159 HD
HETATM   28  H   UNL     1     -44.329  56.139 -61.406  1.00  0.00     0.159 HD
HETATM   29  O   UNL     1     -42.199  57.004 -60.381  1.00  0.00    -0.266 OA
ENDBRANCH   8  25
TORSDOF 3
ENDMDL
