MODEL 1
REMARK VINA RESULT:      -8.8      0.000      0.000
REMARK  7 active torsions:
REMARK  status: ('A' for Active; 'I' for Inactive)
REMARK    1  A    between atoms: O_2  and  C_3 
REMARK    2  A    between atoms: C_4  and  C_5 
REMARK    3  A    between atoms: C_5  and  C_6 
REMARK       I    between atoms: C_6  and  N_7 
REMARK    4  A    between atoms: N_7  and  N_8 
REMARK       I    between atoms: N_8  and  C_9 
REMARK    5  A    between atoms: C_9  and  C_10 
REMARK    6  A    between atoms: C_15  and  O_16 
REMARK    7  A    between atoms: O_16  and  C_17 
ROOT
HETATM    1  N   UNL     1     -43.399  54.514 -57.021  1.00  0.00    -0.262 N 
HETATM    2  C   UNL     1     -42.553  55.238 -56.210  1.00  0.00     0.286 C 
HETATM    3  O   UNL     1     -42.275  56.414 -56.446  1.00  0.00    -0.264 OA
HETATM    4  H   UNL     1     -43.648  53.542 -56.854  1.00  0.00     0.190 HD
ENDROOT
BRANCH   2   5
HETATM    5  C   UNL     1     -42.012  54.525 -55.076  1.00  0.00     0.103 A 
HETATM    6  N   UNL     1     -42.336  54.881 -53.784  1.00  0.00    -0.351 N 
HETATM    7  H   UNL     1     -42.963  55.641 -53.554  1.00  0.00     0.166 HD
HETATM    8  C   UNL     1     -41.675  54.094 -52.870  1.00  0.00     0.045 A 
HETATM    9  C   UNL     1     -40.895  53.193 -53.594  1.00  0.00     0.026 A 
HETATM   10  C   UNL     1     -41.697  54.123 -51.473  1.00  0.00     0.030 A 
HETATM   11  C   UNL     1     -40.090  52.265 -52.897  1.00  0.00     0.087 A 
HETATM   12  C   UNL     1     -41.128  53.464 -54.975  1.00  0.00     0.052 A 
HETATM   13  C   UNL     1     -40.079  52.307 -51.494  1.00  0.00     0.038 A 
HETATM   14  C   UNL     1     -40.879  53.215 -50.797  1.00  0.00     0.005 A 
BRANCH  11  15
HETATM   15  O   UNL     1     -39.306  51.414 -53.632  1.00  0.00    -0.289 OA
BRANCH  15  16
HETATM   16  C   UNL     1     -39.888  50.142 -53.860  1.00  0.00     0.505 C 
HETATM   17  F   UNL     1     -39.518  49.744 -55.103  1.00  0.00    -0.184 F 
HETATM   18  F   UNL     1     -39.346  49.250 -52.994  1.00  0.00    -0.184 F 
ENDBRANCH  15  16
ENDBRANCH  11  15
ENDBRANCH   2   5
BRANCH   1  19
HETATM   19  N   UNL     1     -43.866  55.086 -58.207  1.00  0.00    -0.267 N 
HETATM   20  C   UNL     1     -44.449  54.260 -59.147  1.00  0.00     0.240 C 
HETATM   21  O   UNL     1     -44.632  53.060 -58.943  1.00  0.00    -0.272 OA
HETATM   22  H   UNL     1     -43.748  56.091 -58.322  1.00  0.00     0.190 HD
BRANCH  20  23
HETATM   23  C   UNL     1     -44.831  54.953 -60.435  1.00  0.00     0.146 C 
BRANCH  23  24
HETATM   24  C   UNL     1     -45.238  56.409 -60.328  1.00  0.00    -0.016 A 
HETATM   25  C   UNL     1     -44.241  57.402 -60.445  1.00  0.00     0.074 A 
HETATM   26  C   UNL     1     -44.581  58.754 -60.331  1.00  0.00     0.037 A 
HETATM   27  C   UNL     1     -45.906  59.130 -60.107  1.00  0.00     0.003 A 
HETATM   28  C   UNL     1     -46.896  58.160 -59.995  1.00  0.00     0.001 A 
HETATM   29  C   UNL     1     -46.566  56.808 -60.104  1.00  0.00     0.010 A 
BRANCH  25  30
HETATM   30  O   UNL     1     -42.965  56.940 -60.652  1.00  0.00    -0.355 OA
HETATM   31  C   UNL     1     -41.909  57.619 -59.986  1.00  0.00     0.210 C 
ENDBRANCH  25  30
ENDBRANCH  23  24
ENDBRANCH  20  23
ENDBRANCH   1  19
TORSDOF 7
ENDMDL
MODEL 2
REMARK VINA RESULT:      -8.2      4.042      9.705
REMARK  7 active torsions:
REMARK  status: ('A' for Active; 'I' for Inactive)
REMARK    1  A    between atoms: O_2  and  C_3 
REMARK    2  A    between atoms: C_4  and  C_5 
REMARK    3  A    between atoms: C_5  and  C_6 
REMARK       I    between atoms: C_6  and  N_7 
REMARK    4  A    between atoms: N_7  and  N_8 
REMARK       I    between atoms: N_8  and  C_9 
REMARK    5  A    between atoms: C_9  and  C_10 
REMARK    6  A    between atoms: C_15  and  O_16 
REMARK    7  A    between atoms: O_16  and  C_17 
ROOT
HETATM    1  N   UNL     1     -42.169  55.177 -56.753  1.00  0.00    -0.262 N 
HETATM    2  C   UNL     1     -42.633  56.474 -56.736  1.00  0.00     0.286 C 
HETATM    3  O   UNL     1     -42.144  57.329 -55.998  1.00  0.00    -0.264 OA
HETATM    4  H   UNL     1     -42.551  54.447 -57.349  1.00  0.00     0.190 HD
ENDROOT
BRANCH   2   5
HETATM    5  C   UNL     1     -43.731  56.757 -57.631  1.00  0.00     0.103 A 
HETATM    6  N   UNL     1     -44.171  55.821 -58.543  1.00  0.00    -0.351 N 
HETATM    7  H   UNL     1     -43.768  54.898 -58.635  1.00  0.00     0.166 HD
HETATM    8  C   UNL     1     -45.193  56.321 -59.315  1.00  0.00     0.045 A 
HETATM    9  C   UNL     1     -45.428  57.627 -58.888  1.00  0.00     0.026 A 
HETATM   10  C   UNL     1     -45.909  55.726 -60.357  1.00  0.00     0.030 A 
HETATM   11  C   UNL     1     -46.428  58.392 -59.528  1.00  0.00     0.087 A 
HETATM   12  C   UNL     1     -44.515  57.882 -57.821  1.00  0.00     0.052 A 
HETATM   13  C   UNL     1     -47.132  57.815 -60.598  1.00  0.00     0.038 A 
HETATM   14  C   UNL     1     -46.880  56.501 -60.996  1.00  0.00     0.005 A 
BRANCH  11  15
HETATM   15  O   UNL     1     -46.614  59.684 -59.112  1.00  0.00    -0.289 OA
BRANCH  15  16
HETATM   16  C   UNL     1     -47.725  59.861 -58.249  1.00  0.00     0.505 C 
HETATM   17  F   UNL     1     -48.803  60.131 -59.026  1.00  0.00    -0.184 F 
HETATM   18  F   UNL     1     -47.986  58.685 -57.624  1.00  0.00    -0.184 F 
ENDBRANCH  15  16
ENDBRANCH  11  15
ENDBRANCH   2   5
BRANCH   1  19
HETATM   19  N   UNL     1     -41.196  54.785 -55.829  1.00  0.00    -0.267 N 
HETATM   20  C   UNL     1     -41.608  54.156 -54.673  1.00  0.00     0.240 C 
HETATM   21  O   UNL     1     -42.787  53.869 -54.466  1.00  0.00    -0.272 OA
HETATM   22  H   UNL     1     -40.224  54.989 -56.056  1.00  0.00     0.190 HD
BRANCH  20  23
HETATM   23  C   UNL     1     -40.495  53.861 -53.693  1.00  0.00     0.146 C 
BRANCH  23  24
HETATM   24  C   UNL     1     -40.203  52.400 -53.416  1.00  0.00    -0.016 A 
HETATM   25  C   UNL     1     -39.770  52.028 -52.124  1.00  0.00     0.074 A 
HETATM   26  C   UNL     1     -39.473  50.691 -51.842  1.00  0.00     0.037 A 
HETATM   27  C   UNL     1     -39.610  49.716 -52.831  1.00  0.00     0.003 A 
HETATM   28  C   UNL     1     -40.041  50.071 -54.105  1.00  0.00     0.001 A 
HETATM   29  C   UNL     1     -40.336  51.404 -54.397  1.00  0.00     0.010 A 
BRANCH  25  30
HETATM   30  O   UNL     1     -39.653  53.054 -51.220  1.00  0.00    -0.355 OA
HETATM   31  C   UNL     1     -40.403  52.952 -50.017  1.00  0.00     0.210 C 
ENDBRANCH  25  30
ENDBRANCH  23  24
ENDBRANCH  20  23
ENDBRANCH   1  19
TORSDOF 7
ENDMDL
MODEL 3
REMARK VINA RESULT:      -8.1      1.029      1.894
REMARK  7 active torsions:
REMARK  status: ('A' for Active; 'I' for Inactive)
REMARK    1  A    between atoms: O_2  and  C_3 
REMARK    2  A    between atoms: C_4  and  C_5 
REMARK    3  A    between atoms: C_5  and  C_6 
REMARK       I    between atoms: C_6  and  N_7 
REMARK    4  A    between atoms: N_7  and  N_8 
REMARK       I    between atoms: N_8  and  C_9 
REMARK    5  A    between atoms: C_9  and  C_10 
REMARK    6  A    between atoms: C_15  and  O_16 
REMARK    7  A    between atoms: O_16  and  C_17 
ROOT
HETATM    1  N   UNL     1     -43.127  55.061 -56.959  1.00  0.00    -0.262 N 
HETATM    2  C   UNL     1     -42.421  55.717 -55.973  1.00  0.00     0.286 C 
HETATM    3  O   UNL     1     -42.231  56.932 -56.010  1.00  0.00    -0.264 OA
HETATM    4  H   UNL     1     -43.300  54.059 -56.959  1.00  0.00     0.190 HD
ENDROOT
BRANCH   2   5
HETATM    5  C   UNL     1     -41.916  54.883 -54.906  1.00  0.00     0.103 A 
HETATM    6  N   UNL     1     -42.222  55.144 -53.588  1.00  0.00    -0.351 N 
HETATM    7  H   UNL     1     -42.810  55.913 -53.291  1.00  0.00     0.166 HD
HETATM    8  C   UNL     1     -41.600  54.251 -52.747  1.00  0.00     0.045 A 
HETATM    9  C   UNL     1     -40.868  53.377 -53.548  1.00  0.00     0.026 A 
HETATM   10  C   UNL     1     -41.621  54.163 -51.352  1.00  0.00     0.030 A 
HETATM   11  C   UNL     1     -40.110  52.354 -52.936  1.00  0.00     0.087 A 
HETATM   12  C   UNL     1     -41.087  53.775 -54.900  1.00  0.00     0.052 A 
HETATM   13  C   UNL     1     -40.097  52.276 -51.534  1.00  0.00     0.038 A 
HETATM   14  C   UNL     1     -40.849  53.160 -50.760  1.00  0.00     0.005 A 
BRANCH  11  15
HETATM   15  O   UNL     1     -39.370  51.530 -53.744  1.00  0.00    -0.289 OA
BRANCH  15  16
HETATM   16  C   UNL     1     -39.797  50.179 -53.739  1.00  0.00     0.505 C 
HETATM   17  F   UNL     1     -40.912  50.103 -54.509  1.00  0.00    -0.184 F 
HETATM   18  F   UNL     1     -38.855  49.419 -54.353  1.00  0.00    -0.184 F 
ENDBRANCH  15  16
ENDBRANCH  11  15
ENDBRANCH   2   5
BRANCH   1  19
HETATM   19  N   UNL     1     -43.540  55.768 -58.091  1.00  0.00    -0.267 N 
HETATM   20  C   UNL     1     -44.117  55.064 -59.128  1.00  0.00     0.240 C 
HETATM   21  O   UNL     1     -44.340  53.855 -59.057  1.00  0.00    -0.272 OA
HETATM   22  H   UNL     1     -43.391  56.776 -58.095  1.00  0.00     0.190 HD
BRANCH  20  23
HETATM   23  C   UNL     1     -44.440  55.900 -60.346  1.00  0.00     0.146 C 
BRANCH  23  24
HETATM   24  C   UNL     1     -43.949  57.334 -60.334  1.00  0.00    -0.016 A 
HETATM   25  C   UNL     1     -44.894  58.371 -60.171  1.00  0.00     0.074 A 
HETATM   26  C   UNL     1     -44.476  59.706 -60.176  1.00  0.00     0.037 A 
HETATM   27  C   UNL     1     -43.126  60.020 -60.334  1.00  0.00     0.003 A 
HETATM   28  C   UNL     1     -42.188  59.006 -60.491  1.00  0.00     0.001 A 
HETATM   29  C   UNL     1     -42.595  57.671 -60.491  1.00  0.00     0.010 A 
BRANCH  25  30
HETATM   30  O   UNL     1     -46.199  57.969 -60.034  1.00  0.00    -0.355 OA
HETATM   31  C   UNL     1     -46.821  58.192 -58.775  1.00  0.00     0.210 C 
ENDBRANCH  25  30
ENDBRANCH  23  24
ENDBRANCH  20  23
ENDBRANCH   1  19
TORSDOF 7
ENDMDL
MODEL 4
REMARK VINA RESULT:      -8.1      1.674      2.517
REMARK  7 active torsions:
REMARK  status: ('A' for Active; 'I' for Inactive)
REMARK    1  A    between atoms: O_2  and  C_3 
REMARK    2  A    between atoms: C_4  and  C_5 
REMARK    3  A    between atoms: C_5  and  C_6 
REMARK       I    between atoms: C_6  and  N_7 
REMARK    4  A    between atoms: N_7  and  N_8 
REMARK       I    between atoms: N_8  and  C_9 
REMARK    5  A    between atoms: C_9  and  C_10 
REMARK    6  A    between atoms: C_15  and  O_16 
REMARK    7  A    between atoms: O_16  and  C_17 
ROOT
HETATM    1  N   UNL     1     -43.090  55.068 -56.183  1.00  0.00    -0.262 N 
HETATM    2  C   UNL     1     -43.366  55.153 -54.836  1.00  0.00     0.286 C 
HETATM    3  O   UNL     1     -44.274  55.862 -54.403  1.00  0.00    -0.264 OA
HETATM    4  H   UNL     1     -42.347  54.493 -56.573  1.00  0.00     0.190 HD
ENDROOT
BRANCH   2   5
HETATM    5  C   UNL     1     -42.517  54.365 -53.973  1.00  0.00     0.103 A 
HETATM    6  N   UNL     1     -42.526  54.539 -52.605  1.00  0.00    -0.351 N 
HETATM    7  H   UNL     1     -43.119  55.208 -52.131  1.00  0.00     0.166 HD
HETATM    8  C   UNL     1     -41.612  53.715 -51.993  1.00  0.00     0.045 A 
HETATM    9  C   UNL     1     -40.988  52.977 -52.997  1.00  0.00     0.026 A 
HETATM   10  C   UNL     1     -41.284  53.580 -50.640  1.00  0.00     0.030 A 
HETATM   11  C   UNL     1     -39.981  52.051 -52.647  1.00  0.00     0.087 A 
HETATM   12  C   UNL     1     -41.576  53.383 -54.232  1.00  0.00     0.052 A 
HETATM   13  C   UNL     1     -39.620  51.931 -51.295  1.00  0.00     0.038 A 
HETATM   14  C   UNL     1     -40.271  52.677 -50.311  1.00  0.00     0.005 A 
BRANCH  11  15
HETATM   15  O   UNL     1     -39.359  51.364 -53.657  1.00  0.00    -0.289 OA
BRANCH  15  16
HETATM   16  C   UNL     1     -39.932  50.098 -53.935  1.00  0.00     0.505 C 
HETATM   17  F   UNL     1     -39.478  49.706 -55.152  1.00  0.00    -0.184 F 
HETATM   18  F   UNL     1     -39.457  49.195 -53.040  1.00  0.00    -0.184 F 
ENDBRANCH  15  16
ENDBRANCH  11  15
ENDBRANCH   2   5
BRANCH   1  19
HETATM   19  N   UNL     1     -43.777  55.893 -57.077  1.00  0.00    -0.267 N 
HETATM   20  C   UNL     1     -43.146  57.032 -57.534  1.00  0.00     0.240 C 
HETATM   21  O   UNL     1     -41.983  57.302 -57.237  1.00  0.00    -0.272 OA
HETATM   22  H   UNL     1     -44.719  55.612 -57.346  1.00  0.00     0.190 HD
BRANCH  20  23
HETATM   23  C   UNL     1     -44.005  57.910 -58.416  1.00  0.00     0.146 C 
BRANCH  23  24
HETATM   24  C   UNL     1     -44.955  57.200 -59.361  1.00  0.00    -0.016 A 
HETATM   25  C   UNL     1     -46.334  57.493 -59.279  1.00  0.00     0.074 A 
HETATM   26  C   UNL     1     -47.239  56.841 -60.123  1.00  0.00     0.037 A 
HETATM   27  C   UNL     1     -46.786  55.904 -61.053  1.00  0.00     0.003 A 
HETATM   28  C   UNL     1     -45.429  55.612 -61.143  1.00  0.00     0.001 A 
HETATM   29  C   UNL     1     -44.519  56.255 -60.303  1.00  0.00     0.010 A 
BRANCH  25  30
HETATM   30  O   UNL     1     -46.690  58.417 -58.329  1.00  0.00    -0.355 OA
HETATM   31  C   UNL     1     -47.459  59.533 -58.760  1.00  0.00     0.210 C 
ENDBRANCH  25  30
ENDBRANCH  23  24
ENDBRANCH  20  23
ENDBRANCH   1  19
TORSDOF 7
ENDMDL
MODEL 5
REMARK VINA RESULT:      -8.1      1.391      2.099
REMARK  7 active torsions:
REMARK  status: ('A' for Active; 'I' for Inactive)
REMARK    1  A    between atoms: O_2  and  C_3 
REMARK    2  A    between atoms: C_4  and  C_5 
REMARK    3  A    between atoms: C_5  and  C_6 
REMARK       I    between atoms: C_6  and  N_7 
REMARK    4  A    between atoms: N_7  and  N_8 
REMARK       I    between atoms: N_8  and  C_9 
REMARK    5  A    between atoms: C_9  and  C_10 
REMARK    6  A    between atoms: C_15  and  O_16 
REMARK    7  A    between atoms: O_16  and  C_17 
ROOT
HETATM    1  N   UNL     1     -41.793  56.108 -55.964  1.00  0.00    -0.262 N 
HETATM    2  C   UNL     1     -42.317  54.858 -55.713  1.00  0.00     0.286 C 
HETATM    3  O   UNL     1     -43.194  54.368 -56.423  1.00  0.00    -0.264 OA
HETATM    4  H   UNL     1     -41.068  56.542 -55.397  1.00  0.00     0.190 HD
ENDROOT
BRANCH   2   5
HETATM    5  C   UNL     1     -41.774  54.172 -54.563  1.00  0.00     0.103 A 
HETATM    6  N   UNL     1     -42.089  54.565 -53.280  1.00  0.00    -0.351 N 
HETATM    7  H   UNL     1     -42.710  55.336 -53.068  1.00  0.00     0.166 HD
HETATM    8  C   UNL     1     -41.428  53.800 -52.349  1.00  0.00     0.045 A 
HETATM    9  C   UNL     1     -40.658  52.874 -53.051  1.00  0.00     0.026 A 
HETATM   10  C   UNL     1     -41.442  53.867 -50.952  1.00  0.00     0.030 A 
HETATM   11  C   UNL     1     -39.855  51.960 -52.334  1.00  0.00     0.087 A 
HETATM   12  C   UNL     1     -40.897  53.108 -54.438  1.00  0.00     0.052 A 
HETATM   13  C   UNL     1     -39.837  52.040 -50.932  1.00  0.00     0.038 A 
HETATM   14  C   UNL     1     -40.627  52.972 -50.257  1.00  0.00     0.005 A 
BRANCH  11  15
HETATM   15  O   UNL     1     -39.081  51.085 -53.049  1.00  0.00    -0.289 OA
BRANCH  15  16
HETATM   16  C   UNL     1     -39.746  49.886 -53.411  1.00  0.00     0.505 C 
HETATM   17  F   UNL     1     -39.429  49.621 -54.703  1.00  0.00    -0.184 F 
HETATM   18  F   UNL     1     -39.241  48.865 -52.674  1.00  0.00    -0.184 F 
ENDBRANCH  15  16
ENDBRANCH  11  15
ENDBRANCH   2   5
BRANCH   1  19
HETATM   19  N   UNL     1     -42.348  56.892 -56.978  1.00  0.00    -0.267 N 
HETATM   20  C   UNL     1     -43.450  57.667 -56.677  1.00  0.00     0.240 C 
HETATM   21  O   UNL     1     -43.909  57.740 -55.537  1.00  0.00    -0.272 OA
HETATM   22  H   UNL     1     -41.911  56.850 -57.897  1.00  0.00     0.190 HD
BRANCH  20  23
HETATM   23  C   UNL     1     -44.038  58.402 -57.860  1.00  0.00     0.146 C 
BRANCH  23  24
HETATM   24  C   UNL     1     -44.832  57.571 -58.849  1.00  0.00    -0.016 A 
HETATM   25  C   UNL     1     -44.132  56.831 -59.827  1.00  0.00     0.074 A 
HETATM   26  C   UNL     1     -44.836  56.070 -60.766  1.00  0.00     0.037 A 
HETATM   27  C   UNL     1     -46.231  56.033 -60.739  1.00  0.00     0.003 A 
HETATM   28  C   UNL     1     -46.928  56.755 -59.777  1.00  0.00     0.001 A 
HETATM   29  C   UNL     1     -46.235  57.520 -58.838  1.00  0.00     0.010 A 
BRANCH  25  30
HETATM   30  O   UNL     1     -42.764  56.936 -59.785  1.00  0.00    -0.355 OA
HETATM   31  C   UNL     1     -42.165  57.967 -60.559  1.00  0.00     0.210 C 
ENDBRANCH  25  30
ENDBRANCH  23  24
ENDBRANCH  20  23
ENDBRANCH   1  19
TORSDOF 7
ENDMDL
MODEL 6
REMARK VINA RESULT:      -7.9      2.703      3.682
REMARK  7 active torsions:
REMARK  status: ('A' for Active; 'I' for Inactive)
REMARK    1  A    between atoms: O_2  and  C_3 
REMARK    2  A    between atoms: C_4  and  C_5 
REMARK    3  A    between atoms: C_5  and  C_6 
REMARK       I    between atoms: C_6  and  N_7 
REMARK    4  A    between atoms: N_7  and  N_8 
REMARK       I    between atoms: N_8  and  C_9 
REMARK    5  A    between atoms: C_9  and  C_10 
REMARK    6  A    between atoms: C_15  and  O_16 
REMARK    7  A    between atoms: O_16  and  C_17 
ROOT
HETATM    1  N   UNL     1     -41.569  56.052 -55.830  1.00  0.00    -0.262 N 
HETATM    2  C   UNL     1     -42.177  54.856 -55.517  1.00  0.00     0.286 C 
HETATM    3  O   UNL     1     -43.162  54.448 -56.132  1.00  0.00    -0.264 OA
HETATM    4  H   UNL     1     -40.756  56.419 -55.342  1.00  0.00     0.190 HD
ENDROOT
BRANCH   2   5
HETATM    5  C   UNL     1     -41.587  54.124 -54.420  1.00  0.00     0.103 A 
HETATM    6  N   UNL     1     -40.850  52.979 -54.637  1.00  0.00    -0.351 N 
HETATM    7  H   UNL     1     -40.674  52.593 -55.556  1.00  0.00     0.166 HD
HETATM    8  C   UNL     1     -40.424  52.429 -53.451  1.00  0.00     0.045 A 
HETATM    9  C   UNL     1     -40.899  53.248 -52.427  1.00  0.00     0.026 A 
HETATM   10  C   UNL     1     -39.675  51.274 -53.211  1.00  0.00     0.030 A 
HETATM   11  C   UNL     1     -40.618  52.905 -51.086  1.00  0.00     0.087 A 
HETATM   12  C   UNL     1     -41.613  54.314 -53.050  1.00  0.00     0.052 A 
HETATM   13  C   UNL     1     -39.894  51.729 -50.831  1.00  0.00     0.038 A 
HETATM   14  C   UNL     1     -39.424  50.935 -51.879  1.00  0.00     0.005 A 
BRANCH  11  15
HETATM   15  O   UNL     1     -41.126  53.707 -50.097  1.00  0.00    -0.289 OA
BRANCH  15  16
HETATM   16  C   UNL     1     -40.223  53.957 -49.033  1.00  0.00     0.505 C 
HETATM   17  F   UNL     1     -39.158  54.618 -49.553  1.00  0.00    -0.184 F 
HETATM   18  F   UNL     1     -40.809  54.806 -48.152  1.00  0.00    -0.184 F 
ENDBRANCH  15  16
ENDBRANCH  11  15
ENDBRANCH   2   5
BRANCH   1  19
HETATM   19  N   UNL     1     -42.150  56.885 -56.791  1.00  0.00    -0.267 N 
HETATM   20  C   UNL     1     -42.602  58.127 -56.395  1.00  0.00     0.240 C 
HETATM   21  O   UNL     1     -42.447  58.546 -55.248  1.00  0.00    -0.272 OA
HETATM   22  H   UNL     1     -42.214  56.528 -57.744  1.00  0.00     0.190 HD
BRANCH  20  23
HETATM   23  C   UNL     1     -43.302  58.911 -57.481  1.00  0.00     0.146 C 
BRANCH  23  24
HETATM   24  C   UNL     1     -44.588  58.321 -58.024  1.00  0.00    -0.016 A 
HETATM   25  C   UNL     1     -44.531  57.535 -59.195  1.00  0.00     0.074 A 
HETATM   26  C   UNL     1     -45.703  56.992 -59.732  1.00  0.00     0.037 A 
HETATM   27  C   UNL     1     -46.932  57.219 -59.111  1.00  0.00     0.003 A 
HETATM   28  C   UNL     1     -46.998  57.988 -57.955  1.00  0.00     0.001 A 
HETATM   29  C   UNL     1     -45.835  58.537 -57.414  1.00  0.00     0.010 A 
BRANCH  25  30
HETATM   30  O   UNL     1     -43.283  57.375 -59.743  1.00  0.00    -0.355 OA
HETATM   31  C   UNL     1     -42.834  56.045 -59.967  1.00  0.00     0.210 C 
ENDBRANCH  25  30
ENDBRANCH  23  24
ENDBRANCH  20  23
ENDBRANCH   1  19
TORSDOF 7
ENDMDL
MODEL 7
REMARK VINA RESULT:      -7.8      1.981      2.723
REMARK  7 active torsions:
REMARK  status: ('A' for Active; 'I' for Inactive)
REMARK    1  A    between atoms: O_2  and  C_3 
REMARK    2  A    between atoms: C_4  and  C_5 
REMARK    3  A    between atoms: C_5  and  C_6 
REMARK       I    between atoms: C_6  and  N_7 
REMARK    4  A    between atoms: N_7  and  N_8 
REMARK       I    between atoms: N_8  and  C_9 
REMARK    5  A    between atoms: C_9  and  C_10 
REMARK    6  A    between atoms: C_15  and  O_16 
REMARK    7  A    between atoms: O_16  and  C_17 
ROOT
HETATM    1  N   UNL     1     -43.251  55.461 -56.067  1.00  0.00    -0.262 N 
HETATM    2  C   UNL     1     -43.220  55.631 -54.700  1.00  0.00     0.286 C 
HETATM    3  O   UNL     1     -43.826  56.547 -54.145  1.00  0.00    -0.264 OA
HETATM    4  H   UNL     1     -42.760  54.717 -56.556  1.00  0.00     0.190 HD
ENDROOT
BRANCH   2   5
HETATM    5  C   UNL     1     -42.424  54.672 -53.969  1.00  0.00     0.103 A 
HETATM    6  N   UNL     1     -42.406  54.658 -52.591  1.00  0.00    -0.351 N 
HETATM    7  H   UNL     1     -42.941  55.298 -52.018  1.00  0.00     0.166 HD
HETATM    8  C   UNL     1     -41.551  53.692 -52.114  1.00  0.00     0.045 A 
HETATM    9  C   UNL     1     -40.996  53.054 -53.222  1.00  0.00     0.026 A 
HETATM   10  C   UNL     1     -41.220  53.350 -50.799  1.00  0.00     0.030 A 
HETATM   11  C   UNL     1     -40.058  52.017 -53.021  1.00  0.00     0.087 A 
HETATM   12  C   UNL     1     -41.563  53.668 -54.378  1.00  0.00     0.052 A 
HETATM   13  C   UNL     1     -39.694  51.687 -51.706  1.00  0.00     0.038 A 
HETATM   14  C   UNL     1     -40.276  52.338 -50.616  1.00  0.00     0.005 A 
BRANCH  11  15
HETATM   15  O   UNL     1     -39.501  51.430 -54.127  1.00  0.00    -0.289 OA
BRANCH  15  16
HETATM   16  C   UNL     1     -40.017  50.144 -54.423  1.00  0.00     0.505 C 
HETATM   17  F   UNL     1     -39.848  49.376 -53.317  1.00  0.00    -0.184 F 
HETATM   18  F   UNL     1     -41.356  50.243 -54.621  1.00  0.00    -0.184 F 
ENDBRANCH  15  16
ENDBRANCH  11  15
ENDBRANCH   2   5
BRANCH   1  19
HETATM   19  N   UNL     1     -43.890  56.417 -56.861  1.00  0.00    -0.267 N 
HETATM   20  C   UNL     1     -43.572  56.472 -58.203  1.00  0.00     0.240 C 
HETATM   21  O   UNL     1     -42.802  55.668 -58.728  1.00  0.00    -0.272 OA
HETATM   22  H   UNL     1     -44.563  57.032 -56.406  1.00  0.00     0.190 HD
BRANCH  20  23
HETATM   23  C   UNL     1     -44.239  57.601 -58.956  1.00  0.00     0.146 C 
BRANCH  23  24
HETATM   24  C   UNL     1     -43.351  58.753 -59.380  1.00  0.00    -0.016 A 
HETATM   25  C   UNL     1     -43.065  59.768 -58.441  1.00  0.00     0.074 A 
HETATM   26  C   UNL     1     -42.264  60.855 -58.806  1.00  0.00     0.037 A 
HETATM   27  C   UNL     1     -41.740  60.940 -60.096  1.00  0.00     0.003 A 
HETATM   28  C   UNL     1     -42.013  59.944 -61.027  1.00  0.00     0.001 A 
HETATM   29  C   UNL     1     -42.813  58.857 -60.673  1.00  0.00     0.010 A 
BRANCH  25  30
HETATM   30  O   UNL     1     -43.633  59.607 -57.201  1.00  0.00    -0.355 OA
HETATM   31  C   UNL     1     -44.571  60.589 -56.781  1.00  0.00     0.210 C 
ENDBRANCH  25  30
ENDBRANCH  23  24
ENDBRANCH  20  23
ENDBRANCH   1  19
TORSDOF 7
ENDMDL
MODEL 8
REMARK VINA RESULT:      -7.7      1.955      3.058
REMARK  7 active torsions:
REMARK  status: ('A' for Active; 'I' for Inactive)
REMARK    1  A    between atoms: O_2  and  C_3 
REMARK    2  A    between atoms: C_4  and  C_5 
REMARK    3  A    between atoms: C_5  and  C_6 
REMARK       I    between atoms: C_6  and  N_7 
REMARK    4  A    between atoms: N_7  and  N_8 
REMARK       I    between atoms: N_8  and  C_9 
REMARK    5  A    between atoms: C_9  and  C_10 
REMARK    6  A    between atoms: C_15  and  O_16 
REMARK    7  A    between atoms: O_16  and  C_17 
ROOT
HETATM    1  N   UNL     1     -42.022  56.295 -56.719  1.00  0.00    -0.262 N 
HETATM    2  C   UNL     1     -42.538  55.286 -55.936  1.00  0.00     0.286 C 
HETATM    3  O   UNL     1     -43.238  54.390 -56.407  1.00  0.00    -0.264 OA
HETATM    4  H   UNL     1     -41.442  57.049 -56.361  1.00  0.00     0.190 HD
ENDROOT
BRANCH   2   5
HETATM    5  C   UNL     1     -42.209  55.356 -54.530  1.00  0.00     0.103 A 
HETATM    6  N   UNL     1     -41.953  56.561 -53.914  1.00  0.00    -0.351 N 
HETATM    7  H   UNL     1     -41.985  57.453 -54.393  1.00  0.00     0.166 HD
HETATM    8  C   UNL     1     -41.622  56.384 -52.591  1.00  0.00     0.045 A 
HETATM    9  C   UNL     1     -41.668  55.014 -52.339  1.00  0.00     0.026 A 
HETATM   10  C   UNL     1     -41.275  57.322 -51.615  1.00  0.00     0.030 A 
HETATM   11  C   UNL     1     -41.352  54.541 -51.045  1.00  0.00     0.087 A 
HETATM   12  C   UNL     1     -42.052  54.382 -53.559  1.00  0.00     0.052 A 
HETATM   13  C   UNL     1     -40.971  55.472 -50.065  1.00  0.00     0.038 A 
HETATM   14  C   UNL     1     -40.945  56.839 -50.347  1.00  0.00     0.005 A 
BRANCH  11  15
HETATM   15  O   UNL     1     -41.370  53.187 -50.833  1.00  0.00    -0.289 OA
BRANCH  15  16
HETATM   16  C   UNL     1     -40.086  52.588 -50.807  1.00  0.00     0.505 C 
HETATM   17  F   UNL     1     -40.204  51.404 -50.155  1.00  0.00    -0.184 F 
HETATM   18  F   UNL     1     -39.715  52.290 -52.079  1.00  0.00    -0.184 F 
ENDBRANCH  15  16
ENDBRANCH  11  15
ENDBRANCH   2   5
BRANCH   1  19
HETATM   19  N   UNL     1     -42.395  56.376 -58.064  1.00  0.00    -0.267 N 
HETATM   20  C   UNL     1     -42.336  57.607 -58.686  1.00  0.00     0.240 C 
HETATM   21  O   UNL     1     -41.903  58.609 -58.119  1.00  0.00    -0.272 OA
HETATM   22  H   UNL     1     -42.697  55.517 -58.520  1.00  0.00     0.190 HD
BRANCH  20  23
HETATM   23  C   UNL     1     -42.853  57.612 -60.107  1.00  0.00     0.146 C 
BRANCH  23  24
HETATM   24  C   UNL     1     -44.358  57.597 -60.283  1.00  0.00    -0.016 A 
HETATM   25  C   UNL     1     -45.004  56.358 -60.488  1.00  0.00     0.074 A 
HETATM   26  C   UNL     1     -46.389  56.313 -60.673  1.00  0.00     0.037 A 
HETATM   27  C   UNL     1     -47.141  57.488 -60.650  1.00  0.00     0.003 A 
HETATM   28  C   UNL     1     -46.515  58.713 -60.445  1.00  0.00     0.001 A 
HETATM   29  C   UNL     1     -45.132  58.768 -60.262  1.00  0.00     0.010 A 
BRANCH  25  30
HETATM   30  O   UNL     1     -44.184  55.258 -60.507  1.00  0.00    -0.355 OA
HETATM   31  C   UNL     1     -44.576  54.139 -59.722  1.00  0.00     0.210 C 
ENDBRANCH  25  30
ENDBRANCH  23  24
ENDBRANCH  20  23
ENDBRANCH   1  19
TORSDOF 7
ENDMDL
MODEL 9
REMARK VINA RESULT:      -7.7      6.756      9.130
REMARK  7 active torsions:
REMARK  status: ('A' for Active; 'I' for Inactive)
REMARK    1  A    between atoms: O_2  and  C_3 
REMARK    2  A    between atoms: C_4  and  C_5 
REMARK    3  A    between atoms: C_5  and  C_6 
REMARK       I    between atoms: C_6  and  N_7 
REMARK    4  A    between atoms: N_7  and  N_8 
REMARK       I    between atoms: N_8  and  C_9 
REMARK    5  A    between atoms: C_9  and  C_10 
REMARK    6  A    between atoms: C_15  and  O_16 
REMARK    7  A    between atoms: O_16  and  C_17 
ROOT
HETATM    1  N   UNL     1     -43.413  58.624 -50.931  1.00  0.00    -0.262 N 
HETATM    2  C   UNL     1     -42.227  58.609 -51.633  1.00  0.00     0.286 C 
HETATM    3  O   UNL     1     -41.592  59.639 -51.857  1.00  0.00    -0.264 OA
HETATM    4  H   UNL     1     -43.962  57.791 -50.731  1.00  0.00     0.190 HD
ENDROOT
BRANCH   2   5
HETATM    5  C   UNL     1     -41.788  57.311 -52.091  1.00  0.00     0.103 A 
HETATM    6  N   UNL     1     -41.331  57.122 -53.378  1.00  0.00    -0.351 N 
HETATM    7  H   UNL     1     -41.269  57.864 -54.064  1.00  0.00     0.166 HD
HETATM    8  C   UNL     1     -41.009  55.805 -53.603  1.00  0.00     0.045 A 
HETATM    9  C   UNL     1     -41.263  55.113 -52.420  1.00  0.00     0.026 A 
HETATM   10  C   UNL     1     -40.531  55.179 -54.758  1.00  0.00     0.030 A 
HETATM   11  C   UNL     1     -41.031  53.720 -52.373  1.00  0.00     0.087 A 
HETATM   12  C   UNL     1     -41.736  56.072 -51.475  1.00  0.00     0.052 A 
HETATM   13  C   UNL     1     -40.582  53.075 -53.537  1.00  0.00     0.038 A 
HETATM   14  C   UNL     1     -40.328  53.798 -54.704  1.00  0.00     0.005 A 
BRANCH  11  15
HETATM   15  O   UNL     1     -41.323  53.059 -51.209  1.00  0.00    -0.289 OA
BRANCH  15  16
HETATM   16  C   UNL     1     -40.183  52.598 -50.503  1.00  0.00     0.505 C 
HETATM   17  F   UNL     1     -40.051  53.372 -49.396  1.00  0.00    -0.184 F 
HETATM   18  F   UNL     1     -40.418  51.336 -50.064  1.00  0.00    -0.184 F 
ENDBRANCH  15  16
ENDBRANCH  11  15
ENDBRANCH   2   5
BRANCH   1  19
HETATM   19  N   UNL     1     -43.976  59.849 -50.562  1.00  0.00    -0.267 N 
HETATM   20  C   UNL     1     -45.299  59.871 -50.172  1.00  0.00     0.240 C 
HETATM   21  O   UNL     1     -45.971  58.844 -50.073  1.00  0.00    -0.272 OA
HETATM   22  H   UNL     1     -43.376  60.671 -50.603  1.00  0.00     0.190 HD
BRANCH  20  23
HETATM   23  C   UNL     1     -45.843  61.253 -49.889  1.00  0.00     0.146 C 
BRANCH  23  24
HETATM   24  C   UNL     1     -45.863  61.689 -48.437  1.00  0.00    -0.016 A 
HETATM   25  C   UNL     1     -46.692  62.771 -48.068  1.00  0.00     0.074 A 
HETATM   26  C   UNL     1     -46.719  63.211 -46.740  1.00  0.00     0.037 A 
HETATM   27  C   UNL     1     -45.934  62.582 -45.774  1.00  0.00     0.003 A 
HETATM   28  C   UNL     1     -45.117  61.513 -46.128  1.00  0.00     0.001 A 
HETATM   29  C   UNL     1     -45.081  61.069 -47.450  1.00  0.00     0.010 A 
BRANCH  25  30
HETATM   30  O   UNL     1     -47.420  63.336 -49.085  1.00  0.00    -0.355 OA
HETATM   31  C   UNL     1     -48.705  63.849 -48.761  1.00  0.00     0.210 C 
ENDBRANCH  25  30
ENDBRANCH  23  24
ENDBRANCH  20  23
ENDBRANCH   1  19
TORSDOF 7
ENDMDL
MODEL 10
REMARK VINA RESULT:      -7.5      2.666      3.767
REMARK  7 active torsions:
REMARK  status: ('A' for Active; 'I' for Inactive)
REMARK    1  A    between atoms: O_2  and  C_3 
REMARK    2  A    between atoms: C_4  and  C_5 
REMARK    3  A    between atoms: C_5  and  C_6 
REMARK       I    between atoms: C_6  and  N_7 
REMARK    4  A    between atoms: N_7  and  N_8 
REMARK       I    between atoms: N_8  and  C_9 
REMARK    5  A    between atoms: C_9  and  C_10 
REMARK    6  A    between atoms: C_15  and  O_16 
REMARK    7  A    between atoms: O_16  and  C_17 
ROOT
HETATM    1  N   UNL     1     -41.926  57.195 -54.412  1.00  0.00    -0.262 N 
HETATM    2  C   UNL     1     -41.769  55.967 -55.017  1.00  0.00     0.286 C 
HETATM    3  O   UNL     1     -42.000  55.798 -56.214  1.00  0.00    -0.264 OA
HETATM    4  H   UNL     1     -41.745  57.368 -53.426  1.00  0.00     0.190 HD
ENDROOT
BRANCH   2   5
HETATM    5  C   UNL     1     -41.326  54.897 -54.153  1.00  0.00     0.103 A 
HETATM    6  N   UNL     1     -41.572  54.923 -52.797  1.00  0.00    -0.351 N 
HETATM    7  H   UNL     1     -42.073  55.670 -52.333  1.00  0.00     0.166 HD
HETATM    8  C   UNL     1     -41.025  53.828 -52.171  1.00  0.00     0.045 A 
HETATM    9  C   UNL     1     -40.404  53.062 -53.156  1.00  0.00     0.026 A 
HETATM   10  C   UNL     1     -41.022  53.470 -50.819  1.00  0.00     0.030 A 
HETATM   11  C   UNL     1     -39.739  51.872 -52.785  1.00  0.00     0.087 A 
HETATM   12  C   UNL     1     -40.613  53.735 -54.395  1.00  0.00     0.052 A 
HETATM   13  C   UNL     1     -39.701  51.520 -51.426  1.00  0.00     0.038 A 
HETATM   14  C   UNL     1     -40.342  52.303 -50.464  1.00  0.00     0.005 A 
BRANCH  11  15
HETATM   15  O   UNL     1     -39.105  51.156 -53.767  1.00  0.00    -0.289 OA
BRANCH  15  16
HETATM   16  C   UNL     1     -39.775  49.963 -54.138  1.00  0.00     0.505 C 
HETATM   17  F   UNL     1     -39.887  49.198 -53.024  1.00  0.00    -0.184 F 
HETATM   18  F   UNL     1     -41.041  50.272 -54.520  1.00  0.00    -0.184 F 
ENDBRANCH  15  16
ENDBRANCH  11  15
ENDBRANCH   2   5
BRANCH   1  19
HETATM   19  N   UNL     1     -42.472  58.254 -55.143  1.00  0.00    -0.267 N 
HETATM   20  C   UNL     1     -41.950  59.517 -54.955  1.00  0.00     0.240 C 
HETATM   21  O   UNL     1     -40.983  59.726 -54.223  1.00  0.00    -0.272 OA
HETATM   22  H   UNL     1     -43.236  58.038 -55.782  1.00  0.00     0.190 HD
BRANCH  20  23
HETATM   23  C   UNL     1     -42.671  60.609 -55.714  1.00  0.00     0.146 C 
BRANCH  23  24
HETATM   24  C   UNL     1     -43.055  60.300 -57.147  1.00  0.00    -0.016 A 
HETATM   25  C   UNL     1     -42.108  60.536 -58.168  1.00  0.00     0.074 A 
HETATM   26  C   UNL     1     -42.439  60.279 -59.502  1.00  0.00     0.037 A 
HETATM   27  C   UNL     1     -43.701  59.784 -59.832  1.00  0.00     0.003 A 
HETATM   28  C   UNL     1     -44.638  59.544 -58.833  1.00  0.00     0.001 A 
HETATM   29  C   UNL     1     -44.319  59.800 -57.499  1.00  0.00     0.010 A 
BRANCH  25  30
HETATM   30  O   UNL     1     -40.899  61.035 -57.752  1.00  0.00    -0.355 OA
HETATM   31  C   UNL     1     -40.377  62.153 -58.457  1.00  0.00     0.210 C 
ENDBRANCH  25  30
ENDBRANCH  23  24
ENDBRANCH  20  23
ENDBRANCH   1  19
TORSDOF 7
ENDMDL
