MODEL 1
REMARK VINA RESULT:      -7.9      0.000      0.000
REMARK  7 active torsions:
REMARK  status: ('A' for Active; 'I' for Inactive)
REMARK    1  A    between atoms: C_4  and  C_5 
REMARK    2  A    between atoms: C_9  and  C_10 
REMARK    3  A    between atoms: C_10  and  C_11 
REMARK    4  A    between atoms: C_11  and  C_12 
REMARK    5  A    between atoms: C_12  and  O_13 
REMARK    6  A    between atoms: C_18  and  C_19 
REMARK       I    between atoms: C_19  and  N_20 
REMARK    7  A    between atoms: N_20  and  C_21 
ROOT
HETATM    1  C   UNL     1     -43.767  56.520 -54.650  1.00  0.00     0.202 A 
HETATM    2  N   UNL     1     -43.756  57.067 -56.012  1.00  0.00    -0.083 N 
HETATM    3  C   UNL     1     -42.895  56.662 -56.989  1.00  0.00     0.726 A 
HETATM    4  N   UNL     1     -43.202  57.252 -58.116  1.00  0.00    -0.046 NA
HETATM    5  C   UNL     1     -44.317  57.984 -57.785  1.00  0.00     0.166 A 
HETATM    6  N   UNL     1     -44.721  57.872 -56.511  1.00  0.00    -0.140 NA
HETATM    7  N   UNL     1     -41.963  55.740 -56.698  1.00  0.00    -0.192 N 
HETATM    8  C   UNL     1     -41.884  55.083 -55.474  1.00  0.00     0.037 A 
HETATM    9  C   UNL     1     -40.842  53.991 -55.401  1.00  0.00     0.070 C 
HETATM   10  C   UNL     1     -42.730  55.413 -54.458  1.00  0.00     0.062 A 
HETATM   11  H   UNL     1     -41.347  55.424 -57.442  1.00  0.00     0.184 HD
ENDROOT
BRANCH  10  12
HETATM   12  C   UNL     1     -42.611  54.745 -53.113  1.00  0.00     0.256 C 
HETATM   13  N   UNL     1     -41.454  55.025 -52.413  1.00  0.00    -0.323 N 
HETATM   14  H   UNL     1     -40.738  55.567 -52.868  1.00  0.00     0.169 HD
HETATM   15  O   UNL     1     -43.490  53.973 -52.743  1.00  0.00    -0.267 OA
BRANCH  13  16
HETATM   16  C   UNL     1     -41.097  54.568 -51.118  1.00  0.00     0.041 A 
HETATM   17  C   UNL     1     -41.185  55.468 -50.030  1.00  0.00    -0.035 A 
HETATM   18  C   UNL     1     -41.588  56.908 -50.199  1.00  0.00     0.050 C 
HETATM   19  C   UNL     1     -40.851  55.024 -48.737  1.00  0.00     0.009 A 
HETATM   20  C   UNL     1     -40.444  53.711 -48.514  1.00  0.00     0.001 A 
HETATM   21  C   UNL     1     -40.362  52.826 -49.582  1.00  0.00     0.002 A 
HETATM   22  C   UNL     1     -40.686  53.252 -50.872  1.00  0.00     0.030 A 
ENDBRANCH  13  16
ENDBRANCH  10  12
BRANCH   1  23
HETATM   23  C   UNL     1     -43.683  57.656 -53.633  1.00  0.00    -0.028 A 
HETATM   24  C   UNL     1     -44.652  57.837 -52.630  1.00  0.00     0.016 A 
HETATM   25  C   UNL     1     -44.565  58.907 -51.728  1.00  0.00    -0.061 A 
HETATM   26  C   UNL     1     -45.618  59.119 -50.680  1.00  0.00     0.048 C 
HETATM   27  C   UNL     1     -43.482  59.788 -51.813  1.00  0.00     0.007 A 
HETATM   28  C   UNL     1     -42.497  59.604 -52.780  1.00  0.00     0.001 A 
HETATM   29  C   UNL     1     -42.596  58.546 -53.682  1.00  0.00     0.010 A 
ENDBRANCH   1  23
BRANCH   5  30
HETATM   30  C   UNL     1     -45.051  58.801 -58.785  1.00  0.00     0.085 C 
BRANCH  30  31
HETATM   31  C   UNL     1     -45.534  57.993 -59.988  1.00  0.00     0.034 C 
BRANCH  31  32
HETATM   32  C   UNL     1     -46.490  56.867 -59.612  1.00  0.00     0.164 C 
BRANCH  32  33
HETATM   33  O   UNL     1     -45.776  55.638 -59.523  1.00  0.00    -0.401 OA
HETATM   34  H   UNL     1     -46.432  54.923 -59.451  1.00  0.00     0.209 HD
ENDBRANCH  32  33
ENDBRANCH  31  32
ENDBRANCH  30  31
ENDBRANCH   5  30
TORSDOF 7
ENDMDL
MODEL 2
REMARK VINA RESULT:      -7.7      3.457      5.724
REMARK  7 active torsions:
REMARK  status: ('A' for Active; 'I' for Inactive)
REMARK    1  A    between atoms: C_4  and  C_5 
REMARK    2  A    between atoms: C_9  and  C_10 
REMARK    3  A    between atoms: C_10  and  C_11 
REMARK    4  A    between atoms: C_11  and  C_12 
REMARK    5  A    between atoms: C_12  and  O_13 
REMARK    6  A    between atoms: C_18  and  C_19 
REMARK       I    between atoms: C_19  and  N_20 
REMARK    7  A    between atoms: N_20  and  C_21 
ROOT
HETATM    1  C   UNL     1     -42.190  57.894 -58.145  1.00  0.00     0.202 A 
HETATM    2  N   UNL     1     -42.141  59.225 -58.763  1.00  0.00    -0.083 N 
HETATM    3  C   UNL     1     -42.195  60.393 -58.062  1.00  0.00     0.726 A 
HETATM    4  N   UNL     1     -42.019  61.402 -58.876  1.00  0.00    -0.046 NA
HETATM    5  C   UNL     1     -41.802  60.786 -60.086  1.00  0.00     0.166 A 
HETATM    6  N   UNL     1     -41.827  59.445 -60.060  1.00  0.00    -0.140 NA
HETATM    7  N   UNL     1     -42.348  60.349 -56.728  1.00  0.00    -0.192 N 
HETATM    8  C   UNL     1     -42.349  59.169 -55.991  1.00  0.00     0.037 A 
HETATM    9  C   UNL     1     -42.405  59.352 -54.492  1.00  0.00     0.070 C 
HETATM   10  C   UNL     1     -42.268  57.963 -56.620  1.00  0.00     0.062 A 
HETATM   11  H   UNL     1     -42.356  61.226 -56.214  1.00  0.00     0.184 HD
ENDROOT
BRANCH  10  12
HETATM   12  C   UNL     1     -42.326  56.681 -55.830  1.00  0.00     0.256 C 
HETATM   13  N   UNL     1     -41.105  56.186 -55.414  1.00  0.00    -0.323 N 
HETATM   14  H   UNL     1     -40.269  56.645 -55.731  1.00  0.00     0.169 HD
HETATM   15  O   UNL     1     -43.408  56.134 -55.648  1.00  0.00    -0.267 OA
BRANCH  13  16
HETATM   16  C   UNL     1     -40.867  55.027 -54.631  1.00  0.00     0.041 A 
HETATM   17  C   UNL     1     -41.050  55.102 -53.229  1.00  0.00    -0.035 A 
HETATM   18  C   UNL     1     -41.433  56.378 -52.529  1.00  0.00     0.050 C 
HETATM   19  C   UNL     1     -40.834  53.957 -52.441  1.00  0.00     0.009 A 
HETATM   20  C   UNL     1     -40.451  52.750 -53.022  1.00  0.00     0.001 A 
HETATM   21  C   UNL     1     -40.276  52.675 -54.398  1.00  0.00     0.002 A 
HETATM   22  C   UNL     1     -40.482  53.804 -55.194  1.00  0.00     0.030 A 
ENDBRANCH  13  16
ENDBRANCH  10  12
BRANCH   1  23
HETATM   23  C   UNL     1     -43.284  57.056 -58.803  1.00  0.00    -0.028 A 
HETATM   24  C   UNL     1     -44.621  57.486 -58.868  1.00  0.00     0.016 A 
HETATM   25  C   UNL     1     -45.610  56.682 -59.452  1.00  0.00    -0.061 A 
HETATM   26  C   UNL     1     -47.042  57.127 -59.489  1.00  0.00     0.048 C 
HETATM   27  C   UNL     1     -45.251  55.447 -60.002  1.00  0.00     0.007 A 
HETATM   28  C   UNL     1     -43.926  55.020 -59.975  1.00  0.00     0.001 A 
HETATM   29  C   UNL     1     -42.949  55.819 -59.382  1.00  0.00     0.010 A 
ENDBRANCH   1  23
BRANCH   5  30
HETATM   30  C   UNL     1     -41.508  61.553 -61.323  1.00  0.00     0.085 C 
BRANCH  30  31
HETATM   31  C   UNL     1     -40.845  62.902 -61.054  1.00  0.00     0.034 C 
BRANCH  31  32
HETATM   32  C   UNL     1     -39.509  63.068 -61.768  1.00  0.00     0.164 C 
BRANCH  32  33
HETATM   33  O   UNL     1     -39.579  62.481 -63.064  1.00  0.00    -0.401 OA
HETATM   34  H   UNL     1     -39.678  63.203 -63.708  1.00  0.00     0.209 HD
ENDBRANCH  32  33
ENDBRANCH  31  32
ENDBRANCH  30  31
ENDBRANCH   5  30
TORSDOF 7
ENDMDL
MODEL 3
REMARK VINA RESULT:      -7.6     16.318     18.438
REMARK  7 active torsions:
REMARK  status: ('A' for Active; 'I' for Inactive)
REMARK    1  A    between atoms: C_4  and  C_5 
REMARK    2  A    between atoms: C_9  and  C_10 
REMARK    3  A    between atoms: C_10  and  C_11 
REMARK    4  A    between atoms: C_11  and  C_12 
REMARK    5  A    between atoms: C_12  and  O_13 
REMARK    6  A    between atoms: C_18  and  C_19 
REMARK       I    between atoms: C_19  and  N_20 
REMARK    7  A    between atoms: N_20  and  C_21 
ROOT
HETATM    1  C   UNL     1     -35.221  41.367 -55.128  1.00  0.00     0.202 A 
HETATM    2  N   UNL     1     -36.149  41.399 -56.266  1.00  0.00    -0.083 N 
HETATM    3  C   UNL     1     -37.506  41.354 -56.143  1.00  0.00     0.726 A 
HETATM    4  N   UNL     1     -38.058  41.509 -57.319  1.00  0.00    -0.046 NA
HETATM    5  C   UNL     1     -36.975  41.705 -58.143  1.00  0.00     0.166 A 
HETATM    6  N   UNL     1     -35.780  41.686 -57.534  1.00  0.00    -0.140 NA
HETATM    7  N   UNL     1     -38.049  41.227 -54.921  1.00  0.00    -0.192 N 
HETATM    8  C   UNL     1     -37.309  41.246 -53.743  1.00  0.00     0.037 A 
HETATM    9  C   UNL     1     -38.128  41.219 -52.473  1.00  0.00     0.070 C 
HETATM   10  C   UNL     1     -35.949  41.319 -53.784  1.00  0.00     0.062 A 
HETATM   11  H   UNL     1     -39.062  41.225 -54.840  1.00  0.00     0.184 HD
ENDROOT
BRANCH  10  12
HETATM   12  C   UNL     1     -35.140  41.282 -52.514  1.00  0.00     0.256 C 
HETATM   13  N   UNL     1     -34.723  40.027 -52.114  1.00  0.00    -0.323 N 
HETATM   14  H   UNL     1     -35.053  39.226 -52.627  1.00  0.00     0.169 HD
HETATM   15  O   UNL     1     -34.943  42.321 -51.893  1.00  0.00    -0.267 OA
BRANCH  13  16
HETATM   16  C   UNL     1     -33.924  39.702 -50.988  1.00  0.00     0.041 A 
HETATM   17  C   UNL     1     -32.542  40.001 -51.024  1.00  0.00    -0.035 A 
HETATM   18  C   UNL     1     -31.874  40.600 -52.232  1.00  0.00     0.050 C 
HETATM   19  C   UNL     1     -31.739  39.701 -49.907  1.00  0.00     0.009 A 
HETATM   20  C   UNL     1     -32.289  39.121 -48.767  1.00  0.00     0.001 A 
HETATM   21  C   UNL     1     -33.646  38.831 -48.729  1.00  0.00     0.002 A 
HETATM   22  C   UNL     1     -34.457  39.119 -49.831  1.00  0.00     0.030 A 
ENDBRANCH  13  16
ENDBRANCH  10  12
BRANCH   1  23
HETATM   23  C   UNL     1     -34.185  40.264 -55.333  1.00  0.00    -0.028 A 
HETATM   24  C   UNL     1     -32.866  40.540 -55.733  1.00  0.00     0.016 A 
HETATM   25  C   UNL     1     -31.944  39.505 -55.942  1.00  0.00    -0.061 A 
HETATM   26  C   UNL     1     -30.547  39.799 -56.403  1.00  0.00     0.048 C 
HETATM   27  C   UNL     1     -32.340  38.181 -55.722  1.00  0.00     0.007 A 
HETATM   28  C   UNL     1     -33.633  37.893 -55.294  1.00  0.00     0.001 A 
HETATM   29  C   UNL     1     -34.549  38.926 -55.100  1.00  0.00     0.010 A 
ENDBRANCH   1  23
BRANCH   5  30
HETATM   30  C   UNL     1     -37.125  41.971 -59.596  1.00  0.00     0.085 C 
BRANCH  30  31
HETATM   31  C   UNL     1     -37.631  40.763 -60.382  1.00  0.00     0.034 C 
BRANCH  31  32
HETATM   32  C   UNL     1     -36.776  39.517 -60.185  1.00  0.00     0.164 C 
BRANCH  32  33
HETATM   33  O   UNL     1     -36.104  39.196 -61.399  1.00  0.00    -0.401 OA
HETATM   34  H   UNL     1     -35.303  39.746 -61.444  1.00  0.00     0.209 HD
ENDBRANCH  32  33
ENDBRANCH  31  32
ENDBRANCH  30  31
ENDBRANCH   5  30
TORSDOF 7
ENDMDL
MODEL 4
REMARK VINA RESULT:      -7.3      3.098      6.037
REMARK  7 active torsions:
REMARK  status: ('A' for Active; 'I' for Inactive)
REMARK    1  A    between atoms: C_4  and  C_5 
REMARK    2  A    between atoms: C_9  and  C_10 
REMARK    3  A    between atoms: C_10  and  C_11 
REMARK    4  A    between atoms: C_11  and  C_12 
REMARK    5  A    between atoms: C_12  and  O_13 
REMARK    6  A    between atoms: C_18  and  C_19 
REMARK       I    between atoms: C_19  and  N_20 
REMARK    7  A    between atoms: N_20  and  C_21 
ROOT
HETATM    1  C   UNL     1     -42.939  57.880 -53.112  1.00  0.00     0.202 A 
HETATM    2  N   UNL     1     -43.430  59.065 -52.399  1.00  0.00    -0.083 N 
HETATM    3  C   UNL     1     -44.092  59.016 -51.207  1.00  0.00     0.726 A 
HETATM    4  N   UNL     1     -44.303  60.233 -50.773  1.00  0.00    -0.046 NA
HETATM    5  C   UNL     1     -43.691  61.010 -51.728  1.00  0.00     0.166 A 
HETATM    6  N   UNL     1     -43.105  60.335 -52.728  1.00  0.00    -0.140 NA
HETATM    7  N   UNL     1     -44.361  57.822 -50.656  1.00  0.00    -0.192 N 
HETATM    8  C   UNL     1     -43.908  56.613 -51.176  1.00  0.00     0.037 A 
HETATM    9  C   UNL     1     -44.213  55.398 -50.330  1.00  0.00     0.070 C 
HETATM   10  C   UNL     1     -43.214  56.584 -52.348  1.00  0.00     0.062 A 
HETATM   11  H   UNL     1     -44.827  57.800 -49.752  1.00  0.00     0.184 HD
ENDROOT
BRANCH  10  12
HETATM   12  C   UNL     1     -42.772  55.273 -52.945  1.00  0.00     0.256 C 
HETATM   13  N   UNL     1     -41.525  54.831 -52.545  1.00  0.00    -0.323 N 
HETATM   14  H   UNL     1     -40.964  55.436 -51.971  1.00  0.00     0.169 HD
HETATM   15  O   UNL     1     -43.491  54.711 -53.764  1.00  0.00    -0.267 OA
BRANCH  13  16
HETATM   16  C   UNL     1     -40.879  53.624 -52.917  1.00  0.00     0.041 A 
HETATM   17  C   UNL     1     -40.165  52.902 -51.931  1.00  0.00    -0.035 A 
HETATM   18  C   UNL     1     -40.016  53.393 -50.516  1.00  0.00     0.050 C 
HETATM   19  C   UNL     1     -39.533  51.694 -52.280  1.00  0.00     0.009 A 
HETATM   20  C   UNL     1     -39.608  51.197 -53.579  1.00  0.00     0.001 A 
HETATM   21  C   UNL     1     -40.313  51.903 -54.546  1.00  0.00     0.002 A 
HETATM   22  C   UNL     1     -40.942  53.106 -54.217  1.00  0.00     0.030 A 
ENDBRANCH  13  16
ENDBRANCH  10  12
BRANCH   1  23
HETATM   23  C   UNL     1     -43.446  57.892 -54.552  1.00  0.00    -0.028 A 
HETATM   24  C   UNL     1     -42.573  57.885 -55.654  1.00  0.00     0.016 A 
HETATM   25  C   UNL     1     -43.066  57.927 -56.966  1.00  0.00    -0.061 A 
HETATM   26  C   UNL     1     -42.132  57.956 -58.139  1.00  0.00     0.048 C 
HETATM   27  C   UNL     1     -44.449  57.947 -57.176  1.00  0.00     0.007 A 
HETATM   28  C   UNL     1     -45.328  57.922 -56.097  1.00  0.00     0.001 A 
HETATM   29  C   UNL     1     -44.831  57.892 -54.794  1.00  0.00     0.010 A 
ENDBRANCH   1  23
BRANCH   5  30
HETATM   30  C   UNL     1     -43.640  62.490 -51.629  1.00  0.00     0.085 C 
BRANCH  30  31
HETATM   31  C   UNL     1     -42.947  62.988 -50.362  1.00  0.00     0.034 C 
BRANCH  31  32
HETATM   32  C   UNL     1     -43.913  63.570 -49.337  1.00  0.00     0.164 C 
BRANCH  32  33
HETATM   33  O   UNL     1     -44.609  62.516 -48.678  1.00  0.00    -0.401 OA
HETATM   34  H   UNL     1     -44.013  62.150 -48.002  1.00  0.00     0.209 HD
ENDBRANCH  32  33
ENDBRANCH  31  32
ENDBRANCH  30  31
ENDBRANCH   5  30
TORSDOF 7
ENDMDL
MODEL 5
REMARK VINA RESULT:      -7.3      1.141      1.750
REMARK  7 active torsions:
REMARK  status: ('A' for Active; 'I' for Inactive)
REMARK    1  A    between atoms: C_4  and  C_5 
REMARK    2  A    between atoms: C_9  and  C_10 
REMARK    3  A    between atoms: C_10  and  C_11 
REMARK    4  A    between atoms: C_11  and  C_12 
REMARK    5  A    between atoms: C_12  and  O_13 
REMARK    6  A    between atoms: C_18  and  C_19 
REMARK       I    between atoms: C_19  and  N_20 
REMARK    7  A    between atoms: N_20  and  C_21 
ROOT
HETATM    1  C   UNL     1     -43.803  56.678 -54.668  1.00  0.00     0.202 A 
HETATM    2  N   UNL     1     -43.786  57.236 -56.026  1.00  0.00    -0.083 N 
HETATM    3  C   UNL     1     -42.910  56.851 -56.997  1.00  0.00     0.726 A 
HETATM    4  N   UNL     1     -43.214  57.445 -58.122  1.00  0.00    -0.046 NA
HETATM    5  C   UNL     1     -44.343  58.159 -57.798  1.00  0.00     0.166 A 
HETATM    6  N   UNL     1     -44.758  58.030 -56.529  1.00  0.00    -0.140 NA
HETATM    7  N   UNL     1     -41.966  55.942 -56.704  1.00  0.00    -0.192 N 
HETATM    8  C   UNL     1     -41.890  55.276 -55.484  1.00  0.00     0.037 A 
HETATM    9  C   UNL     1     -40.832  54.199 -55.409  1.00  0.00     0.070 C 
HETATM   10  C   UNL     1     -42.751  55.585 -54.475  1.00  0.00     0.062 A 
HETATM   11  H   UNL     1     -41.338  55.640 -57.444  1.00  0.00     0.184 HD
ENDROOT
BRANCH  10  12
HETATM   12  C   UNL     1     -42.635  54.908 -53.134  1.00  0.00     0.256 C 
HETATM   13  N   UNL     1     -41.510  55.234 -52.402  1.00  0.00    -0.323 N 
HETATM   14  H   UNL     1     -40.809  55.812 -52.832  1.00  0.00     0.169 HD
HETATM   15  O   UNL     1     -43.487  54.094 -52.794  1.00  0.00    -0.267 OA
BRANCH  13  16
HETATM   16  C   UNL     1     -41.165  54.779 -51.103  1.00  0.00     0.041 A 
HETATM   17  C   UNL     1     -40.486  53.544 -50.971  1.00  0.00    -0.035 A 
HETATM   18  C   UNL     1     -40.163  52.667 -52.151  1.00  0.00     0.050 C 
HETATM   19  C   UNL     1     -40.123  53.088 -49.690  1.00  0.00     0.009 A 
HETATM   20  C   UNL     1     -40.416  53.837 -48.554  1.00  0.00     0.001 A 
HETATM   21  C   UNL     1     -41.079  55.050 -48.683  1.00  0.00     0.002 A 
HETATM   22  C   UNL     1     -41.450  55.517 -49.947  1.00  0.00     0.030 A 
ENDBRANCH  13  16
ENDBRANCH  10  12
BRANCH   1  23
HETATM   23  C   UNL     1     -43.746  57.808 -53.642  1.00  0.00    -0.028 A 
HETATM   24  C   UNL     1     -44.719  57.958 -52.639  1.00  0.00     0.016 A 
HETATM   25  C   UNL     1     -44.658  59.022 -51.728  1.00  0.00    -0.061 A 
HETATM   26  C   UNL     1     -45.717  59.202 -50.681  1.00  0.00     0.048 C 
HETATM   27  C   UNL     1     -43.595  59.928 -51.804  1.00  0.00     0.007 A 
HETATM   28  C   UNL     1     -42.605  59.775 -52.771  1.00  0.00     0.001 A 
HETATM   29  C   UNL     1     -42.678  58.722 -53.682  1.00  0.00     0.010 A 
ENDBRANCH   1  23
BRANCH   5  30
HETATM   30  C   UNL     1     -45.080  58.972 -58.798  1.00  0.00     0.085 C 
BRANCH  30  31
HETATM   31  C   UNL     1     -44.661  58.683 -60.238  1.00  0.00     0.034 C 
BRANCH  31  32
HETATM   32  C   UNL     1     -43.886  59.827 -60.880  1.00  0.00     0.164 C 
BRANCH  32  33
HETATM   33  O   UNL     1     -44.432  60.120 -62.163  1.00  0.00    -0.401 OA
HETATM   34  H   UNL     1     -44.310  59.331 -62.720  1.00  0.00     0.209 HD
ENDBRANCH  32  33
ENDBRANCH  31  32
ENDBRANCH  30  31
ENDBRANCH   5  30
TORSDOF 7
ENDMDL
MODEL 6
REMARK VINA RESULT:      -7.3      2.395      7.596
REMARK  7 active torsions:
REMARK  status: ('A' for Active; 'I' for Inactive)
REMARK    1  A    between atoms: C_4  and  C_5 
REMARK    2  A    between atoms: C_9  and  C_10 
REMARK    3  A    between atoms: C_10  and  C_11 
REMARK    4  A    between atoms: C_11  and  C_12 
REMARK    5  A    between atoms: C_12  and  O_13 
REMARK    6  A    between atoms: C_18  and  C_19 
REMARK       I    between atoms: C_19  and  N_20 
REMARK    7  A    between atoms: N_20  and  C_21 
ROOT
HETATM    1  C   UNL     1     -41.954  56.651 -54.124  1.00  0.00     0.202 A 
HETATM    2  N   UNL     1     -41.705  55.392 -53.411  1.00  0.00    -0.083 N 
HETATM    3  C   UNL     1     -41.954  54.158 -53.935  1.00  0.00     0.726 A 
HETATM    4  N   UNL     1     -41.530  53.237 -53.108  1.00  0.00    -0.046 NA
HETATM    5  C   UNL     1     -40.966  53.972 -52.093  1.00  0.00     0.166 A 
HETATM    6  N   UNL     1     -41.014  55.303 -52.253  1.00  0.00    -0.140 NA
HETATM    7  N   UNL     1     -42.502  54.065 -55.158  1.00  0.00    -0.192 N 
HETATM    8  C   UNL     1     -42.738  55.160 -55.982  1.00  0.00     0.037 A 
HETATM    9  C   UNL     1     -43.240  54.822 -57.367  1.00  0.00     0.070 C 
HETATM   10  C   UNL     1     -42.486  56.424 -55.539  1.00  0.00     0.062 A 
HETATM   11  H   UNL     1     -42.655  53.139 -55.550  1.00  0.00     0.184 HD
ENDROOT
BRANCH  10  12
HETATM   12  C   UNL     1     -42.794  57.617 -56.407  1.00  0.00     0.256 C 
HETATM   13  N   UNL     1     -41.798  57.977 -57.293  1.00  0.00    -0.323 N 
HETATM   14  H   UNL     1     -40.916  57.496 -57.245  1.00  0.00     0.169 HD
HETATM   15  O   UNL     1     -43.852  58.217 -56.252  1.00  0.00    -0.267 OA
BRANCH  13  16
HETATM   16  C   UNL     1     -41.831  59.027 -58.247  1.00  0.00     0.041 A 
HETATM   17  C   UNL     1     -42.065  58.707 -59.605  1.00  0.00    -0.035 A 
HETATM   18  C   UNL     1     -42.224  57.291 -60.088  1.00  0.00     0.050 C 
HETATM   19  C   UNL     1     -42.117  59.740 -60.560  1.00  0.00     0.009 A 
HETATM   20  C   UNL     1     -41.951  61.071 -60.184  1.00  0.00     0.001 A 
HETATM   21  C   UNL     1     -41.726  61.385 -58.851  1.00  0.00     0.002 A 
HETATM   22  C   UNL     1     -41.666  60.372 -57.891  1.00  0.00     0.030 A 
ENDBRANCH  13  16
ENDBRANCH  10  12
BRANCH   1  23
HETATM   23  C   UNL     1     -42.809  57.577 -53.261  1.00  0.00    -0.028 A 
HETATM   24  C   UNL     1     -42.352  58.835 -52.833  1.00  0.00     0.016 A 
HETATM   25  C   UNL     1     -43.147  59.652 -52.016  1.00  0.00    -0.061 A 
HETATM   26  C   UNL     1     -42.644  60.980 -51.531  1.00  0.00     0.048 C 
HETATM   27  C   UNL     1     -44.424  59.215 -51.649  1.00  0.00     0.007 A 
HETATM   28  C   UNL     1     -44.905  57.986 -52.091  1.00  0.00     0.001 A 
HETATM   29  C   UNL     1     -44.104  57.173 -52.892  1.00  0.00     0.010 A 
ENDBRANCH   1  23
BRANCH   5  30
HETATM   30  C   UNL     1     -40.306  53.333 -50.926  1.00  0.00     0.085 C 
BRANCH  30  31
HETATM   31  C   UNL     1     -39.931  54.324 -49.826  1.00  0.00     0.034 C 
BRANCH  31  32
HETATM   32  C   UNL     1     -41.087  54.641 -48.884  1.00  0.00     0.164 C 
BRANCH  32  33
HETATM   33  O   UNL     1     -40.648  54.540 -47.533  1.00  0.00    -0.401 OA
HETATM   34  H   UNL     1     -41.080  55.254 -47.031  1.00  0.00     0.209 HD
ENDBRANCH  32  33
ENDBRANCH  31  32
ENDBRANCH  30  31
ENDBRANCH   5  30
TORSDOF 7
ENDMDL
MODEL 7
REMARK VINA RESULT:      -7.2      2.988      7.447
REMARK  7 active torsions:
REMARK  status: ('A' for Active; 'I' for Inactive)
REMARK    1  A    between atoms: C_4  and  C_5 
REMARK    2  A    between atoms: C_9  and  C_10 
REMARK    3  A    between atoms: C_10  and  C_11 
REMARK    4  A    between atoms: C_11  and  C_12 
REMARK    5  A    between atoms: C_12  and  O_13 
REMARK    6  A    between atoms: C_18  and  C_19 
REMARK       I    between atoms: C_19  and  N_20 
REMARK    7  A    between atoms: N_20  and  C_21 
ROOT
HETATM    1  C   UNL     1     -41.748  56.990 -55.184  1.00  0.00     0.202 A 
HETATM    2  N   UNL     1     -41.733  55.580 -54.775  1.00  0.00    -0.083 N 
HETATM    3  C   UNL     1     -42.387  54.586 -55.442  1.00  0.00     0.726 A 
HETATM    4  N   UNL     1     -42.096  53.431 -54.902  1.00  0.00    -0.046 NA
HETATM    5  C   UNL     1     -41.196  53.769 -53.919  1.00  0.00     0.166 A 
HETATM    6  N   UNL     1     -40.911  55.076 -53.828  1.00  0.00    -0.140 NA
HETATM    7  N   UNL     1     -43.133  54.899 -56.514  1.00  0.00    -0.192 N 
HETATM    8  C   UNL     1     -43.198  56.176 -57.062  1.00  0.00     0.037 A 
HETATM    9  C   UNL     1     -43.994  56.282 -58.343  1.00  0.00     0.070 C 
HETATM   10  C   UNL     1     -42.547  57.215 -56.469  1.00  0.00     0.062 A 
HETATM   11  H   UNL     1     -43.591  54.145 -57.021  1.00  0.00     0.184 HD
ENDROOT
BRANCH  10  12
HETATM   12  C   UNL     1     -42.662  58.611 -57.025  1.00  0.00     0.256 C 
HETATM   13  N   UNL     1     -41.667  58.979 -57.910  1.00  0.00    -0.323 N 
HETATM   14  H   UNL     1     -40.897  58.348 -58.054  1.00  0.00     0.169 HD
HETATM   15  O   UNL     1     -43.569  59.340 -56.640  1.00  0.00    -0.267 OA
BRANCH  13  16
HETATM   16  C   UNL     1     -41.546  60.208 -58.608  1.00  0.00     0.041 A 
HETATM   17  C   UNL     1     -41.956  60.267 -59.961  1.00  0.00    -0.035 A 
HETATM   18  C   UNL     1     -42.464  59.062 -60.707  1.00  0.00     0.050 C 
HETATM   19  C   UNL     1     -41.858  61.483 -60.661  1.00  0.00     0.009 A 
HETATM   20  C   UNL     1     -41.371  62.630 -60.039  1.00  0.00     0.001 A 
HETATM   21  C   UNL     1     -40.973  62.574 -58.710  1.00  0.00     0.002 A 
HETATM   22  C   UNL     1     -41.060  61.373 -58.001  1.00  0.00     0.030 A 
ENDBRANCH  13  16
ENDBRANCH  10  12
BRANCH   1  23
HETATM   23  C   UNL     1     -42.170  57.868 -54.008  1.00  0.00    -0.028 A 
HETATM   24  C   UNL     1     -43.337  57.617 -53.266  1.00  0.00     0.016 A 
HETATM   25  C   UNL     1     -43.715  58.458 -52.210  1.00  0.00    -0.061 A 
HETATM   26  C   UNL     1     -44.980  58.209 -51.442  1.00  0.00     0.048 C 
HETATM   27  C   UNL     1     -42.900  59.544 -51.875  1.00  0.00     0.007 A 
HETATM   28  C   UNL     1     -41.724  59.788 -52.579  1.00  0.00     0.001 A 
HETATM   29  C   UNL     1     -41.360  58.955 -53.637  1.00  0.00     0.010 A 
ENDBRANCH   1  23
BRANCH   5  30
HETATM   30  C   UNL     1     -40.549  52.750 -53.054  1.00  0.00     0.085 C 
BRANCH  30  31
HETATM   31  C   UNL     1     -39.675  51.767 -53.830  1.00  0.00     0.034 C 
BRANCH  31  32
HETATM   32  C   UNL     1     -40.412  50.494 -54.231  1.00  0.00     0.164 C 
BRANCH  32  33
HETATM   33  O   UNL     1     -39.490  49.412 -54.323  1.00  0.00    -0.401 OA
HETATM   34  H   UNL     1     -39.370  49.210 -55.267  1.00  0.00     0.209 HD
ENDBRANCH  32  33
ENDBRANCH  31  32
ENDBRANCH  30  31
ENDBRANCH   5  30
TORSDOF 7
ENDMDL
MODEL 8
REMARK VINA RESULT:      -6.7      2.729      7.715
REMARK  7 active torsions:
REMARK  status: ('A' for Active; 'I' for Inactive)
REMARK    1  A    between atoms: C_4  and  C_5 
REMARK    2  A    between atoms: C_9  and  C_10 
REMARK    3  A    between atoms: C_10  and  C_11 
REMARK    4  A    between atoms: C_11  and  C_12 
REMARK    5  A    between atoms: C_12  and  O_13 
REMARK    6  A    between atoms: C_18  and  C_19 
REMARK       I    between atoms: C_19  and  N_20 
REMARK    7  A    between atoms: N_20  and  C_21 
ROOT
HETATM    1  C   UNL     1     -42.376  57.342 -55.775  1.00  0.00     0.202 A 
HETATM    2  N   UNL     1     -42.226  56.097 -55.012  1.00  0.00    -0.083 N 
HETATM    3  C   UNL     1     -42.556  54.864 -55.494  1.00  0.00     0.726 A 
HETATM    4  N   UNL     1     -42.208  53.948 -54.628  1.00  0.00    -0.046 NA
HETATM    5  C   UNL     1     -41.605  54.679 -53.633  1.00  0.00     0.166 A 
HETATM    6  N   UNL     1     -41.556  56.002 -53.842  1.00  0.00    -0.140 NA
HETATM    7  N   UNL     1     -43.096  54.764 -56.720  1.00  0.00    -0.192 N 
HETATM    8  C   UNL     1     -43.244  55.841 -57.587  1.00  0.00     0.037 A 
HETATM    9  C   UNL     1     -43.754  55.487 -58.966  1.00  0.00     0.070 C 
HETATM   10  C   UNL     1     -42.907  57.100 -57.188  1.00  0.00     0.062 A 
HETATM   11  H   UNL     1     -43.309  53.837 -57.079  1.00  0.00     0.184 HD
ENDROOT
BRANCH  10  12
HETATM   12  C   UNL     1     -43.120  58.278 -58.103  1.00  0.00     0.256 C 
HETATM   13  N   UNL     1     -41.981  58.765 -58.715  1.00  0.00    -0.323 N 
HETATM   14  H   UNL     1     -41.092  58.378 -58.450  1.00  0.00     0.169 HD
HETATM   15  O   UNL     1     -44.242  58.760 -58.215  1.00  0.00    -0.267 OA
BRANCH  13  16
HETATM   16  C   UNL     1     -41.893  59.833 -59.645  1.00  0.00     0.041 A 
HETATM   17  C   UNL     1     -41.628  61.136 -59.163  1.00  0.00    -0.035 A 
HETATM   18  C   UNL     1     -41.492  61.446 -57.696  1.00  0.00     0.050 C 
HETATM   19  C   UNL     1     -41.521  62.203 -60.075  1.00  0.00     0.009 A 
HETATM   20  C   UNL     1     -41.664  61.990 -61.444  1.00  0.00     0.001 A 
HETATM   21  C   UNL     1     -41.919  60.710 -61.918  1.00  0.00     0.002 A 
HETATM   22  C   UNL     1     -42.033  59.641 -61.026  1.00  0.00     0.030 A 
ENDBRANCH  13  16
ENDBRANCH  10  12
BRANCH   1  23
HETATM   23  C   UNL     1     -43.173  58.358 -54.959  1.00  0.00    -0.028 A 
HETATM   24  C   UNL     1     -42.674  59.639 -54.664  1.00  0.00     0.016 A 
HETATM   25  C   UNL     1     -43.415  60.541 -53.888  1.00  0.00    -0.061 A 
HETATM   26  C   UNL     1     -42.866  61.894 -53.545  1.00  0.00     0.048 C 
HETATM   27  C   UNL     1     -44.680  60.166 -53.425  1.00  0.00     0.007 A 
HETATM   28  C   UNL     1     -45.203  58.913 -53.734  1.00  0.00     0.001 A 
HETATM   29  C   UNL     1     -44.456  58.016 -54.497  1.00  0.00     0.010 A 
ENDBRANCH   1  23
BRANCH   5  30
HETATM   30  C   UNL     1     -41.004  54.039 -52.435  1.00  0.00     0.085 C 
BRANCH  30  31
HETATM   31  C   UNL     1     -42.002  53.828 -51.298  1.00  0.00     0.034 C 
BRANCH  31  32
HETATM   32  C   UNL     1     -41.961  54.933 -50.249  1.00  0.00     0.164 C 
BRANCH  32  33
HETATM   33  O   UNL     1     -41.719  54.368 -48.964  1.00  0.00    -0.401 OA
HETATM   34  H   UNL     1     -41.507  55.099 -48.358  1.00  0.00     0.209 HD
ENDBRANCH  32  33
ENDBRANCH  31  32
ENDBRANCH  30  31
ENDBRANCH   5  30
TORSDOF 7
ENDMDL
MODEL 9
REMARK VINA RESULT:      -6.6      3.153      6.876
REMARK  7 active torsions:
REMARK  status: ('A' for Active; 'I' for Inactive)
REMARK    1  A    between atoms: C_4  and  C_5 
REMARK    2  A    between atoms: C_9  and  C_10 
REMARK    3  A    between atoms: C_10  and  C_11 
REMARK    4  A    between atoms: C_11  and  C_12 
REMARK    5  A    between atoms: C_12  and  O_13 
REMARK    6  A    between atoms: C_18  and  C_19 
REMARK       I    between atoms: C_19  and  N_20 
REMARK    7  A    between atoms: N_20  and  C_21 
ROOT
HETATM    1  C   UNL     1     -43.421  56.339 -53.110  1.00  0.00     0.202 A 
HETATM    2  N   UNL     1     -42.409  55.296 -53.310  1.00  0.00    -0.083 N 
HETATM    3  C   UNL     1     -41.221  55.250 -52.640  1.00  0.00     0.726 A 
HETATM    4  N   UNL     1     -40.585  54.150 -52.953  1.00  0.00    -0.046 NA
HETATM    5  C   UNL     1     -41.466  53.513 -53.794  1.00  0.00     0.166 A 
HETATM    6  N   UNL     1     -42.620  54.161 -54.012  1.00  0.00    -0.140 NA
HETATM    7  N   UNL     1     -40.919  56.231 -51.775  1.00  0.00    -0.192 N 
HETATM    8  C   UNL     1     -41.798  57.253 -51.431  1.00  0.00     0.037 A 
HETATM    9  C   UNL     1     -41.306  58.180 -50.343  1.00  0.00     0.070 C 
HETATM   10  C   UNL     1     -43.015  57.349 -52.036  1.00  0.00     0.062 A 
HETATM   11  H   UNL     1     -40.044  56.169 -51.260  1.00  0.00     0.184 HD
ENDROOT
BRANCH  10  12
HETATM   12  C   UNL     1     -43.947  58.487 -51.709  1.00  0.00     0.256 C 
HETATM   13  N   UNL     1     -43.681  59.675 -52.362  1.00  0.00    -0.323 N 
HETATM   14  H   UNL     1     -42.852  59.736 -52.928  1.00  0.00     0.169 HD
HETATM   15  O   UNL     1     -44.828  58.323 -50.873  1.00  0.00    -0.267 OA
BRANCH  13  16
HETATM   16  C   UNL     1     -44.411  60.888 -52.274  1.00  0.00     0.041 A 
HETATM   17  C   UNL     1     -43.962  61.890 -51.381  1.00  0.00    -0.035 A 
HETATM   18  C   UNL     1     -42.772  61.699 -50.480  1.00  0.00     0.050 C 
HETATM   19  C   UNL     1     -44.667  63.106 -51.295  1.00  0.00     0.009 A 
HETATM   20  C   UNL     1     -45.793  63.338 -52.081  1.00  0.00     0.001 A 
HETATM   21  C   UNL     1     -46.231  62.356 -52.960  1.00  0.00     0.002 A 
HETATM   22  C   UNL     1     -45.546  61.142 -53.055  1.00  0.00     0.030 A 
ENDBRANCH  13  16
ENDBRANCH  10  12
BRANCH   1  23
HETATM   23  C   UNL     1     -43.804  56.956 -54.454  1.00  0.00    -0.028 A 
HETATM   24  C   UNL     1     -42.865  57.154 -55.481  1.00  0.00     0.016 A 
HETATM   25  C   UNL     1     -43.238  57.751 -56.694  1.00  0.00    -0.061 A 
HETATM   26  C   UNL     1     -42.228  57.994 -57.776  1.00  0.00     0.048 C 
HETATM   27  C   UNL     1     -44.572  58.126 -56.890  1.00  0.00     0.007 A 
HETATM   28  C   UNL     1     -45.520  57.907 -55.895  1.00  0.00     0.001 A 
HETATM   29  C   UNL     1     -45.140  57.325 -54.686  1.00  0.00     0.010 A 
ENDBRANCH   1  23
BRANCH   5  30
HETATM   30  C   UNL     1     -41.179  52.178 -54.377  1.00  0.00     0.085 C 
BRANCH  30  31
HETATM   31  C   UNL     1     -39.831  51.606 -53.942  1.00  0.00     0.034 C 
BRANCH  31  32
HETATM   32  C   UNL     1     -39.874  50.107 -53.671  1.00  0.00     0.164 C 
BRANCH  32  33
HETATM   33  O   UNL     1     -39.909  49.395 -54.905  1.00  0.00    -0.401 OA
HETATM   34  H   UNL     1     -39.049  49.523 -55.341  1.00  0.00     0.209 HD
ENDBRANCH  32  33
ENDBRANCH  31  32
ENDBRANCH  30  31
ENDBRANCH   5  30
TORSDOF 7
ENDMDL
MODEL 10
REMARK VINA RESULT:      -6.5      3.845      7.898
REMARK  7 active torsions:
REMARK  status: ('A' for Active; 'I' for Inactive)
REMARK    1  A    between atoms: C_4  and  C_5 
REMARK    2  A    between atoms: C_9  and  C_10 
REMARK    3  A    between atoms: C_10  and  C_11 
REMARK    4  A    between atoms: C_11  and  C_12 
REMARK    5  A    between atoms: C_12  and  O_13 
REMARK    6  A    between atoms: C_18  and  C_19 
REMARK       I    between atoms: C_19  and  N_20 
REMARK    7  A    between atoms: N_20  and  C_21 
ROOT
HETATM    1  C   UNL     1     -43.780  59.840 -52.386  1.00  0.00     0.202 A 
HETATM    2  N   UNL     1     -44.320  60.817 -51.434  1.00  0.00    -0.083 N 
HETATM    3  C   UNL     1     -44.472  62.144 -51.709  1.00  0.00     0.726 A 
HETATM    4  N   UNL     1     -45.076  62.733 -50.708  1.00  0.00    -0.046 NA
HETATM    5  C   UNL     1     -45.328  61.692 -49.846  1.00  0.00     0.166 A 
HETATM    6  N   UNL     1     -44.918  60.487 -50.267  1.00  0.00    -0.140 NA
HETATM    7  N   UNL     1     -44.069  62.616 -52.899  1.00  0.00    -0.192 N 
HETATM    8  C   UNL     1     -43.596  61.808 -53.929  1.00  0.00     0.037 A 
HETATM    9  C   UNL     1     -43.318  62.527 -55.229  1.00  0.00     0.070 C 
HETATM   10  C   UNL     1     -43.444  60.468 -53.739  1.00  0.00     0.062 A 
HETATM   11  H   UNL     1     -44.216  63.601 -53.104  1.00  0.00     0.184 HD
ENDROOT
BRANCH  10  12
HETATM   12  C   UNL     1     -42.878  59.598 -54.831  1.00  0.00     0.256 C 
HETATM   13  N   UNL     1     -43.769  58.711 -55.404  1.00  0.00    -0.323 N 
HETATM   14  H   UNL     1     -44.691  58.635 -55.008  1.00  0.00     0.169 HD
HETATM   15  O   UNL     1     -41.687  59.680 -55.110  1.00  0.00    -0.267 OA
BRANCH  13  16
HETATM   16  C   UNL     1     -43.521  57.806 -56.468  1.00  0.00     0.041 A 
HETATM   17  C   UNL     1     -43.179  56.469 -56.159  1.00  0.00    -0.035 A 
HETATM   18  C   UNL     1     -43.015  55.980 -54.745  1.00  0.00     0.050 C 
HETATM   19  C   UNL     1     -42.947  55.555 -57.204  1.00  0.00     0.009 A 
HETATM   20  C   UNL     1     -43.055  55.948 -58.536  1.00  0.00     0.001 A 
HETATM   21  C   UNL     1     -43.395  57.260 -58.839  1.00  0.00     0.002 A 
HETATM   22  C   UNL     1     -43.625  58.181 -57.814  1.00  0.00     0.030 A 
ENDBRANCH  13  16
ENDBRANCH  10  12
BRANCH   1  23
HETATM   23  C   UNL     1     -42.634  59.064 -51.740  1.00  0.00    -0.028 A 
HETATM   24  C   UNL     1     -41.414  59.674 -51.400  1.00  0.00     0.016 A 
HETATM   25  C   UNL     1     -40.368  58.931 -50.835  1.00  0.00    -0.061 A 
HETATM   26  C   UNL     1     -39.055  59.576 -50.505  1.00  0.00     0.048 C 
HETATM   27  C   UNL     1     -40.556  57.567 -50.583  1.00  0.00     0.007 A 
HETATM   28  C   UNL     1     -41.769  56.954 -50.884  1.00  0.00     0.001 A 
HETATM   29  C   UNL     1     -42.801  57.697 -51.457  1.00  0.00     0.010 A 
ENDBRANCH   1  23
BRANCH   5  30
HETATM   30  C   UNL     1     -46.052  61.884 -48.564  1.00  0.00     0.085 C 
BRANCH  30  31
HETATM   31  C   UNL     1     -45.337  61.260 -47.367  1.00  0.00     0.034 C 
BRANCH  31  32
HETATM   32  C   UNL     1     -46.288  60.821 -46.261  1.00  0.00     0.164 C 
BRANCH  32  33
HETATM   33  O   UNL     1     -47.621  61.196 -46.594  1.00  0.00    -0.401 OA
HETATM   34  H   UNL     1     -48.196  60.917 -45.860  1.00  0.00     0.209 HD
ENDBRANCH  32  33
ENDBRANCH  31  32
ENDBRANCH  30  31
ENDBRANCH   5  30
TORSDOF 7
ENDMDL
