MODEL 1
REMARK VINA RESULT:      -9.0      0.000      0.000
REMARK  5 active torsions:
REMARK  status: ('A' for Active; 'I' for Inactive)
REMARK    1  A    between atoms: C_8  and  C_9 
REMARK    2  A    between atoms: C_13  and  C_14 
REMARK    3  A    between atoms: C_14  and  O_15 
REMARK    4  A    between atoms: O_15  and  C_16 
REMARK    5  A    between atoms: C_27  and  N_28 
ROOT
HETATM    1  C   UNL     1     -43.891  55.081 -58.875  1.00  0.00     0.073 C 
HETATM    2  C   UNL     1     -43.046  56.272 -59.140  1.00  0.00     0.062 A 
HETATM    3  N   UNL     1     -42.380  56.389 -60.302  1.00  0.00    -0.177 NA
HETATM    4  N   UNL     1     -41.722  57.561 -60.192  1.00  0.00    -0.256 N 
HETATM    5  H   UNL     1     -41.135  57.866 -60.960  1.00  0.00     0.191 HD
HETATM    6  C   UNL     1     -41.969  58.192 -59.016  1.00  0.00     0.175 A 
HETATM    7  C   UNL     1     -42.809  57.383 -58.299  1.00  0.00     0.035 A 
HETATM    8  C   UNL     1     -43.267  57.780 -56.934  1.00  0.00     0.112 A 
HETATM    9  C   UNL     1     -42.752  59.197 -56.617  1.00  0.00     0.081 A 
HETATM   10  C   UNL     1     -43.218  59.783 -55.404  1.00  0.00     0.100 C 
HETATM   11  N   UNL     1     -43.615  60.285 -54.436  1.00  0.00    -0.191 NA
HETATM   12  C   UNL     1     -41.915  59.891 -57.437  1.00  0.00     0.140 A 
HETATM   13  O   UNL     1     -41.474  59.371 -58.667  1.00  0.00    -0.279 OA
ENDROOT
BRANCH   8  14
HETATM   14  C   UNL     1     -42.843  56.749 -55.904  1.00  0.00    -0.003 A 
HETATM   15  S   UNL     1     -43.916  56.286 -54.656  1.00  0.00    -0.098 SA
HETATM   16  C   UNL     1     -42.785  55.195 -53.981  1.00  0.00    -0.013 A 
HETATM   17  C   UNL     1     -43.155  54.399 -52.771  1.00  0.00     0.057 C 
HETATM   18  C   UNL     1     -41.589  55.181 -54.681  1.00  0.00    -0.020 A 
HETATM   19  C   UNL     1     -41.639  56.080 -55.797  1.00  0.00     0.026 A 
BRANCH  18  20
HETATM   20  C   UNL     1     -40.389  54.336 -54.344  1.00  0.00     0.215 C 
BRANCH  20  21
HETATM   21  O   UNL     1     -40.629  52.976 -54.706  1.00  0.00    -0.347 OA
BRANCH  21  22
HETATM   22  C   UNL     1     -40.263  52.015 -53.805  1.00  0.00     0.069 A 
HETATM   23  C   UNL     1     -40.048  50.663 -54.085  1.00  0.00     0.040 A 
HETATM   24  C   UNL     1     -39.677  49.788 -53.059  1.00  0.00     0.045 A 
HETATM   25  C   UNL     1     -39.520  50.268 -51.764  1.00  0.00     0.116 A 
HETATM   26  F   UNL     1     -39.165  49.424 -50.787  1.00  0.00    -0.206 F 
HETATM   27  C   UNL     1     -39.726  51.609 -51.472  1.00  0.00     0.045 A 
HETATM   28  C   UNL     1     -40.097  52.482 -52.496  1.00  0.00     0.040 A 
ENDBRANCH  21  22
ENDBRANCH  20  21
ENDBRANCH  18  20
ENDBRANCH   8  14
BRANCH  12  29
HETATM   29  N   UNL     1     -41.420  61.152 -57.192  1.00  0.00    -0.282 NA
HETATM   30  H   UNL     1     -40.603  61.198 -56.588  1.00  0.00     0.126 HD
HETATM   31  H   UNL     1     -42.151  61.807 -56.925  1.00  0.00     0.126 HD
ENDBRANCH  12  29
TORSDOF 5
ENDMDL
MODEL 2
REMARK VINA RESULT:      -8.3      2.932      5.051
REMARK  5 active torsions:
REMARK  status: ('A' for Active; 'I' for Inactive)
REMARK    1  A    between atoms: C_8  and  C_9 
REMARK    2  A    between atoms: C_13  and  C_14 
REMARK    3  A    between atoms: C_14  and  O_15 
REMARK    4  A    between atoms: O_15  and  C_16 
REMARK    5  A    between atoms: C_27  and  N_28 
ROOT
HETATM    1  C   UNL     1     -40.581  59.330 -50.189  1.00  0.00     0.073 C 
HETATM    2  C   UNL     1     -41.627  59.931 -51.053  1.00  0.00     0.062 A 
HETATM    3  N   UNL     1     -42.205  61.095 -50.710  1.00  0.00    -0.177 NA
HETATM    4  N   UNL     1     -43.096  61.327 -51.697  1.00  0.00    -0.256 N 
HETATM    5  H   UNL     1     -43.668  62.162 -51.653  1.00  0.00     0.191 HD
HETATM    6  C   UNL     1     -43.080  60.364 -52.653  1.00  0.00     0.175 A 
HETATM    7  C   UNL     1     -42.154  59.434 -52.266  1.00  0.00     0.035 A 
HETATM    8  C   UNL     1     -41.900  58.220 -53.098  1.00  0.00     0.112 A 
HETATM    9  C   UNL     1     -42.718  58.317 -54.401  1.00  0.00     0.081 A 
HETATM   10  C   UNL     1     -42.482  57.301 -55.373  1.00  0.00     0.100 C 
HETATM   11  N   UNL     1     -42.276  56.500 -56.187  1.00  0.00    -0.191 NA
HETATM   12  C   UNL     1     -43.609  59.315 -54.653  1.00  0.00     0.140 A 
HETATM   13  O   UNL     1     -43.832  60.364 -53.745  1.00  0.00    -0.279 OA
ENDROOT
BRANCH   8  14
HETATM   14  C   UNL     1     -42.187  56.956 -52.308  1.00  0.00    -0.003 A 
HETATM   15  S   UNL     1     -43.774  56.619 -51.770  1.00  0.00    -0.098 SA
HETATM   16  C   UNL     1     -43.295  55.156 -51.025  1.00  0.00    -0.013 A 
HETATM   17  C   UNL     1     -44.313  54.310 -50.330  1.00  0.00     0.057 C 
HETATM   18  C   UNL     1     -41.937  54.919 -51.163  1.00  0.00    -0.020 A 
HETATM   19  C   UNL     1     -41.308  55.965 -51.915  1.00  0.00     0.026 A 
BRANCH  18  20
HETATM   20  C   UNL     1     -41.198  53.725 -50.619  1.00  0.00     0.215 C 
BRANCH  20  21
HETATM   21  O   UNL     1     -39.989  53.520 -51.351  1.00  0.00    -0.347 OA
BRANCH  21  22
HETATM   22  C   UNL     1     -39.935  52.433 -52.177  1.00  0.00     0.069 A 
HETATM   23  C   UNL     1     -39.571  51.135 -51.807  1.00  0.00     0.040 A 
HETATM   24  C   UNL     1     -39.558  50.114 -52.763  1.00  0.00     0.045 A 
HETATM   25  C   UNL     1     -39.912  50.394 -54.078  1.00  0.00     0.116 A 
HETATM   26  F   UNL     1     -39.897  49.412 -54.988  1.00  0.00    -0.206 F 
HETATM   27  C   UNL     1     -40.280  51.677 -54.459  1.00  0.00     0.045 A 
HETATM   28  C   UNL     1     -40.292  52.695 -53.505  1.00  0.00     0.040 A 
ENDBRANCH  21  22
ENDBRANCH  20  21
ENDBRANCH  18  20
ENDBRANCH   8  14
BRANCH  12  29
HETATM   29  N   UNL     1     -44.369  59.437 -55.794  1.00  0.00    -0.282 NA
HETATM   30  H   UNL     1     -45.326  59.755 -55.657  1.00  0.00     0.126 HD
HETATM   31  H   UNL     1     -44.303  58.616 -56.391  1.00  0.00     0.126 HD
ENDBRANCH  12  29
TORSDOF 5
ENDMDL
MODEL 3
REMARK VINA RESULT:      -8.2      3.429      5.170
REMARK  5 active torsions:
REMARK  status: ('A' for Active; 'I' for Inactive)
REMARK    1  A    between atoms: C_8  and  C_9 
REMARK    2  A    between atoms: C_13  and  C_14 
REMARK    3  A    between atoms: C_14  and  O_15 
REMARK    4  A    between atoms: O_15  and  C_16 
REMARK    5  A    between atoms: C_27  and  N_28 
ROOT
HETATM    1  C   UNL     1     -40.231  58.910 -51.465  1.00  0.00     0.073 C 
HETATM    2  C   UNL     1     -41.500  59.629 -51.196  1.00  0.00     0.062 A 
HETATM    3  N   UNL     1     -41.615  60.425 -50.118  1.00  0.00    -0.177 NA
HETATM    4  N   UNL     1     -42.879  60.893 -50.182  1.00  0.00    -0.256 N 
HETATM    5  H   UNL     1     -43.205  61.522 -49.458  1.00  0.00     0.191 HD
HETATM    6  C   UNL     1     -43.550  60.439 -51.271  1.00  0.00     0.175 A 
HETATM    7  C   UNL     1     -42.699  59.605 -51.945  1.00  0.00     0.035 A 
HETATM    8  C   UNL     1     -43.138  58.916 -53.194  1.00  0.00     0.112 A 
HETATM    9  C   UNL     1     -44.547  59.409 -53.579  1.00  0.00     0.081 A 
HETATM   10  C   UNL     1     -45.058  58.952 -54.828  1.00  0.00     0.100 C 
HETATM   11  N   UNL     1     -45.474  58.614 -55.858  1.00  0.00    -0.191 NA
HETATM   12  C   UNL     1     -45.282  60.253 -52.803  1.00  0.00     0.140 A 
HETATM   13  O   UNL     1     -44.794  60.769 -51.589  1.00  0.00    -0.279 OA
ENDROOT
BRANCH   8  14
HETATM   14  C   UNL     1     -43.059  57.409 -53.034  1.00  0.00    -0.003 A 
HETATM   15  S   UNL     1     -43.694  56.657 -51.636  1.00  0.00    -0.098 SA
HETATM   16  C   UNL     1     -43.245  55.097 -52.175  1.00  0.00    -0.013 A 
HETATM   17  C   UNL     1     -43.561  53.903 -51.334  1.00  0.00     0.057 C 
HETATM   18  C   UNL     1     -42.601  55.132 -53.402  1.00  0.00    -0.020 A 
HETATM   19  C   UNL     1     -42.507  56.477 -53.892  1.00  0.00     0.026 A 
BRANCH  18  20
HETATM   20  C   UNL     1     -42.075  53.936 -54.147  1.00  0.00     0.215 C 
BRANCH  20  21
HETATM   21  O   UNL     1     -40.688  53.749 -53.860  1.00  0.00    -0.347 OA
BRANCH  21  22
HETATM   22  C   UNL     1     -40.304  52.519 -53.405  1.00  0.00     0.069 A 
HETATM   23  C   UNL     1     -39.922  52.208 -52.097  1.00  0.00     0.040 A 
HETATM   24  C   UNL     1     -39.549  50.901 -51.771  1.00  0.00     0.045 A 
HETATM   25  C   UNL     1     -39.563  49.913 -52.749  1.00  0.00     0.116 A 
HETATM   26  F   UNL     1     -39.204  48.663 -52.430  1.00  0.00    -0.206 F 
HETATM   27  C   UNL     1     -39.944  50.206 -54.051  1.00  0.00     0.045 A 
HETATM   28  C   UNL     1     -40.316  51.512 -54.376  1.00  0.00     0.040 A 
ENDBRANCH  21  22
ENDBRANCH  20  21
ENDBRANCH  18  20
ENDBRANCH   8  14
BRANCH  12  29
HETATM   29  N   UNL     1     -46.546  60.711 -53.097  1.00  0.00    -0.282 NA
HETATM   30  H   UNL     1     -46.854  61.529 -52.577  1.00  0.00     0.126 HD
HETATM   31  H   UNL     1     -47.235  59.962 -53.107  1.00  0.00     0.126 HD
ENDBRANCH  12  29
TORSDOF 5
ENDMDL
MODEL 4
REMARK VINA RESULT:      -8.0      3.562      5.672
REMARK  5 active torsions:
REMARK  status: ('A' for Active; 'I' for Inactive)
REMARK    1  A    between atoms: C_8  and  C_9 
REMARK    2  A    between atoms: C_13  and  C_14 
REMARK    3  A    between atoms: C_14  and  O_15 
REMARK    4  A    between atoms: O_15  and  C_16 
REMARK    5  A    between atoms: C_27  and  N_28 
ROOT
HETATM    1  C   UNL     1     -42.026  59.537 -53.647  1.00  0.00     0.073 C 
HETATM    2  C   UNL     1     -41.344  59.048 -52.424  1.00  0.00     0.062 A 
HETATM    3  N   UNL     1     -40.333  59.749 -51.883  1.00  0.00    -0.177 NA
HETATM    4  N   UNL     1     -39.953  59.017 -50.815  1.00  0.00    -0.256 N 
HETATM    5  H   UNL     1     -39.186  59.349 -50.242  1.00  0.00     0.191 HD
HETATM    6  C   UNL     1     -40.703  57.898 -50.655  1.00  0.00     0.175 A 
HETATM    7  C   UNL     1     -41.605  57.872 -51.684  1.00  0.00     0.035 A 
HETATM    8  C   UNL     1     -42.579  56.748 -51.815  1.00  0.00     0.112 A 
HETATM    9  C   UNL     1     -42.446  55.815 -50.596  1.00  0.00     0.081 A 
HETATM   10  C   UNL     1     -43.404  54.764 -50.496  1.00  0.00     0.100 C 
HETATM   11  N   UNL     1     -44.197  53.924 -50.383  1.00  0.00    -0.191 NA
HETATM   12  C   UNL     1     -41.491  55.968 -49.637  1.00  0.00     0.140 A 
HETATM   13  O   UNL     1     -40.561  57.022 -49.670  1.00  0.00    -0.279 OA
ENDROOT
BRANCH   8  14
HETATM   14  C   UNL     1     -42.396  56.028 -53.139  1.00  0.00    -0.003 A 
HETATM   15  S   UNL     1     -43.436  56.364 -54.453  1.00  0.00    -0.098 SA
HETATM   16  C   UNL     1     -42.642  55.242 -55.470  1.00  0.00    -0.013 A 
HETATM   17  C   UNL     1     -43.108  55.059 -56.879  1.00  0.00     0.057 C 
HETATM   18  C   UNL     1     -41.598  54.597 -54.824  1.00  0.00    -0.020 A 
HETATM   19  C   UNL     1     -41.462  55.068 -53.477  1.00  0.00     0.026 A 
BRANCH  18  20
HETATM   20  C   UNL     1     -40.706  53.550 -55.436  1.00  0.00     0.215 C 
BRANCH  20  21
HETATM   21  O   UNL     1     -39.626  53.249 -54.552  1.00  0.00    -0.347 OA
BRANCH  21  22
HETATM   22  C   UNL     1     -39.691  52.071 -53.862  1.00  0.00     0.069 A 
HETATM   23  C   UNL     1     -39.838  50.797 -54.421  1.00  0.00     0.040 A 
HETATM   24  C   UNL     1     -39.893  49.673 -53.590  1.00  0.00     0.045 A 
HETATM   25  C   UNL     1     -39.798  49.826 -52.212  1.00  0.00     0.116 A 
HETATM   26  F   UNL     1     -39.851  48.746 -51.423  1.00  0.00    -0.206 F 
HETATM   27  C   UNL     1     -39.647  51.084 -51.644  1.00  0.00     0.045 A 
HETATM   28  C   UNL     1     -39.593  52.205 -52.473  1.00  0.00     0.040 A 
ENDBRANCH  21  22
ENDBRANCH  20  21
ENDBRANCH  18  20
ENDBRANCH   8  14
BRANCH  12  29
HETATM   29  N   UNL     1     -41.325  55.155 -48.538  1.00  0.00    -0.282 NA
HETATM   30  H   UNL     1     -41.437  55.606 -47.633  1.00  0.00     0.126 HD
HETATM   31  H   UNL     1     -40.482  54.591 -48.601  1.00  0.00     0.126 HD
ENDBRANCH  12  29
TORSDOF 5
ENDMDL
MODEL 5
REMARK VINA RESULT:      -8.0      2.340      3.607
REMARK  5 active torsions:
REMARK  status: ('A' for Active; 'I' for Inactive)
REMARK    1  A    between atoms: C_8  and  C_9 
REMARK    2  A    between atoms: C_13  and  C_14 
REMARK    3  A    between atoms: C_14  and  O_15 
REMARK    4  A    between atoms: O_15  and  C_16 
REMARK    5  A    between atoms: C_27  and  N_28 
ROOT
HETATM    1  C   UNL     1     -47.460  57.793 -58.446  1.00  0.00     0.073 C 
HETATM    2  C   UNL     1     -46.377  57.130 -59.212  1.00  0.00     0.062 A 
HETATM    3  N   UNL     1     -46.659  56.122 -60.056  1.00  0.00    -0.177 NA
HETATM    4  N   UNL     1     -45.460  55.761 -60.557  1.00  0.00    -0.256 N 
HETATM    5  H   UNL     1     -45.418  55.001 -61.225  1.00  0.00     0.191 HD
HETATM    6  C   UNL     1     -44.442  56.521 -60.077  1.00  0.00     0.175 A 
HETATM    7  C   UNL     1     -44.991  57.408 -59.192  1.00  0.00     0.035 A 
HETATM    8  C   UNL     1     -44.131  58.388 -58.463  1.00  0.00     0.112 A 
HETATM    9  C   UNL     1     -42.684  58.276 -58.980  1.00  0.00     0.081 A 
HETATM   10  C   UNL     1     -41.759  59.242 -58.486  1.00  0.00     0.100 C 
HETATM   11  N   UNL     1     -41.003  60.041 -58.117  1.00  0.00    -0.191 NA
HETATM   12  C   UNL     1     -42.279  57.334 -59.877  1.00  0.00     0.140 A 
HETATM   13  O   UNL     1     -43.170  56.397 -60.429  1.00  0.00    -0.279 OA
ENDROOT
BRANCH   8  14
HETATM   14  C   UNL     1     -44.244  58.191 -56.962  1.00  0.00    -0.003 A 
HETATM   15  S   UNL     1     -44.852  59.444 -55.972  1.00  0.00    -0.098 SA
HETATM   16  C   UNL     1     -44.667  58.516 -54.548  1.00  0.00    -0.013 A 
HETATM   17  C   UNL     1     -45.068  59.095 -53.229  1.00  0.00     0.057 C 
HETATM   18  C   UNL     1     -44.134  57.263 -54.805  1.00  0.00    -0.020 A 
HETATM   19  C   UNL     1     -43.901  57.085 -56.209  1.00  0.00     0.026 A 
BRANCH  18  20
HETATM   20  C   UNL     1     -43.842  56.209 -53.771  1.00  0.00     0.215 C 
BRANCH  20  21
HETATM   21  O   UNL     1     -43.411  55.004 -54.407  1.00  0.00    -0.347 OA
BRANCH  21  22
HETATM   22  C   UNL     1     -42.414  54.297 -53.795  1.00  0.00     0.069 A 
HETATM   23  C   UNL     1     -42.079  54.351 -52.439  1.00  0.00     0.040 A 
HETATM   24  C   UNL     1     -41.028  53.570 -51.948  1.00  0.00     0.045 A 
HETATM   25  C   UNL     1     -40.322  52.739 -52.811  1.00  0.00     0.116 A 
HETATM   26  F   UNL     1     -39.317  51.994 -52.335  1.00  0.00    -0.206 F 
HETATM   27  C   UNL     1     -40.647  52.671 -54.159  1.00  0.00     0.045 A 
HETATM   28  C   UNL     1     -41.696  53.452 -54.648  1.00  0.00     0.040 A 
ENDBRANCH  21  22
ENDBRANCH  20  21
ENDBRANCH  18  20
ENDBRANCH   8  14
BRANCH  12  29
HETATM   29  N   UNL     1     -40.998  57.188 -60.358  1.00  0.00    -0.282 NA
HETATM   30  H   UNL     1     -40.326  57.886 -60.049  1.00  0.00     0.126 HD
HETATM   31  H   UNL     1     -40.980  57.035 -61.364  1.00  0.00     0.126 HD
ENDBRANCH  12  29
TORSDOF 5
ENDMDL
MODEL 6
REMARK VINA RESULT:      -7.9      2.738      4.058
REMARK  5 active torsions:
REMARK  status: ('A' for Active; 'I' for Inactive)
REMARK    1  A    between atoms: C_8  and  C_9 
REMARK    2  A    between atoms: C_13  and  C_14 
REMARK    3  A    between atoms: C_14  and  O_15 
REMARK    4  A    between atoms: O_15  and  C_16 
REMARK    5  A    between atoms: C_27  and  N_28 
ROOT
HETATM    1  C   UNL     1     -42.531  57.769 -56.108  1.00  0.00     0.073 C 
HETATM    2  C   UNL     1     -42.623  59.126 -55.516  1.00  0.00     0.062 A 
HETATM    3  N   UNL     1     -42.015  60.169 -56.108  1.00  0.00    -0.177 NA
HETATM    4  N   UNL     1     -42.294  61.217 -55.305  1.00  0.00    -0.256 N 
HETATM    5  H   UNL     1     -41.930  62.130 -55.549  1.00  0.00     0.191 HD
HETATM    6  C   UNL     1     -43.072  60.873 -54.248  1.00  0.00     0.175 A 
HETATM    7  C   UNL     1     -43.294  59.525 -54.338  1.00  0.00     0.035 A 
HETATM    8  C   UNL     1     -44.108  58.817 -53.306  1.00  0.00     0.112 A 
HETATM    9  C   UNL     1     -44.686  59.849 -52.318  1.00  0.00     0.081 A 
HETATM   10  C   UNL     1     -45.605  59.351 -51.348  1.00  0.00     0.100 C 
HETATM   11  N   UNL     1     -46.379  58.966 -50.574  1.00  0.00    -0.191 NA
HETATM   12  C   UNL     1     -44.375  61.174 -52.353  1.00  0.00     0.140 A 
HETATM   13  O   UNL     1     -43.516  61.715 -53.325  1.00  0.00    -0.279 OA
ENDROOT
BRANCH   8  14
HETATM   14  C   UNL     1     -43.291  57.734 -52.626  1.00  0.00    -0.003 A 
HETATM   15  S   UNL     1     -42.273  58.123 -51.308  1.00  0.00    -0.098 SA
HETATM   16  C   UNL     1     -41.751  56.505 -51.132  1.00  0.00    -0.013 A 
HETATM   17  C   UNL     1     -40.779  56.153 -50.053  1.00  0.00     0.057 C 
HETATM   18  C   UNL     1     -42.326  55.663 -52.071  1.00  0.00    -0.020 A 
HETATM   19  C   UNL     1     -43.223  56.388 -52.925  1.00  0.00     0.026 A 
BRANCH  18  20
HETATM   20  C   UNL     1     -42.073  54.185 -52.192  1.00  0.00     0.215 C 
BRANCH  20  21
HETATM   21  O   UNL     1     -40.829  53.952 -52.856  1.00  0.00    -0.347 OA
BRANCH  21  22
HETATM   22  C   UNL     1     -40.436  52.652 -53.008  1.00  0.00     0.069 A 
HETATM   23  C   UNL     1     -40.495  51.907 -54.189  1.00  0.00     0.040 A 
HETATM   24  C   UNL     1     -40.057  50.579 -54.199  1.00  0.00     0.045 A 
HETATM   25  C   UNL     1     -39.561  50.006 -53.034  1.00  0.00     0.116 A 
HETATM   26  F   UNL     1     -39.143  48.734 -53.051  1.00  0.00    -0.206 F 
HETATM   27  C   UNL     1     -39.492  50.735 -51.855  1.00  0.00     0.045 A 
HETATM   28  C   UNL     1     -39.929  52.060 -51.846  1.00  0.00     0.040 A 
ENDBRANCH  21  22
ENDBRANCH  20  21
ENDBRANCH  18  20
ENDBRANCH   8  14
BRANCH  12  29
HETATM   29  N   UNL     1     -44.856  62.130 -51.486  1.00  0.00    -0.282 NA
HETATM   30  H   UNL     1     -44.379  63.029 -51.509  1.00  0.00     0.126 HD
HETATM   31  H   UNL     1     -44.980  61.768 -50.544  1.00  0.00     0.126 HD
ENDBRANCH  12  29
TORSDOF 5
ENDMDL
MODEL 7
REMARK VINA RESULT:      -7.8      3.346      5.383
REMARK  5 active torsions:
REMARK  status: ('A' for Active; 'I' for Inactive)
REMARK    1  A    between atoms: C_8  and  C_9 
REMARK    2  A    between atoms: C_13  and  C_14 
REMARK    3  A    between atoms: C_14  and  O_15 
REMARK    4  A    between atoms: O_15  and  C_16 
REMARK    5  A    between atoms: C_27  and  N_28 
ROOT
HETATM    1  C   UNL     1     -39.735  58.795 -52.680  1.00  0.00     0.073 C 
HETATM    2  C   UNL     1     -40.798  59.225 -51.739  1.00  0.00     0.062 A 
HETATM    3  N   UNL     1     -40.568  59.241 -50.414  1.00  0.00    -0.177 NA
HETATM    4  N   UNL     1     -41.732  59.663 -49.879  1.00  0.00    -0.256 N 
HETATM    5  H   UNL     1     -41.804  59.751 -48.872  1.00  0.00     0.191 HD
HETATM    6  C   UNL     1     -42.673  59.933 -50.819  1.00  0.00     0.175 A 
HETATM    7  C   UNL     1     -42.114  59.648 -52.035  1.00  0.00     0.035 A 
HETATM    8  C   UNL     1     -42.899  59.820 -53.293  1.00  0.00     0.112 A 
HETATM    9  C   UNL     1     -44.265  60.449 -52.958  1.00  0.00     0.081 A 
HETATM   10  C   UNL     1     -45.085  60.811 -54.067  1.00  0.00     0.100 C 
HETATM   11  N   UNL     1     -45.749  61.140 -54.960  1.00  0.00    -0.191 NA
HETATM   12  C   UNL     1     -44.690  60.683 -51.685  1.00  0.00     0.140 A 
HETATM   13  O   UNL     1     -43.891  60.391 -50.566  1.00  0.00    -0.279 OA
ENDROOT
BRANCH   8  14
HETATM   14  C   UNL     1     -43.018  58.503 -54.038  1.00  0.00    -0.003 A 
HETATM   15  S   UNL     1     -42.673  58.426 -55.711  1.00  0.00    -0.098 SA
HETATM   16  C   UNL     1     -43.017  56.752 -55.785  1.00  0.00    -0.013 A 
HETATM   17  C   UNL     1     -42.881  56.024 -57.083  1.00  0.00     0.057 C 
HETATM   18  C   UNL     1     -43.408  56.243 -54.556  1.00  0.00    -0.020 A 
HETATM   19  C   UNL     1     -43.395  57.267 -53.551  1.00  0.00     0.026 A 
BRANCH  18  20
HETATM   20  C   UNL     1     -43.784  54.812 -54.283  1.00  0.00     0.215 C 
BRANCH  20  21
HETATM   21  O   UNL     1     -43.395  54.446 -52.958  1.00  0.00    -0.347 OA
BRANCH  21  22
HETATM   22  C   UNL     1     -42.231  53.743 -52.821  1.00  0.00     0.069 A 
HETATM   23  C   UNL     1     -41.500  53.151 -53.854  1.00  0.00     0.040 A 
HETATM   24  C   UNL     1     -40.320  52.456 -53.566  1.00  0.00     0.045 A 
HETATM   25  C   UNL     1     -39.878  52.361 -52.251  1.00  0.00     0.116 A 
HETATM   26  F   UNL     1     -38.748  51.695 -51.982  1.00  0.00    -0.206 F 
HETATM   27  C   UNL     1     -40.591  52.949 -51.216  1.00  0.00     0.045 A 
HETATM   28  C   UNL     1     -41.768  53.641 -51.504  1.00  0.00     0.040 A 
ENDBRANCH  21  22
ENDBRANCH  20  21
ENDBRANCH  18  20
ENDBRANCH   8  14
BRANCH  12  29
HETATM   29  N   UNL     1     -45.903  61.231 -51.336  1.00  0.00    -0.282 NA
HETATM   30  H   UNL     1     -46.069  61.342 -50.338  1.00  0.00     0.126 HD
HETATM   31  H   UNL     1     -46.680  60.789 -51.822  1.00  0.00     0.126 HD
ENDBRANCH  12  29
TORSDOF 5
ENDMDL
MODEL 8
REMARK VINA RESULT:      -7.7      2.508      3.307
REMARK  5 active torsions:
REMARK  status: ('A' for Active; 'I' for Inactive)
REMARK    1  A    between atoms: C_8  and  C_9 
REMARK    2  A    between atoms: C_13  and  C_14 
REMARK    3  A    between atoms: C_14  and  O_15 
REMARK    4  A    between atoms: O_15  and  C_16 
REMARK    5  A    between atoms: C_27  and  N_28 
ROOT
HETATM    1  C   UNL     1     -43.578  54.030 -55.008  1.00  0.00     0.073 C 
HETATM    2  C   UNL     1     -43.025  55.307 -55.521  1.00  0.00     0.062 A 
HETATM    3  N   UNL     1     -42.575  55.394 -56.785  1.00  0.00    -0.177 NA
HETATM    4  N   UNL     1     -42.143  56.667 -56.898  1.00  0.00    -0.256 N 
HETATM    5  H   UNL     1     -41.747  56.973 -57.779  1.00  0.00     0.191 HD
HETATM    6  C   UNL     1     -42.326  57.385 -55.760  1.00  0.00     0.175 A 
HETATM    7  C   UNL     1     -42.880  56.537 -54.839  1.00  0.00     0.035 A 
HETATM    8  C   UNL     1     -43.193  57.012 -53.459  1.00  0.00     0.112 A 
HETATM    9  C   UNL     1     -42.916  58.525 -53.366  1.00  0.00     0.081 A 
HETATM   10  C   UNL     1     -43.298  59.165 -52.151  1.00  0.00     0.100 C 
HETATM   11  N   UNL     1     -43.633  59.705 -51.180  1.00  0.00    -0.191 NA
HETATM   12  C   UNL     1     -42.359  59.247 -54.378  1.00  0.00     0.140 A 
HETATM   13  O   UNL     1     -42.017  58.665 -55.611  1.00  0.00    -0.279 OA
ENDROOT
BRANCH   8  14
HETATM   14  C   UNL     1     -42.431  56.203 -52.425  1.00  0.00    -0.003 A 
HETATM   15  S   UNL     1     -42.973  56.147 -50.805  1.00  0.00    -0.098 SA
HETATM   16  C   UNL     1     -41.687  55.127 -50.327  1.00  0.00    -0.013 A 
HETATM   17  C   UNL     1     -41.593  54.668 -48.908  1.00  0.00     0.057 C 
HETATM   18  C   UNL     1     -40.833  54.833 -51.379  1.00  0.00    -0.020 A 
HETATM   19  C   UNL     1     -41.281  55.456 -52.590  1.00  0.00     0.026 A 
BRANCH  18  20
HETATM   20  C   UNL     1     -39.604  53.969 -51.291  1.00  0.00     0.215 C 
BRANCH  20  21
HETATM   21  O   UNL     1     -39.969  52.627 -50.965  1.00  0.00    -0.347 OA
BRANCH  21  22
HETATM   22  C   UNL     1     -39.893  51.698 -51.965  1.00  0.00     0.069 A 
HETATM   23  C   UNL     1     -39.605  50.339 -51.806  1.00  0.00     0.040 A 
HETATM   24  C   UNL     1     -39.558  49.501 -52.925  1.00  0.00     0.045 A 
HETATM   25  C   UNL     1     -39.800  50.022 -54.191  1.00  0.00     0.116 A 
HETATM   26  F   UNL     1     -39.752  49.213 -55.257  1.00  0.00    -0.206 F 
HETATM   27  C   UNL     1     -40.091  51.368 -54.363  1.00  0.00     0.045 A 
HETATM   28  C   UNL     1     -40.138  52.204 -53.247  1.00  0.00     0.040 A 
ENDBRANCH  21  22
ENDBRANCH  20  21
ENDBRANCH  18  20
ENDBRANCH   8  14
BRANCH  12  29
HETATM   29  N   UNL     1     -42.082  60.595 -54.338  1.00  0.00    -0.282 NA
HETATM   30  H   UNL     1     -41.437  60.936 -55.047  1.00  0.00     0.126 HD
HETATM   31  H   UNL     1     -41.848  60.912 -53.400  1.00  0.00     0.126 HD
ENDBRANCH  12  29
TORSDOF 5
ENDMDL
MODEL 9
REMARK VINA RESULT:      -7.7      3.128      5.191
REMARK  5 active torsions:
REMARK  status: ('A' for Active; 'I' for Inactive)
REMARK    1  A    between atoms: C_8  and  C_9 
REMARK    2  A    between atoms: C_13  and  C_14 
REMARK    3  A    between atoms: C_14  and  O_15 
REMARK    4  A    between atoms: O_15  and  C_16 
REMARK    5  A    between atoms: C_27  and  N_28 
ROOT
HETATM    1  C   UNL     1     -40.416  58.551 -50.701  1.00  0.00     0.073 C 
HETATM    2  C   UNL     1     -41.461  59.526 -51.100  1.00  0.00     0.062 A 
HETATM    3  N   UNL     1     -42.146  60.209 -50.167  1.00  0.00    -0.177 NA
HETATM    4  N   UNL     1     -43.001  60.975 -50.876  1.00  0.00    -0.256 N 
HETATM    5  H   UNL     1     -43.638  61.585 -50.378  1.00  0.00     0.191 HD
HETATM    6  C   UNL     1     -42.861  60.814 -52.216  1.00  0.00     0.175 A 
HETATM    7  C   UNL     1     -41.884  59.872 -52.403  1.00  0.00     0.035 A 
HETATM    8  C   UNL     1     -41.494  59.444 -53.779  1.00  0.00     0.112 A 
HETATM    9  C   UNL     1     -42.249  60.302 -54.813  1.00  0.00     0.081 A 
HETATM   10  C   UNL     1     -41.885  60.116 -56.178  1.00  0.00     0.100 C 
HETATM   11  N   UNL     1     -41.575  59.998 -57.290  1.00  0.00    -0.191 NA
HETATM   12  C   UNL     1     -43.202  61.215 -54.475  1.00  0.00     0.140 A 
HETATM   13  O   UNL     1     -43.554  61.467 -53.137  1.00  0.00    -0.279 OA
ENDROOT
BRANCH   8  14
HETATM   14  C   UNL     1     -41.720  57.955 -53.964  1.00  0.00    -0.003 A 
HETATM   15  S   UNL     1     -43.277  57.361 -54.346  1.00  0.00    -0.098 SA
HETATM   16  C   UNL     1     -42.737  55.739 -54.377  1.00  0.00    -0.013 A 
HETATM   17  C   UNL     1     -43.702  54.642 -54.692  1.00  0.00     0.057 C 
HETATM   18  C   UNL     1     -41.386  55.631 -54.086  1.00  0.00    -0.020 A 
HETATM   19  C   UNL     1     -40.808  56.923 -53.857  1.00  0.00     0.026 A 
BRANCH  18  20
HETATM   20  C   UNL     1     -40.605  54.346 -54.026  1.00  0.00     0.215 C 
BRANCH  20  21
HETATM   21  O   UNL     1     -41.218  53.441 -53.106  1.00  0.00    -0.347 OA
BRANCH  21  22
HETATM   22  C   UNL     1     -41.212  53.792 -51.785  1.00  0.00     0.069 A 
HETATM   23  C   UNL     1     -42.311  54.240 -51.047  1.00  0.00     0.040 A 
HETATM   24  C   UNL     1     -42.157  54.568 -49.696  1.00  0.00     0.045 A 
HETATM   25  C   UNL     1     -40.912  54.444 -49.091  1.00  0.00     0.116 A 
HETATM   26  F   UNL     1     -40.772  54.760 -47.798  1.00  0.00    -0.206 F 
HETATM   27  C   UNL     1     -39.813  53.996 -49.811  1.00  0.00     0.045 A 
HETATM   28  C   UNL     1     -39.966  53.669 -51.159  1.00  0.00     0.040 A 
ENDBRANCH  21  22
ENDBRANCH  20  21
ENDBRANCH  18  20
ENDBRANCH   8  14
BRANCH  12  29
HETATM   29  N   UNL     1     -43.911  61.995 -55.361  1.00  0.00    -0.282 NA
HETATM   30  H   UNL     1     -44.626  62.592 -54.952  1.00  0.00     0.126 HD
HETATM   31  H   UNL     1     -44.245  61.462 -56.160  1.00  0.00     0.126 HD
ENDBRANCH  12  29
TORSDOF 5
ENDMDL
MODEL 10
REMARK VINA RESULT:      -7.6      2.235      3.781
REMARK  5 active torsions:
REMARK  status: ('A' for Active; 'I' for Inactive)
REMARK    1  A    between atoms: C_8  and  C_9 
REMARK    2  A    between atoms: C_13  and  C_14 
REMARK    3  A    between atoms: C_14  and  O_15 
REMARK    4  A    between atoms: O_15  and  C_16 
REMARK    5  A    between atoms: C_27  and  N_28 
ROOT
HETATM    1  C   UNL     1     -41.522  59.846 -58.293  1.00  0.00     0.073 C 
HETATM    2  C   UNL     1     -42.810  59.794 -59.028  1.00  0.00     0.062 A 
HETATM    3  N   UNL     1     -43.350  60.917 -59.532  1.00  0.00    -0.177 NA
HETATM    4  N   UNL     1     -44.498  60.503 -60.109  1.00  0.00    -0.256 N 
HETATM    5  H   UNL     1     -45.093  61.188 -60.560  1.00  0.00     0.191 HD
HETATM    6  C   UNL     1     -44.684  59.163 -60.004  1.00  0.00     0.175 A 
HETATM    7  C   UNL     1     -43.621  58.668 -59.297  1.00  0.00     0.035 A 
HETATM    8  C   UNL     1     -43.525  57.211 -58.986  1.00  0.00     0.112 A 
HETATM    9  C   UNL     1     -44.682  56.466 -59.680  1.00  0.00     0.081 A 
HETATM   10  C   UNL     1     -44.658  55.043 -59.598  1.00  0.00     0.100 C 
HETATM   11  N   UNL     1     -44.633  53.883 -59.568  1.00  0.00    -0.191 NA
HETATM   12  C   UNL     1     -45.678  57.098 -60.360  1.00  0.00     0.140 A 
HETATM   13  O   UNL     1     -45.711  58.496 -60.509  1.00  0.00    -0.279 OA
ENDROOT
BRANCH   8  14
HETATM   14  C   UNL     1     -43.485  56.983 -57.486  1.00  0.00    -0.003 A 
HETATM   15  S   UNL     1     -44.611  57.766 -56.465  1.00  0.00    -0.098 SA
HETATM   16  C   UNL     1     -43.951  57.052 -55.058  1.00  0.00    -0.013 A 
HETATM   17  C   UNL     1     -44.552  57.353 -53.723  1.00  0.00     0.057 C 
HETATM   18  C   UNL     1     -42.871  56.231 -55.345  1.00  0.00    -0.020 A 
HETATM   19  C   UNL     1     -42.618  56.194 -56.756  1.00  0.00     0.026 A 
BRANCH  18  20
HETATM   20  C   UNL     1     -42.066  55.462 -54.332  1.00  0.00     0.215 C 
BRANCH  20  21
HETATM   21  O   UNL     1     -41.485  54.308 -54.942  1.00  0.00    -0.347 OA
BRANCH  21  22
HETATM   22  C   UNL     1     -40.878  53.404 -54.116  1.00  0.00     0.069 A 
HETATM   23  C   UNL     1     -40.345  52.169 -54.497  1.00  0.00     0.040 A 
HETATM   24  C   UNL     1     -39.753  51.339 -53.540  1.00  0.00     0.045 A 
HETATM   25  C   UNL     1     -39.693  51.748 -52.213  1.00  0.00     0.116 A 
HETATM   26  F   UNL     1     -39.124  50.948 -51.302  1.00  0.00    -0.206 F 
HETATM   27  C   UNL     1     -40.214  52.973 -51.821  1.00  0.00     0.045 A 
HETATM   28  C   UNL     1     -40.806  53.800 -52.776  1.00  0.00     0.040 A 
ENDBRANCH  21  22
ENDBRANCH  20  21
ENDBRANCH  18  20
ENDBRANCH   8  14
BRANCH  12  29
HETATM   29  N   UNL     1     -46.737  56.478 -60.985  1.00  0.00    -0.282 NA
HETATM   30  H   UNL     1     -46.634  55.478 -61.144  1.00  0.00     0.126 HD
HETATM   31  H   UNL     1     -47.045  56.983 -61.812  1.00  0.00     0.126 HD
ENDBRANCH  12  29
TORSDOF 5
ENDMDL
