MODEL 1
REMARK VINA RESULT:      -8.9      0.000      0.000
REMARK  6 active torsions:
REMARK  status: ('A' for Active; 'I' for Inactive)
REMARK    1  A    between atoms: C_4  and  C_5 
REMARK    2  A    between atoms: C_5  and  O_6 
REMARK    3  A    between atoms: O_6  and  C_7 
REMARK    4  A    between atoms: C_10  and  C_11 
REMARK    5  A    between atoms: C_17  and  C_18 
REMARK    6  A    between atoms: C_26  and  N_27 
ROOT
HETATM    1  C   UNL     1     -43.774  57.539 -51.412  1.00  0.00     0.072 A 
HETATM    2  N   UNL     1     -44.883  57.979 -50.718  1.00  0.00    -0.274 N 
HETATM    3  H   UNL     1     -45.268  57.596 -49.863  1.00  0.00     0.189 HD
HETATM    4  N   UNL     1     -45.501  59.037 -51.282  1.00  0.00    -0.148 NA
HETATM    5  C   UNL     1     -44.744  59.275 -52.344  1.00  0.00     0.199 A 
HETATM    6  C   UNL     1     -43.664  58.405 -52.487  1.00  0.00     0.040 A 
HETATM    7  C   UNL     1     -42.737  58.513 -53.649  1.00  0.00     0.108 A 
HETATM    8  C   UNL     1     -43.130  59.697 -54.535  1.00  0.00     0.081 A 
HETATM    9  C   UNL     1     -42.261  59.995 -55.628  1.00  0.00     0.100 C 
HETATM   10  N   UNL     1     -41.552  60.232 -56.515  1.00  0.00    -0.191 NA
HETATM   11  C   UNL     1     -44.214  60.480 -54.291  1.00  0.00     0.140 A 
HETATM   12  O   UNL     1     -45.060  60.267 -53.194  1.00  0.00    -0.277 OA
ENDROOT
BRANCH   7  13
HETATM   13  C   UNL     1     -42.671  57.227 -54.431  1.00  0.00    -0.020 A 
HETATM   14  C   UNL     1     -43.663  56.639 -55.194  1.00  0.00     0.149 A 
HETATM   15  O   UNL     1     -43.230  55.478 -55.743  1.00  0.00    -0.334 OA
HETATM   16  C   UNL     1     -41.947  55.304 -55.340  1.00  0.00     0.142 A 
HETATM   17  C   UNL     1     -41.552  56.347 -54.536  1.00  0.00     0.034 A 
ENDBRANCH   7  13
BRANCH  11  18
HETATM   18  N   UNL     1     -44.607  61.556 -55.059  1.00  0.00    -0.282 NA
HETATM   19  H   UNL     1     -44.095  62.421 -54.904  1.00  0.00     0.126 HD
HETATM   20  H   UNL     1     -44.684  61.310 -56.045  1.00  0.00     0.126 HD
ENDBRANCH  11  18
BRANCH   1  21
HETATM   21  C   UNL     1     -43.003  56.365 -51.026  1.00  0.00    -0.007 A 
HETATM   22  C   UNL     1     -43.536  55.083 -51.198  1.00  0.00     0.016 A 
HETATM   23  C   UNL     1     -42.774  53.946 -50.904  1.00  0.00     0.037 A 
HETATM   24  C   UNL     1     -41.466  54.083 -50.443  1.00  0.00     0.069 A 
HETATM   25  C   UNL     1     -40.945  55.360 -50.231  1.00  0.00     0.037 A 
HETATM   26  C   UNL     1     -41.705  56.496 -50.525  1.00  0.00     0.016 A 
BRANCH  24  27
HETATM   27  O   UNL     1     -40.611  53.053 -50.161  1.00  0.00    -0.347 OA
BRANCH  27  28
HETATM   28  C   UNL     1     -39.470  52.930 -51.014  1.00  0.00     0.214 C 
BRANCH  28  29
HETATM   29  C   UNL     1     -39.734  51.923 -52.110  1.00  0.00    -0.034 A 
HETATM   30  C   UNL     1     -40.172  52.357 -53.371  1.00  0.00     0.009 A 
HETATM   31  C   UNL     1     -40.361  51.446 -54.411  1.00  0.00     0.001 A 
HETATM   32  C   UNL     1     -40.105  50.091 -54.207  1.00  0.00     0.000 A 
HETATM   33  C   UNL     1     -39.658  49.648 -52.965  1.00  0.00     0.001 A 
HETATM   34  C   UNL     1     -39.467  50.558 -51.924  1.00  0.00     0.009 A 
ENDBRANCH  28  29
ENDBRANCH  27  28
ENDBRANCH  24  27
ENDBRANCH   1  21
TORSDOF 6
ENDMDL
MODEL 2
REMARK VINA RESULT:      -8.5      3.333      5.246
REMARK  6 active torsions:
REMARK  status: ('A' for Active; 'I' for Inactive)
REMARK    1  A    between atoms: C_4  and  C_5 
REMARK    2  A    between atoms: C_5  and  O_6 
REMARK    3  A    between atoms: O_6  and  C_7 
REMARK    4  A    between atoms: C_10  and  C_11 
REMARK    5  A    between atoms: C_17  and  C_18 
REMARK    6  A    between atoms: C_26  and  N_27 
ROOT
HETATM    1  C   UNL     1     -43.027  56.266 -58.039  1.00  0.00     0.072 A 
HETATM    2  N   UNL     1     -42.193  56.034 -59.114  1.00  0.00    -0.274 N 
HETATM    3  H   UNL     1     -41.368  55.444 -59.139  1.00  0.00     0.189 HD
HETATM    4  N   UNL     1     -42.543  56.693 -60.237  1.00  0.00    -0.148 NA
HETATM    5  C   UNL     1     -43.638  57.337 -59.857  1.00  0.00     0.199 A 
HETATM    6  C   UNL     1     -44.001  57.120 -58.528  1.00  0.00     0.040 A 
HETATM    7  C   UNL     1     -45.187  57.799 -57.933  1.00  0.00     0.108 A 
HETATM    8  C   UNL     1     -45.896  58.651 -58.988  1.00  0.00     0.081 A 
HETATM    9  C   UNL     1     -47.119  59.272 -58.592  1.00  0.00     0.100 C 
HETATM   10  N   UNL     1     -48.112  59.776 -58.265  1.00  0.00    -0.191 NA
HETATM   11  C   UNL     1     -45.443  58.785 -60.263  1.00  0.00     0.140 A 
HETATM   12  O   UNL     1     -44.284  58.143 -60.717  1.00  0.00    -0.277 OA
ENDROOT
BRANCH   7  13
HETATM   13  C   UNL     1     -44.814  58.610 -56.719  1.00  0.00    -0.020 A 
HETATM   14  C   UNL     1     -43.987  59.715 -56.651  1.00  0.00     0.149 A 
HETATM   15  O   UNL     1     -43.887  60.170 -55.378  1.00  0.00    -0.334 OA
HETATM   16  C   UNL     1     -44.654  59.359 -54.607  1.00  0.00     0.142 A 
HETATM   17  C   UNL     1     -45.247  58.387 -55.377  1.00  0.00     0.034 A 
ENDBRANCH   7  13
BRANCH  11  18
HETATM   18  N   UNL     1     -46.048  59.539 -61.246  1.00  0.00    -0.282 NA
HETATM   19  H   UNL     1     -46.042  59.136 -62.180  1.00  0.00     0.126 HD
HETATM   20  H   UNL     1     -46.970  59.867 -60.960  1.00  0.00     0.126 HD
ENDBRANCH  11  18
BRANCH   1  21
HETATM   21  C   UNL     1     -42.791  55.720 -56.710  1.00  0.00    -0.007 A 
HETATM   22  C   UNL     1     -43.314  54.470 -56.357  1.00  0.00     0.016 A 
HETATM   23  C   UNL     1     -43.029  53.901 -55.111  1.00  0.00     0.037 A 
HETATM   24  C   UNL     1     -42.209  54.576 -54.207  1.00  0.00     0.069 A 
HETATM   25  C   UNL     1     -41.720  55.840 -54.538  1.00  0.00     0.037 A 
HETATM   26  C   UNL     1     -42.003  56.408 -55.784  1.00  0.00     0.016 A 
BRANCH  24  27
HETATM   27  O   UNL     1     -41.827  54.109 -52.980  1.00  0.00    -0.347 OA
BRANCH  27  28
HETATM   28  C   UNL     1     -40.433  53.828 -52.819  1.00  0.00     0.214 C 
BRANCH  28  29
HETATM   29  C   UNL     1     -40.186  52.337 -52.860  1.00  0.00    -0.034 A 
HETATM   30  C   UNL     1     -40.252  51.649 -54.082  1.00  0.00     0.009 A 
HETATM   31  C   UNL     1     -39.964  50.284 -54.146  1.00  0.00     0.001 A 
HETATM   32  C   UNL     1     -39.598  49.593 -52.992  1.00  0.00     0.000 A 
HETATM   33  C   UNL     1     -39.517  50.266 -51.775  1.00  0.00     0.001 A 
HETATM   34  C   UNL     1     -39.802  51.631 -51.710  1.00  0.00     0.009 A 
ENDBRANCH  28  29
ENDBRANCH  27  28
ENDBRANCH  24  27
ENDBRANCH   1  21
TORSDOF 6
ENDMDL
MODEL 3
REMARK VINA RESULT:      -8.5      2.118      2.913
REMARK  6 active torsions:
REMARK  status: ('A' for Active; 'I' for Inactive)
REMARK    1  A    between atoms: C_4  and  C_5 
REMARK    2  A    between atoms: C_5  and  O_6 
REMARK    3  A    between atoms: O_6  and  C_7 
REMARK    4  A    between atoms: C_10  and  C_11 
REMARK    5  A    between atoms: C_17  and  C_18 
REMARK    6  A    between atoms: C_26  and  N_27 
ROOT
HETATM    1  C   UNL     1     -44.335  57.117 -53.597  1.00  0.00     0.072 A 
HETATM    2  N   UNL     1     -45.146  56.829 -54.675  1.00  0.00    -0.274 N 
HETATM    3  H   UNL     1     -45.383  55.914 -55.042  1.00  0.00     0.189 HD
HETATM    4  N   UNL     1     -45.655  57.917 -55.289  1.00  0.00    -0.148 NA
HETATM    5  C   UNL     1     -45.164  58.909 -54.559  1.00  0.00     0.199 A 
HETATM    6  C   UNL     1     -44.353  58.498 -53.501  1.00  0.00     0.040 A 
HETATM    7  C   UNL     1     -43.693  59.491 -52.607  1.00  0.00     0.108 A 
HETATM    8  C   UNL     1     -44.096  60.913 -53.003  1.00  0.00     0.081 A 
HETATM    9  C   UNL     1     -43.629  61.968 -52.161  1.00  0.00     0.100 C 
HETATM   10  N   UNL     1     -43.247  62.822 -51.475  1.00  0.00    -0.191 NA
HETATM   11  C   UNL     1     -44.900  61.191 -54.063  1.00  0.00     0.140 A 
HETATM   12  O   UNL     1     -45.436  60.185 -54.880  1.00  0.00    -0.277 OA
ENDROOT
BRANCH   7  13
HETATM   13  C   UNL     1     -42.196  59.318 -52.591  1.00  0.00    -0.020 A 
HETATM   14  C   UNL     1     -41.325  59.316 -53.665  1.00  0.00     0.149 A 
HETATM   15  O   UNL     1     -40.047  59.124 -53.253  1.00  0.00    -0.334 OA
HETATM   16  C   UNL     1     -40.081  59.002 -51.903  1.00  0.00     0.142 A 
HETATM   17  C   UNL     1     -41.372  59.115 -51.443  1.00  0.00     0.034 A 
ENDBRANCH   7  13
BRANCH  11  18
HETATM   18  N   UNL     1     -45.290  62.453 -54.457  1.00  0.00    -0.282 NA
HETATM   19  H   UNL     1     -45.457  63.119 -53.706  1.00  0.00     0.126 HD
HETATM   20  H   UNL     1     -44.690  62.824 -55.192  1.00  0.00     0.126 HD
ENDBRANCH  11  18
BRANCH   1  21
HETATM   21  C   UNL     1     -43.620  56.100 -52.838  1.00  0.00    -0.007 A 
HETATM   22  C   UNL     1     -42.975  55.049 -53.500  1.00  0.00     0.016 A 
HETATM   23  C   UNL     1     -42.220  54.111 -52.787  1.00  0.00     0.037 A 
HETATM   24  C   UNL     1     -42.096  54.221 -51.403  1.00  0.00     0.069 A 
HETATM   25  C   UNL     1     -42.772  55.243 -50.735  1.00  0.00     0.037 A 
HETATM   26  C   UNL     1     -43.525  56.181 -51.446  1.00  0.00     0.016 A 
BRANCH  24  27
HETATM   27  O   UNL     1     -41.357  53.394 -50.603  1.00  0.00    -0.347 OA
BRANCH  27  28
HETATM   28  C   UNL     1     -39.984  53.226 -50.969  1.00  0.00     0.214 C 
BRANCH  28  29
HETATM   29  C   UNL     1     -39.782  51.903 -51.673  1.00  0.00    -0.034 A 
HETATM   30  C   UNL     1     -39.780  50.709 -50.935  1.00  0.00     0.009 A 
HETATM   31  C   UNL     1     -39.658  49.476 -51.578  1.00  0.00     0.001 A 
HETATM   32  C   UNL     1     -39.545  49.420 -52.966  1.00  0.00     0.000 A 
HETATM   33  C   UNL     1     -39.557  50.597 -53.711  1.00  0.00     0.001 A 
HETATM   34  C   UNL     1     -39.682  51.831 -53.070  1.00  0.00     0.009 A 
ENDBRANCH  28  29
ENDBRANCH  27  28
ENDBRANCH  24  27
ENDBRANCH   1  21
TORSDOF 6
ENDMDL
MODEL 4
REMARK VINA RESULT:      -8.4      2.323      3.877
REMARK  6 active torsions:
REMARK  status: ('A' for Active; 'I' for Inactive)
REMARK    1  A    between atoms: C_4  and  C_5 
REMARK    2  A    between atoms: C_5  and  O_6 
REMARK    3  A    between atoms: O_6  and  C_7 
REMARK    4  A    between atoms: C_10  and  C_11 
REMARK    5  A    between atoms: C_17  and  C_18 
REMARK    6  A    between atoms: C_26  and  N_27 
ROOT
HETATM    1  C   UNL     1     -43.303  56.154 -56.050  1.00  0.00     0.072 A 
HETATM    2  N   UNL     1     -43.241  55.612 -57.318  1.00  0.00    -0.274 N 
HETATM    3  H   UNL     1     -42.859  54.712 -57.586  1.00  0.00     0.189 HD
HETATM    4  N   UNL     1     -43.747  56.407 -58.283  1.00  0.00    -0.148 NA
HETATM    5  C   UNL     1     -44.155  57.464 -57.594  1.00  0.00     0.199 A 
HETATM    6  C   UNL     1     -43.924  57.380 -56.221  1.00  0.00     0.040 A 
HETATM    7  C   UNL     1     -44.289  58.501 -55.309  1.00  0.00     0.108 A 
HETATM    8  C   UNL     1     -44.963  59.628 -56.095  1.00  0.00     0.081 A 
HETATM    9  C   UNL     1     -45.473  60.723 -55.334  1.00  0.00     0.100 C 
HETATM   10  N   UNL     1     -45.885  61.610 -54.711  1.00  0.00    -0.191 NA
HETATM   11  C   UNL     1     -45.134  59.595 -57.443  1.00  0.00     0.140 A 
HETATM   12  O   UNL     1     -44.709  58.513 -58.226  1.00  0.00    -0.277 OA
ENDROOT
BRANCH   7  13
HETATM   13  C   UNL     1     -43.099  58.997 -54.531  1.00  0.00    -0.020 A 
HETATM   14  C   UNL     1     -41.922  59.532 -55.019  1.00  0.00     0.149 A 
HETATM   15  O   UNL     1     -41.079  59.859 -54.008  1.00  0.00    -0.334 OA
HETATM   16  C   UNL     1     -41.709  59.537 -52.850  1.00  0.00     0.142 A 
HETATM   17  C   UNL     1     -42.950  59.007 -53.111  1.00  0.00     0.034 A 
ENDBRANCH   7  13
BRANCH  11  18
HETATM   18  N   UNL     1     -45.735  60.584 -58.193  1.00  0.00    -0.282 NA
HETATM   19  H   UNL     1     -46.693  60.400 -58.483  1.00  0.00     0.126 HD
HETATM   20  H   UNL     1     -45.616  61.504 -57.772  1.00  0.00     0.126 HD
ENDBRANCH  11  18
BRANCH   1  21
HETATM   21  C   UNL     1     -42.744  55.504 -54.873  1.00  0.00    -0.007 A 
HETATM   22  C   UNL     1     -41.421  55.753 -54.490  1.00  0.00     0.016 A 
HETATM   23  C   UNL     1     -40.900  55.195 -53.317  1.00  0.00     0.037 A 
HETATM   24  C   UNL     1     -41.701  54.387 -52.512  1.00  0.00     0.069 A 
HETATM   25  C   UNL     1     -43.007  54.102 -52.912  1.00  0.00     0.037 A 
HETATM   26  C   UNL     1     -43.529  54.660 -54.082  1.00  0.00     0.016 A 
BRANCH  24  27
HETATM   27  O   UNL     1     -41.320  53.818 -51.327  1.00  0.00    -0.347 OA
BRANCH  27  28
HETATM   28  C   UNL     1     -39.953  53.406 -51.238  1.00  0.00     0.214 C 
BRANCH  28  29
HETATM   29  C   UNL     1     -39.786  52.004 -51.779  1.00  0.00    -0.034 A 
HETATM   30  C   UNL     1     -39.784  50.910 -50.900  1.00  0.00     0.009 A 
HETATM   31  C   UNL     1     -39.694  49.605 -51.389  1.00  0.00     0.001 A 
HETATM   32  C   UNL     1     -39.615  49.378 -52.762  1.00  0.00     0.000 A 
HETATM   33  C   UNL     1     -39.628  50.454 -53.646  1.00  0.00     0.001 A 
HETATM   34  C   UNL     1     -39.720  51.759 -53.158  1.00  0.00     0.009 A 
ENDBRANCH  28  29
ENDBRANCH  27  28
ENDBRANCH  24  27
ENDBRANCH   1  21
TORSDOF 6
ENDMDL
MODEL 5
REMARK VINA RESULT:      -8.2      2.009      3.977
REMARK  6 active torsions:
REMARK  status: ('A' for Active; 'I' for Inactive)
REMARK    1  A    between atoms: C_4  and  C_5 
REMARK    2  A    between atoms: C_5  and  O_6 
REMARK    3  A    between atoms: O_6  and  C_7 
REMARK    4  A    between atoms: C_10  and  C_11 
REMARK    5  A    between atoms: C_17  and  C_18 
REMARK    6  A    between atoms: C_26  and  N_27 
ROOT
HETATM    1  C   UNL     1     -43.562  57.469 -54.919  1.00  0.00     0.072 A 
HETATM    2  N   UNL     1     -43.838  58.090 -56.120  1.00  0.00    -0.274 N 
HETATM    3  H   UNL     1     -43.502  57.830 -57.040  1.00  0.00     0.189 HD
HETATM    4  N   UNL     1     -44.644  59.167 -56.011  1.00  0.00    -0.148 NA
HETATM    5  C   UNL     1     -44.892  59.204 -54.710  1.00  0.00     0.199 A 
HETATM    6  C   UNL     1     -44.272  58.194 -53.976  1.00  0.00     0.040 A 
HETATM    7  C   UNL     1     -44.419  58.116 -52.495  1.00  0.00     0.108 A 
HETATM    8  C   UNL     1     -45.351  59.223 -51.995  1.00  0.00     0.081 A 
HETATM    9  C   UNL     1     -45.679  59.204 -50.605  1.00  0.00     0.100 C 
HETATM   10  N   UNL     1     -45.941  59.185 -49.475  1.00  0.00    -0.191 NA
HETATM   11  C   UNL     1     -45.901  60.158 -52.814  1.00  0.00     0.140 A 
HETATM   12  O   UNL     1     -45.661  60.179 -54.194  1.00  0.00    -0.277 OA
ENDROOT
BRANCH   7  13
HETATM   13  C   UNL     1     -43.084  58.154 -51.799  1.00  0.00    -0.020 A 
HETATM   14  C   UNL     1     -42.188  59.204 -51.726  1.00  0.00     0.149 A 
HETATM   15  O   UNL     1     -41.087  58.855 -51.015  1.00  0.00    -0.334 OA
HETATM   16  C   UNL     1     -41.263  57.570 -50.619  1.00  0.00     0.142 A 
HETATM   17  C   UNL     1     -42.470  57.091 -51.070  1.00  0.00     0.034 A 
ENDBRANCH   7  13
BRANCH  11  18
HETATM   18  N   UNL     1     -46.745  61.171 -52.410  1.00  0.00    -0.282 NA
HETATM   19  H   UNL     1     -46.293  61.995 -52.021  1.00  0.00     0.126 HD
HETATM   20  H   UNL     1     -47.437  61.395 -53.123  1.00  0.00     0.126 HD
ENDBRANCH  11  18
BRANCH   1  21
HETATM   21  C   UNL     1     -42.654  56.338 -54.793  1.00  0.00    -0.007 A 
HETATM   22  C   UNL     1     -43.128  55.030 -54.951  1.00  0.00     0.016 A 
HETATM   23  C   UNL     1     -42.250  53.941 -54.909  1.00  0.00     0.037 A 
HETATM   24  C   UNL     1     -40.886  54.151 -54.716  1.00  0.00     0.069 A 
HETATM   25  C   UNL     1     -40.415  55.449 -54.516  1.00  0.00     0.037 A 
HETATM   26  C   UNL     1     -41.291  56.538 -54.559  1.00  0.00     0.016 A 
BRANCH  24  27
HETATM   27  O   UNL     1     -39.927  53.176 -54.696  1.00  0.00    -0.347 OA
BRANCH  27  28
HETATM   28  C   UNL     1     -40.402  51.827 -54.659  1.00  0.00     0.214 C 
BRANCH  28  29
HETATM   29  C   UNL     1     -40.047  51.177 -53.341  1.00  0.00    -0.034 A 
HETATM   30  C   UNL     1     -40.038  51.940 -52.163  1.00  0.00     0.009 A 
HETATM   31  C   UNL     1     -39.775  51.341 -50.930  1.00  0.00     0.001 A 
HETATM   32  C   UNL     1     -39.526  49.971 -50.858  1.00  0.00     0.000 A 
HETATM   33  C   UNL     1     -39.544  49.200 -52.018  1.00  0.00     0.001 A 
HETATM   34  C   UNL     1     -39.810  49.797 -53.251  1.00  0.00     0.009 A 
ENDBRANCH  28  29
ENDBRANCH  27  28
ENDBRANCH  24  27
ENDBRANCH   1  21
TORSDOF 6
ENDMDL
MODEL 6
REMARK VINA RESULT:      -7.8     16.257     18.916
REMARK  6 active torsions:
REMARK  status: ('A' for Active; 'I' for Inactive)
REMARK    1  A    between atoms: C_4  and  C_5 
REMARK    2  A    between atoms: C_5  and  O_6 
REMARK    3  A    between atoms: O_6  and  C_7 
REMARK    4  A    between atoms: C_10  and  C_11 
REMARK    5  A    between atoms: C_17  and  C_18 
REMARK    6  A    between atoms: C_26  and  N_27 
ROOT
HETATM    1  C   UNL     1     -35.235  41.644 -53.510  1.00  0.00     0.072 A 
HETATM    2  N   UNL     1     -35.378  42.649 -52.575  1.00  0.00    -0.274 N 
HETATM    3  H   UNL     1     -35.972  43.468 -52.635  1.00  0.00     0.189 HD
HETATM    4  N   UNL     1     -34.613  42.491 -51.475  1.00  0.00    -0.148 NA
HETATM    5  C   UNL     1     -33.994  41.345 -51.723  1.00  0.00     0.199 A 
HETATM    6  C   UNL     1     -34.328  40.763 -52.945  1.00  0.00     0.040 A 
HETATM    7  C   UNL     1     -33.693  39.492 -53.391  1.00  0.00     0.108 A 
HETATM    8  C   UNL     1     -32.739  38.968 -52.315  1.00  0.00     0.081 A 
HETATM    9  C   UNL     1     -32.142  37.693 -52.555  1.00  0.00     0.100 C 
HETATM   10  N   UNL     1     -31.659  36.658 -52.755  1.00  0.00    -0.191 NA
HETATM   11  C   UNL     1     -32.493  39.630 -51.154  1.00  0.00     0.140 A 
HETATM   12  O   UNL     1     -33.105  40.852 -50.844  1.00  0.00    -0.277 OA
ENDROOT
BRANCH   7  13
HETATM   13  C   UNL     1     -33.002  39.650 -54.721  1.00  0.00    -0.020 A 
HETATM   14  C   UNL     1     -31.876  40.396 -55.015  1.00  0.00     0.149 A 
HETATM   15  O   UNL     1     -31.557  40.297 -56.329  1.00  0.00    -0.334 OA
HETATM   16  C   UNL     1     -32.478  39.481 -56.899  1.00  0.00     0.142 A 
HETATM   17  C   UNL     1     -33.386  39.053 -55.959  1.00  0.00     0.034 A 
ENDBRANCH   7  13
BRANCH  11  18
HETATM   18  N   UNL     1     -31.644  39.197 -50.156  1.00  0.00    -0.282 NA
HETATM   19  H   UNL     1     -31.664  38.200 -49.960  1.00  0.00     0.126 HD
HETATM   20  H   UNL     1     -30.700  39.560 -50.278  1.00  0.00     0.126 HD
ENDBRANCH  11  18
BRANCH   1  21
HETATM   21  C   UNL     1     -35.905  41.653 -54.803  1.00  0.00    -0.007 A 
HETATM   22  C   UNL     1     -35.263  42.187 -55.927  1.00  0.00     0.016 A 
HETATM   23  C   UNL     1     -35.865  42.129 -57.189  1.00  0.00     0.037 A 
HETATM   24  C   UNL     1     -37.115  41.529 -57.340  1.00  0.00     0.069 A 
HETATM   25  C   UNL     1     -37.776  41.033 -56.215  1.00  0.00     0.037 A 
HETATM   26  C   UNL     1     -37.175  41.089 -54.954  1.00  0.00     0.016 A 
BRANCH  24  27
HETATM   27  O   UNL     1     -37.785  41.376 -58.522  1.00  0.00    -0.347 OA
BRANCH  27  28
HETATM   28  C   UNL     1     -37.028  40.839 -59.610  1.00  0.00     0.214 C 
BRANCH  28  29
HETATM   29  C   UNL     1     -37.759  39.676 -60.241  1.00  0.00    -0.034 A 
HETATM   30  C   UNL     1     -38.738  38.984 -59.509  1.00  0.00     0.009 A 
HETATM   31  C   UNL     1     -39.466  37.948 -60.098  1.00  0.00     0.001 A 
HETATM   32  C   UNL     1     -39.231  37.597 -61.426  1.00  0.00     0.000 A 
HETATM   33  C   UNL     1     -38.271  38.284 -62.167  1.00  0.00     0.001 A 
HETATM   34  C   UNL     1     -37.545  39.321 -61.580  1.00  0.00     0.009 A 
ENDBRANCH  28  29
ENDBRANCH  27  28
ENDBRANCH  24  27
ENDBRANCH   1  21
TORSDOF 6
ENDMDL
MODEL 7
REMARK VINA RESULT:      -7.7      1.978      2.640
REMARK  6 active torsions:
REMARK  status: ('A' for Active; 'I' for Inactive)
REMARK    1  A    between atoms: C_4  and  C_5 
REMARK    2  A    between atoms: C_5  and  O_6 
REMARK    3  A    between atoms: O_6  and  C_7 
REMARK    4  A    between atoms: C_10  and  C_11 
REMARK    5  A    between atoms: C_17  and  C_18 
REMARK    6  A    between atoms: C_26  and  N_27 
ROOT
HETATM    1  C   UNL     1     -44.275  58.300 -51.270  1.00  0.00     0.072 A 
HETATM    2  N   UNL     1     -45.424  58.039 -50.554  1.00  0.00    -0.274 N 
HETATM    3  H   UNL     1     -45.710  57.156 -50.145  1.00  0.00     0.189 HD
HETATM    4  N   UNL     1     -46.239  59.105 -50.411  1.00  0.00    -0.148 NA
HETATM    5  C   UNL     1     -45.567  60.061 -51.038  1.00  0.00     0.199 A 
HETATM    6  C   UNL     1     -44.353  59.647 -51.584  1.00  0.00     0.040 A 
HETATM    7  C   UNL     1     -43.494  60.590 -52.354  1.00  0.00     0.108 A 
HETATM    8  C   UNL     1     -44.118  61.987 -52.369  1.00  0.00     0.081 A 
HETATM    9  C   UNL     1     -43.349  63.026 -52.975  1.00  0.00     0.100 C 
HETATM   10  N   UNL     1     -42.719  63.866 -53.469  1.00  0.00    -0.191 NA
HETATM   11  C   UNL     1     -45.318  62.271 -51.797  1.00  0.00     0.140 A 
HETATM   12  O   UNL     1     -46.081  61.299 -51.135  1.00  0.00    -0.277 OA
ENDROOT
BRANCH   7  13
HETATM   13  C   UNL     1     -43.220  60.085 -53.747  1.00  0.00    -0.020 A 
HETATM   14  C   UNL     1     -44.130  59.812 -54.751  1.00  0.00     0.149 A 
HETATM   15  O   UNL     1     -43.503  59.366 -55.868  1.00  0.00    -0.334 OA
HETATM   16  C   UNL     1     -42.175  59.347 -55.594  1.00  0.00     0.142 A 
HETATM   17  C   UNL     1     -41.944  59.780 -54.310  1.00  0.00     0.034 A 
ENDBRANCH   7  13
BRANCH  11  18
HETATM   18  N   UNL     1     -45.920  63.512 -51.785  1.00  0.00    -0.282 NA
HETATM   19  H   UNL     1     -45.562  64.184 -52.460  1.00  0.00     0.126 HD
HETATM   20  H   UNL     1     -46.936  63.441 -51.793  1.00  0.00     0.126 HD
ENDBRANCH  11  18
BRANCH   1  21
HETATM   21  C   UNL     1     -43.295  57.278 -51.611  1.00  0.00    -0.007 A 
HETATM   22  C   UNL     1     -43.616  56.268 -52.525  1.00  0.00     0.016 A 
HETATM   23  C   UNL     1     -42.657  55.328 -52.918  1.00  0.00     0.037 A 
HETATM   24  C   UNL     1     -41.362  55.395 -52.406  1.00  0.00     0.069 A 
HETATM   25  C   UNL     1     -41.049  56.375 -51.463  1.00  0.00     0.037 A 
HETATM   26  C   UNL     1     -42.006  57.315 -51.070  1.00  0.00     0.016 A 
BRANCH  24  27
HETATM   27  O   UNL     1     -40.331  54.562 -52.741  1.00  0.00    -0.347 OA
BRANCH  27  28
HETATM   28  C   UNL     1     -40.575  53.664 -53.828  1.00  0.00     0.214 C 
BRANCH  28  29
HETATM   29  C   UNL     1     -40.261  52.242 -53.420  1.00  0.00    -0.034 A 
HETATM   30  C   UNL     1     -40.269  51.219 -54.382  1.00  0.00     0.009 A 
HETATM   31  C   UNL     1     -39.920  49.913 -54.033  1.00  0.00     0.001 A 
HETATM   32  C   UNL     1     -39.551  49.615 -52.723  1.00  0.00     0.000 A 
HETATM   33  C   UNL     1     -39.528  50.622 -51.761  1.00  0.00     0.001 A 
HETATM   34  C   UNL     1     -39.874  51.929 -52.109  1.00  0.00     0.009 A 
ENDBRANCH  28  29
ENDBRANCH  27  28
ENDBRANCH  24  27
ENDBRANCH   1  21
TORSDOF 6
ENDMDL
MODEL 8
REMARK VINA RESULT:      -7.7      3.235      8.073
REMARK  6 active torsions:
REMARK  status: ('A' for Active; 'I' for Inactive)
REMARK    1  A    between atoms: C_4  and  C_5 
REMARK    2  A    between atoms: C_5  and  O_6 
REMARK    3  A    between atoms: O_6  and  C_7 
REMARK    4  A    between atoms: C_10  and  C_11 
REMARK    5  A    between atoms: C_17  and  C_18 
REMARK    6  A    between atoms: C_26  and  N_27 
ROOT
HETATM    1  C   UNL     1     -40.688  54.730 -53.999  1.00  0.00     0.072 A 
HETATM    2  N   UNL     1     -40.368  53.820 -54.986  1.00  0.00    -0.274 N 
HETATM    3  H   UNL     1     -40.326  53.982 -55.986  1.00  0.00     0.189 HD
HETATM    4  N   UNL     1     -40.096  52.581 -54.526  1.00  0.00    -0.148 NA
HETATM    5  C   UNL     1     -40.230  52.730 -53.215  1.00  0.00     0.199 A 
HETATM    6  C   UNL     1     -40.583  54.018 -52.816  1.00  0.00     0.040 A 
HETATM    7  C   UNL     1     -40.810  54.343 -51.380  1.00  0.00     0.108 A 
HETATM    8  C   UNL     1     -40.539  53.115 -50.507  1.00  0.00     0.081 A 
HETATM    9  C   UNL     1     -40.605  53.308 -49.094  1.00  0.00     0.100 C 
HETATM   10  N   UNL     1     -40.660  53.469 -47.946  1.00  0.00    -0.191 NA
HETATM   11  C   UNL     1     -40.197  51.902 -51.016  1.00  0.00     0.140 A 
HETATM   12  O   UNL     1     -40.057  51.681 -52.393  1.00  0.00    -0.277 OA
ENDROOT
BRANCH   7  13
HETATM   13  C   UNL     1     -42.189  54.902 -51.145  1.00  0.00    -0.020 A 
HETATM   14  C   UNL     1     -43.398  54.233 -51.176  1.00  0.00     0.149 A 
HETATM   15  O   UNL     1     -44.428  55.079 -50.921  1.00  0.00    -0.334 OA
HETATM   16  C   UNL     1     -43.890  56.307 -50.721  1.00  0.00     0.142 A 
HETATM   17  C   UNL     1     -42.522  56.258 -50.844  1.00  0.00     0.034 A 
ENDBRANCH   7  13
BRANCH  11  18
HETATM   18  N   UNL     1     -39.944  50.770 -50.271  1.00  0.00    -0.282 NA
HETATM   19  H   UNL     1     -40.303  49.899 -50.653  1.00  0.00     0.126 HD
HETATM   20  H   UNL     1     -38.965  50.710 -49.993  1.00  0.00     0.126 HD
ENDBRANCH  11  18
BRANCH   1  21
HETATM   21  C   UNL     1     -41.091  56.101 -54.276  1.00  0.00    -0.007 A 
HETATM   22  C   UNL     1     -42.057  56.370 -55.253  1.00  0.00     0.016 A 
HETATM   23  C   UNL     1     -42.508  57.677 -55.472  1.00  0.00     0.037 A 
HETATM   24  C   UNL     1     -42.003  58.727 -54.708  1.00  0.00     0.069 A 
HETATM   25  C   UNL     1     -41.010  58.469 -53.761  1.00  0.00     0.037 A 
HETATM   26  C   UNL     1     -40.559  57.165 -53.541  1.00  0.00     0.016 A 
BRANCH  24  27
HETATM   27  O   UNL     1     -42.391  60.035 -54.800  1.00  0.00    -0.347 OA
BRANCH  27  28
HETATM   28  C   UNL     1     -43.738  60.321 -54.409  1.00  0.00     0.214 C 
BRANCH  28  29
HETATM   29  C   UNL     1     -43.839  60.440 -52.905  1.00  0.00    -0.034 A 
HETATM   30  C   UNL     1     -43.043  61.372 -52.221  1.00  0.00     0.009 A 
HETATM   31  C   UNL     1     -43.170  61.538 -50.840  1.00  0.00     0.001 A 
HETATM   32  C   UNL     1     -44.098  60.780 -50.129  1.00  0.00     0.000 A 
HETATM   33  C   UNL     1     -44.902  59.860 -50.797  1.00  0.00     0.001 A 
HETATM   34  C   UNL     1     -44.778  59.695 -52.178  1.00  0.00     0.009 A 
ENDBRANCH  28  29
ENDBRANCH  27  28
ENDBRANCH  24  27
ENDBRANCH   1  21
TORSDOF 6
ENDMDL
MODEL 9
REMARK VINA RESULT:      -7.7      2.038      4.448
REMARK  6 active torsions:
REMARK  status: ('A' for Active; 'I' for Inactive)
REMARK    1  A    between atoms: C_4  and  C_5 
REMARK    2  A    between atoms: C_5  and  O_6 
REMARK    3  A    between atoms: O_6  and  C_7 
REMARK    4  A    between atoms: C_10  and  C_11 
REMARK    5  A    between atoms: C_17  and  C_18 
REMARK    6  A    between atoms: C_26  and  N_27 
ROOT
HETATM    1  C   UNL     1     -43.825  58.001 -54.777  1.00  0.00     0.072 A 
HETATM    2  N   UNL     1     -44.190  58.526 -56.000  1.00  0.00    -0.274 N 
HETATM    3  H   UNL     1     -43.907  58.204 -56.919  1.00  0.00     0.189 HD
HETATM    4  N   UNL     1     -45.009  59.595 -55.919  1.00  0.00    -0.148 NA
HETATM    5  C   UNL     1     -45.175  59.726 -54.611  1.00  0.00     0.199 A 
HETATM    6  C   UNL     1     -44.488  58.783 -53.846  1.00  0.00     0.040 A 
HETATM    7  C   UNL     1     -44.540  58.815 -52.357  1.00  0.00     0.108 A 
HETATM    8  C   UNL     1     -45.461  59.940 -51.881  1.00  0.00     0.081 A 
HETATM    9  C   UNL     1     -45.699  60.020 -50.475  1.00  0.00     0.100 C 
HETATM   10  N   UNL     1     -45.888  60.081 -49.332  1.00  0.00    -0.191 NA
HETATM   11  C   UNL     1     -46.081  60.803 -52.729  1.00  0.00     0.140 A 
HETATM   12  O   UNL     1     -45.930  60.724 -54.120  1.00  0.00    -0.277 OA
ENDROOT
BRANCH   7  13
HETATM   13  C   UNL     1     -43.164  58.926 -51.754  1.00  0.00    -0.020 A 
HETATM   14  C   UNL     1     -42.302  60.007 -51.784  1.00  0.00     0.149 A 
HETATM   15  O   UNL     1     -41.146  59.725 -51.134  1.00  0.00    -0.334 OA
HETATM   16  C   UNL     1     -41.250  58.453 -50.676  1.00  0.00     0.142 A 
HETATM   17  C   UNL     1     -42.467  57.915 -51.025  1.00  0.00     0.034 A 
ENDBRANCH   7  13
BRANCH  11  18
HETATM   18  N   UNL     1     -46.918  61.829 -52.346  1.00  0.00    -0.282 NA
HETATM   19  H   UNL     1     -47.339  61.737 -51.425  1.00  0.00     0.126 HD
HETATM   20  H   UNL     1     -46.494  62.743 -52.501  1.00  0.00     0.126 HD
ENDBRANCH  11  18
BRANCH   1  21
HETATM   21  C   UNL     1     -42.887  56.897 -54.627  1.00  0.00    -0.007 A 
HETATM   22  C   UNL     1     -41.545  57.148 -54.318  1.00  0.00     0.016 A 
HETATM   23  C   UNL     1     -40.654  56.092 -54.095  1.00  0.00     0.037 A 
HETATM   24  C   UNL     1     -41.100  54.774 -54.171  1.00  0.00     0.069 A 
HETATM   25  C   UNL     1     -42.427  54.519 -54.519  1.00  0.00     0.037 A 
HETATM   26  C   UNL     1     -43.318  55.573 -54.741  1.00  0.00     0.016 A 
BRANCH  24  27
HETATM   27  O   UNL     1     -40.338  53.662 -53.935  1.00  0.00    -0.347 OA
BRANCH  27  28
HETATM   28  C   UNL     1     -40.805  52.786 -52.906  1.00  0.00     0.214 C 
BRANCH  28  29
HETATM   29  C   UNL     1     -40.812  53.494 -51.570  1.00  0.00    -0.034 A 
HETATM   30  C   UNL     1     -42.026  53.916 -51.007  1.00  0.00     0.009 A 
HETATM   31  C   UNL     1     -42.055  54.515 -49.746  1.00  0.00     0.001 A 
HETATM   32  C   UNL     1     -40.873  54.691 -49.030  1.00  0.00     0.000 A 
HETATM   33  C   UNL     1     -39.662  54.266 -49.571  1.00  0.00     0.001 A 
HETATM   34  C   UNL     1     -39.632  53.665 -50.831  1.00  0.00     0.009 A 
ENDBRANCH  28  29
ENDBRANCH  27  28
ENDBRANCH  24  27
ENDBRANCH   1  21
TORSDOF 6
ENDMDL
MODEL 10
REMARK VINA RESULT:      -7.6      2.012      4.289
REMARK  6 active torsions:
REMARK  status: ('A' for Active; 'I' for Inactive)
REMARK    1  A    between atoms: C_4  and  C_5 
REMARK    2  A    between atoms: C_5  and  O_6 
REMARK    3  A    between atoms: O_6  and  C_7 
REMARK    4  A    between atoms: C_10  and  C_11 
REMARK    5  A    between atoms: C_17  and  C_18 
REMARK    6  A    between atoms: C_26  and  N_27 
ROOT
HETATM    1  C   UNL     1     -43.150  56.737 -55.938  1.00  0.00     0.072 A 
HETATM    2  N   UNL     1     -43.192  56.915 -57.305  1.00  0.00    -0.274 N 
HETATM    3  H   UNL     1     -42.752  56.341 -58.016  1.00  0.00     0.189 HD
HETATM    4  N   UNL     1     -43.901  57.994 -57.699  1.00  0.00    -0.148 NA
HETATM    5  C   UNL     1     -44.329  58.487 -56.546  1.00  0.00     0.199 A 
HETATM    6  C   UNL     1     -43.917  57.770 -55.424  1.00  0.00     0.040 A 
HETATM    7  C   UNL     1     -44.282  58.214 -54.050  1.00  0.00     0.108 A 
HETATM    8  C   UNL     1     -45.169  59.459 -54.111  1.00  0.00     0.081 A 
HETATM    9  C   UNL     1     -45.694  59.934 -52.871  1.00  0.00     0.100 C 
HETATM   10  N   UNL     1     -46.116  60.316 -51.860  1.00  0.00    -0.191 NA
HETATM   11  C   UNL     1     -45.507  60.075 -55.275  1.00  0.00     0.140 A 
HETATM   12  O   UNL     1     -45.070  59.609 -56.523  1.00  0.00    -0.277 OA
ENDROOT
BRANCH   7  13
HETATM   13  C   UNL     1     -43.063  58.438 -53.193  1.00  0.00    -0.020 A 
HETATM   14  C   UNL     1     -42.732  57.823 -52.001  1.00  0.00     0.149 A 
HETATM   15  O   UNL     1     -41.554  58.295 -51.521  1.00  0.00    -0.334 OA
HETATM   16  C   UNL     1     -41.111  59.223 -52.405  1.00  0.00     0.142 A 
HETATM   17  C   UNL     1     -41.995  59.351 -53.450  1.00  0.00     0.034 A 
ENDBRANCH   7  13
BRANCH  11  18
HETATM   18  N   UNL     1     -46.302  61.197 -55.380  1.00  0.00    -0.282 NA
HETATM   19  H   UNL     1     -46.981  61.330 -54.634  1.00  0.00     0.126 HD
HETATM   20  H   UNL     1     -45.754  62.034 -55.574  1.00  0.00     0.126 HD
ENDBRANCH  11  18
BRANCH   1  21
HETATM   21  C   UNL     1     -42.379  55.685 -55.291  1.00  0.00    -0.007 A 
HETATM   22  C   UNL     1     -42.897  54.389 -55.190  1.00  0.00     0.016 A 
HETATM   23  C   UNL     1     -42.133  53.353 -54.641  1.00  0.00     0.037 A 
HETATM   24  C   UNL     1     -40.837  53.604 -54.193  1.00  0.00     0.069 A 
HETATM   25  C   UNL     1     -40.331  54.903 -54.253  1.00  0.00     0.037 A 
HETATM   26  C   UNL     1     -41.094  55.938 -54.803  1.00  0.00     0.016 A 
BRANCH  24  27
HETATM   27  O   UNL     1     -39.981  52.671 -53.675  1.00  0.00    -0.347 OA
BRANCH  27  28
HETATM   28  C   UNL     1     -40.410  52.020 -52.476  1.00  0.00     0.214 C 
BRANCH  28  29
HETATM   29  C   UNL     1     -40.624  53.031 -51.372  1.00  0.00    -0.034 A 
HETATM   30  C   UNL     1     -39.529  53.502 -50.630  1.00  0.00     0.009 A 
HETATM   31  C   UNL     1     -39.702  54.481 -49.651  1.00  0.00     0.001 A 
HETATM   32  C   UNL     1     -40.969  55.009 -49.407  1.00  0.00     0.000 A 
HETATM   33  C   UNL     1     -42.062  54.560 -50.144  1.00  0.00     0.001 A 
HETATM   34  C   UNL     1     -41.890  53.582 -51.126  1.00  0.00     0.009 A 
ENDBRANCH  28  29
ENDBRANCH  27  28
ENDBRANCH  24  27
ENDBRANCH   1  21
TORSDOF 6
ENDMDL
