MODEL 1
REMARK VINA RESULT:      -8.0      0.000      0.000
REMARK  7 active torsions:
REMARK  status: ('A' for Active; 'I' for Inactive)
REMARK    1  A    between atoms: C_4  and  C_5 
REMARK    2  A    between atoms: C_5  and  N_6 
REMARK       I    between atoms: N_6  and  C_7 
REMARK       I    between atoms: C_7  and  N_8 
REMARK    3  A    between atoms: N_8  and  C_9 
REMARK    4  A    between atoms: C_9  and  C_10 
REMARK    5  A    between atoms: C_12  and  O_13 
REMARK    6  A    between atoms: O_13  and  C_14 
REMARK    7  A    between atoms: C_23  and  O_24 
ROOT
HETATM    1  N   UNL     1     -42.181  54.998 -50.661  1.00  0.00    -0.335 N 
HETATM    2  C   UNL     1     -43.508  54.774 -50.837  1.00  0.00     0.316 C 
HETATM    3  N   UNL     1     -44.296  55.868 -50.971  1.00  0.00    -0.339 N 
HETATM    4  O   UNL     1     -44.034  53.667 -50.891  1.00  0.00    -0.247 OA
HETATM    5  H   UNL     1     -41.944  55.878 -50.237  1.00  0.00     0.165 HD
HETATM    6  H   UNL     1     -45.253  55.609 -51.175  1.00  0.00     0.164 HD
ENDROOT
BRANCH   1   7
HETATM    7  C   UNL     1     -41.162  53.968 -50.438  1.00  0.00     0.118 C 
HETATM    8  C   UNL     1     -39.992  54.379 -49.542  1.00  0.00     0.037 C 
BRANCH   7   9
HETATM    9  C   UNL     1     -40.688  53.332 -51.740  1.00  0.00    -0.002 A 
HETATM   10  C   UNL     1     -40.724  54.061 -52.945  1.00  0.00     0.018 A 
HETATM   11  C   UNL     1     -40.311  53.495 -54.156  1.00  0.00    -0.061 A 
HETATM   12  C   UNL     1     -40.354  54.303 -55.419  1.00  0.00     0.048 C 
HETATM   13  C   UNL     1     -39.807  52.195 -54.156  1.00  0.00     0.009 A 
HETATM   14  C   UNL     1     -39.736  51.464 -52.968  1.00  0.00     0.038 A 
HETATM   15  C   UNL     1     -40.168  52.020 -51.759  1.00  0.00     0.076 A 
BRANCH  15  16
HETATM   16  O   UNL     1     -40.124  51.369 -50.552  1.00  0.00    -0.355 OA
HETATM   17  C   UNL     1     -39.784  49.989 -50.560  1.00  0.00     0.210 C 
ENDBRANCH  15  16
ENDBRANCH   7   9
ENDBRANCH   1   7
BRANCH   3  18
HETATM   18  C   UNL     1     -43.945  57.260 -51.150  1.00  0.00     0.163 C 
BRANCH  18  19
HETATM   19  C   UNL     1     -43.294  57.491 -52.485  1.00  0.00    -0.035 A 
HETATM   20  C   UNL     1     -43.998  57.262 -53.670  1.00  0.00     0.066 A 
HETATM   21  C   UNL     1     -43.354  57.483 -54.878  1.00  0.00     0.164 A 
HETATM   22  N   UNL     1     -42.083  57.918 -54.986  1.00  0.00    -0.237 NA
HETATM   23  C   UNL     1     -41.428  58.155 -53.831  1.00  0.00     0.120 A 
HETATM   24  C   UNL     1     -41.981  57.962 -52.574  1.00  0.00     0.028 A 
BRANCH  21  25
HETATM   25  O   UNL     1     -44.083  57.224 -56.024  1.00  0.00    -0.329 OA
BRANCH  25  26
HETATM   26  C   UNL     1     -43.316  56.952 -57.215  1.00  0.00     0.130 C 
HETATM   27  C   UNL     1     -43.067  55.460 -57.566  1.00  0.00     0.032 C 
HETATM   28  C   UNL     1     -43.305  55.829 -59.040  1.00  0.00     0.005 C 
HETATM   29  C   UNL     1     -44.124  57.030 -58.537  1.00  0.00     0.032 C 
ENDBRANCH  25  26
ENDBRANCH  21  25
ENDBRANCH  18  19
ENDBRANCH   3  18
TORSDOF 7
ENDMDL
MODEL 2
REMARK VINA RESULT:      -7.8      3.184      5.576
REMARK  7 active torsions:
REMARK  status: ('A' for Active; 'I' for Inactive)
REMARK    1  A    between atoms: C_4  and  C_5 
REMARK    2  A    between atoms: C_5  and  N_6 
REMARK       I    between atoms: N_6  and  C_7 
REMARK       I    between atoms: C_7  and  N_8 
REMARK    3  A    between atoms: N_8  and  C_9 
REMARK    4  A    between atoms: C_9  and  C_10 
REMARK    5  A    between atoms: C_12  and  O_13 
REMARK    6  A    between atoms: O_13  and  C_14 
REMARK    7  A    between atoms: C_23  and  O_24 
ROOT
HETATM    1  N   UNL     1     -41.802  55.353 -52.901  1.00  0.00    -0.335 N 
HETATM    2  C   UNL     1     -43.109  55.142 -53.203  1.00  0.00     0.316 C 
HETATM    3  N   UNL     1     -44.022  55.721 -52.386  1.00  0.00    -0.339 N 
HETATM    4  O   UNL     1     -43.514  54.483 -54.155  1.00  0.00    -0.247 OA
HETATM    5  H   UNL     1     -41.607  55.535 -51.932  1.00  0.00     0.165 HD
HETATM    6  H   UNL     1     -44.964  55.579 -52.728  1.00  0.00     0.164 HD
ENDROOT
BRANCH   1   7
HETATM    7  C   UNL     1     -40.657  54.777 -53.612  1.00  0.00     0.118 C 
HETATM    8  C   UNL     1     -40.721  54.851 -55.138  1.00  0.00     0.037 C 
BRANCH   7   9
HETATM    9  C   UNL     1     -40.318  53.373 -53.123  1.00  0.00    -0.002 A 
HETATM   10  C   UNL     1     -40.176  52.313 -54.040  1.00  0.00     0.018 A 
HETATM   11  C   UNL     1     -39.883  51.012 -53.616  1.00  0.00    -0.061 A 
HETATM   12  C   UNL     1     -39.727  49.909 -54.620  1.00  0.00     0.048 C 
HETATM   13  C   UNL     1     -39.680  50.775 -52.257  1.00  0.00     0.009 A 
HETATM   14  C   UNL     1     -39.789  51.817 -51.333  1.00  0.00     0.038 A 
HETATM   15  C   UNL     1     -40.103  53.115 -51.752  1.00  0.00     0.076 A 
BRANCH  15  16
HETATM   16  O   UNL     1     -40.221  54.190 -50.908  1.00  0.00    -0.355 OA
HETATM   17  C   UNL     1     -39.722  54.046 -49.585  1.00  0.00     0.210 C 
ENDBRANCH  15  16
ENDBRANCH   7   9
ENDBRANCH   1   7
BRANCH   3  18
HETATM   18  C   UNL     1     -43.851  56.698 -51.333  1.00  0.00     0.163 C 
BRANCH  18  19
HETATM   19  C   UNL     1     -44.559  57.983 -51.660  1.00  0.00    -0.035 A 
HETATM   20  C   UNL     1     -45.042  58.810 -50.642  1.00  0.00     0.066 A 
HETATM   21  C   UNL     1     -45.695  59.982 -50.992  1.00  0.00     0.164 A 
HETATM   22  N   UNL     1     -45.888  60.386 -52.264  1.00  0.00    -0.237 NA
HETATM   23  C   UNL     1     -45.394  59.587 -53.231  1.00  0.00     0.120 A 
HETATM   24  C   UNL     1     -44.731  58.394 -52.985  1.00  0.00     0.028 A 
BRANCH  21  25
HETATM   25  O   UNL     1     -46.173  60.758 -49.953  1.00  0.00    -0.329 OA
BRANCH  25  26
HETATM   26  C   UNL     1     -45.244  61.024 -48.882  1.00  0.00     0.130 C 
HETATM   27  C   UNL     1     -45.103  62.501 -48.423  1.00  0.00     0.032 C 
HETATM   28  C   UNL     1     -45.037  61.982 -46.976  1.00  0.00     0.005 C 
HETATM   29  C   UNL     1     -45.795  60.734 -47.460  1.00  0.00     0.032 C 
ENDBRANCH  25  26
ENDBRANCH  21  25
ENDBRANCH  18  19
ENDBRANCH   3  18
TORSDOF 7
ENDMDL
MODEL 3
REMARK VINA RESULT:      -7.8      2.559      4.537
REMARK  7 active torsions:
REMARK  status: ('A' for Active; 'I' for Inactive)
REMARK    1  A    between atoms: C_4  and  C_5 
REMARK    2  A    between atoms: C_5  and  N_6 
REMARK       I    between atoms: N_6  and  C_7 
REMARK       I    between atoms: C_7  and  N_8 
REMARK    3  A    between atoms: N_8  and  C_9 
REMARK    4  A    between atoms: C_9  and  C_10 
REMARK    5  A    between atoms: C_12  and  O_13 
REMARK    6  A    between atoms: O_13  and  C_14 
REMARK    7  A    between atoms: C_23  and  O_24 
ROOT
HETATM    1  N   UNL     1     -41.756  54.948 -52.646  1.00  0.00    -0.335 N 
HETATM    2  C   UNL     1     -43.048  54.815 -53.043  1.00  0.00     0.316 C 
HETATM    3  N   UNL     1     -43.994  55.283 -52.193  1.00  0.00    -0.339 N 
HETATM    4  O   UNL     1     -43.411  54.318 -54.103  1.00  0.00    -0.247 OA
HETATM    5  H   UNL     1     -41.610  54.977 -51.652  1.00  0.00     0.165 HD
HETATM    6  H   UNL     1     -44.919  55.216 -52.600  1.00  0.00     0.164 HD
ENDROOT
BRANCH   1   7
HETATM    7  C   UNL     1     -40.583  54.461 -53.378  1.00  0.00     0.118 C 
HETATM    8  C   UNL     1     -40.608  54.685 -54.891  1.00  0.00     0.037 C 
BRANCH   7   9
HETATM    9  C   UNL     1     -40.234  53.021 -53.021  1.00  0.00    -0.002 A 
HETATM   10  C   UNL     1     -40.131  52.041 -54.028  1.00  0.00     0.018 A 
HETATM   11  C   UNL     1     -39.830  50.709 -53.726  1.00  0.00    -0.061 A 
HETATM   12  C   UNL     1     -39.718  49.693 -54.823  1.00  0.00     0.048 C 
HETATM   13  C   UNL     1     -39.578  50.358 -52.399  1.00  0.00     0.009 A 
HETATM   14  C   UNL     1     -39.647  51.320 -51.389  1.00  0.00     0.038 A 
HETATM   15  C   UNL     1     -39.970  52.649 -51.686  1.00  0.00     0.076 A 
BRANCH  15  16
HETATM   16  O   UNL     1     -40.050  53.649 -50.751  1.00  0.00    -0.355 OA
HETATM   17  C   UNL     1     -40.428  53.288 -49.430  1.00  0.00     0.210 C 
ENDBRANCH  15  16
ENDBRANCH   7   9
ENDBRANCH   1   7
BRANCH   3  18
HETATM   18  C   UNL     1     -43.866  56.084 -50.996  1.00  0.00     0.163 C 
BRANCH  18  19
HETATM   19  C   UNL     1     -43.702  57.541 -51.328  1.00  0.00    -0.035 A 
HETATM   20  C   UNL     1     -42.429  58.099 -51.481  1.00  0.00     0.066 A 
HETATM   21  C   UNL     1     -42.328  59.449 -51.780  1.00  0.00     0.164 A 
HETATM   22  N   UNL     1     -43.387  60.266 -51.946  1.00  0.00    -0.237 NA
HETATM   23  C   UNL     1     -44.606  59.704 -51.819  1.00  0.00     0.120 A 
HETATM   24  C   UNL     1     -44.814  58.367 -51.516  1.00  0.00     0.028 A 
BRANCH  21  25
HETATM   25  O   UNL     1     -41.050  59.961 -51.901  1.00  0.00    -0.329 OA
BRANCH  25  26
HETATM   26  C   UNL     1     -39.996  59.187 -51.291  1.00  0.00     0.130 C 
HETATM   27  C   UNL     1     -38.628  59.158 -52.025  1.00  0.00     0.032 C 
HETATM   28  C   UNL     1     -37.954  59.259 -50.645  1.00  0.00     0.005 C 
HETATM   29  C   UNL     1     -39.254  59.903 -50.133  1.00  0.00     0.032 C 
ENDBRANCH  25  26
ENDBRANCH  21  25
ENDBRANCH  18  19
ENDBRANCH   3  18
TORSDOF 7
ENDMDL
MODEL 4
REMARK VINA RESULT:      -7.8      2.021      4.361
REMARK  7 active torsions:
REMARK  status: ('A' for Active; 'I' for Inactive)
REMARK    1  A    between atoms: C_4  and  C_5 
REMARK    2  A    between atoms: C_5  and  N_6 
REMARK       I    between atoms: N_6  and  C_7 
REMARK       I    between atoms: C_7  and  N_8 
REMARK    3  A    between atoms: N_8  and  C_9 
REMARK    4  A    between atoms: C_9  and  C_10 
REMARK    5  A    between atoms: C_12  and  O_13 
REMARK    6  A    between atoms: O_13  and  C_14 
REMARK    7  A    between atoms: C_23  and  O_24 
ROOT
HETATM    1  N   UNL     1     -42.433  55.052 -52.027  1.00  0.00    -0.335 N 
HETATM    2  C   UNL     1     -43.599  55.665 -51.704  1.00  0.00     0.316 C 
HETATM    3  N   UNL     1     -44.249  56.302 -52.709  1.00  0.00    -0.339 N 
HETATM    4  O   UNL     1     -44.103  55.677 -50.586  1.00  0.00    -0.247 OA
HETATM    5  H   UNL     1     -41.943  55.441 -52.813  1.00  0.00     0.165 HD
HETATM    6  H   UNL     1     -45.143  56.662 -52.399  1.00  0.00     0.164 HD
ENDROOT
BRANCH   1   7
HETATM    7  C   UNL     1     -41.543  54.359 -51.090  1.00  0.00     0.118 C 
HETATM    8  C   UNL     1     -40.604  55.258 -50.284  1.00  0.00     0.037 C 
BRANCH   7   9
HETATM    9  C   UNL     1     -40.800  53.201 -51.746  1.00  0.00    -0.002 A 
HETATM   10  C   UNL     1     -40.453  52.059 -50.997  1.00  0.00     0.018 A 
HETATM   11  C   UNL     1     -39.757  50.990 -51.570  1.00  0.00    -0.061 A 
HETATM   12  C   UNL     1     -39.413  49.785 -50.745  1.00  0.00     0.048 C 
HETATM   13  C   UNL     1     -39.443  51.040 -52.928  1.00  0.00     0.009 A 
HETATM   14  C   UNL     1     -39.803  52.149 -53.696  1.00  0.00     0.038 A 
HETATM   15  C   UNL     1     -40.480  53.230 -53.120  1.00  0.00     0.076 A 
BRANCH  15  16
HETATM   16  O   UNL     1     -40.872  54.349 -53.809  1.00  0.00    -0.355 OA
HETATM   17  C   UNL     1     -40.176  54.662 -55.009  1.00  0.00     0.210 C 
ENDBRANCH  15  16
ENDBRANCH   7   9
ENDBRANCH   1   7
BRANCH   3  18
HETATM   18  C   UNL     1     -44.012  56.287 -54.136  1.00  0.00     0.163 C 
BRANCH  18  19
HETATM   19  C   UNL     1     -43.180  57.464 -54.563  1.00  0.00    -0.035 A 
HETATM   20  C   UNL     1     -42.203  57.991 -53.714  1.00  0.00     0.066 A 
HETATM   21  C   UNL     1     -41.465  59.082 -54.149  1.00  0.00     0.164 A 
HETATM   22  N   UNL     1     -41.622  59.667 -55.353  1.00  0.00    -0.237 NA
HETATM   23  C   UNL     1     -42.553  59.129 -56.166  1.00  0.00     0.120 A 
HETATM   24  C   UNL     1     -43.346  58.043 -55.824  1.00  0.00     0.028 A 
BRANCH  21  25
HETATM   25  O   UNL     1     -40.524  59.582 -53.268  1.00  0.00    -0.329 OA
BRANCH  25  26
HETATM   26  C   UNL     1     -40.563  59.047 -51.929  1.00  0.00     0.130 C 
HETATM   27  C   UNL     1     -39.313  59.287 -51.039  1.00  0.00     0.032 C 
HETATM   28  C   UNL     1     -40.272  59.543 -49.864  1.00  0.00     0.005 C 
HETATM   29  C   UNL     1     -41.340  59.918 -50.906  1.00  0.00     0.032 C 
ENDBRANCH  25  26
ENDBRANCH  21  25
ENDBRANCH  18  19
ENDBRANCH   3  18
TORSDOF 7
ENDMDL
MODEL 5
REMARK VINA RESULT:      -7.6      3.684      6.279
REMARK  7 active torsions:
REMARK  status: ('A' for Active; 'I' for Inactive)
REMARK    1  A    between atoms: C_4  and  C_5 
REMARK    2  A    between atoms: C_5  and  N_6 
REMARK       I    between atoms: N_6  and  C_7 
REMARK       I    between atoms: C_7  and  N_8 
REMARK    3  A    between atoms: N_8  and  C_9 
REMARK    4  A    between atoms: C_9  and  C_10 
REMARK    5  A    between atoms: C_12  and  O_13 
REMARK    6  A    between atoms: O_13  and  C_14 
REMARK    7  A    between atoms: C_23  and  O_24 
ROOT
HETATM    1  N   UNL     1     -42.749  55.692 -51.377  1.00  0.00    -0.335 N 
HETATM    2  C   UNL     1     -43.969  55.570 -50.795  1.00  0.00     0.316 C 
HETATM    3  N   UNL     1     -44.850  56.577 -51.014  1.00  0.00    -0.339 N 
HETATM    4  O   UNL     1     -44.328  54.623 -50.103  1.00  0.00    -0.247 OA
HETATM    5  H   UNL     1     -42.446  56.634 -51.550  1.00  0.00     0.165 HD
HETATM    6  H   UNL     1     -45.755  56.368 -50.611  1.00  0.00     0.164 HD
ENDROOT
BRANCH   1   7
HETATM    7  C   UNL     1     -41.632  54.754 -51.226  1.00  0.00     0.118 C 
HETATM    8  C   UNL     1     -40.525  55.196 -50.269  1.00  0.00     0.037 C 
BRANCH   7   9
HETATM    9  C   UNL     1     -41.076  54.295 -52.569  1.00  0.00    -0.002 A 
HETATM   10  C   UNL     1     -40.882  52.925 -52.830  1.00  0.00     0.018 A 
HETATM   11  C   UNL     1     -40.357  52.478 -54.048  1.00  0.00    -0.061 A 
HETATM   12  C   UNL     1     -40.173  51.010 -54.296  1.00  0.00     0.048 C 
HETATM   13  C   UNL     1     -40.067  53.413 -55.041  1.00  0.00     0.009 A 
HETATM   14  C   UNL     1     -40.279  54.775 -54.813  1.00  0.00     0.038 A 
HETATM   15  C   UNL     1     -40.783  55.226 -53.588  1.00  0.00     0.076 A 
BRANCH  15  16
HETATM   16  O   UNL     1     -41.024  56.543 -53.293  1.00  0.00    -0.355 OA
HETATM   17  C   UNL     1     -41.675  57.332 -54.280  1.00  0.00     0.210 C 
ENDBRANCH  15  16
ENDBRANCH   7   9
ENDBRANCH   1   7
BRANCH   3  18
HETATM   18  C   UNL     1     -44.786  57.695 -51.929  1.00  0.00     0.163 C 
BRANCH  18  19
HETATM   19  C   UNL     1     -44.508  58.981 -51.201  1.00  0.00    -0.035 A 
HETATM   20  C   UNL     1     -45.416  59.480 -50.263  1.00  0.00     0.066 A 
HETATM   21  C   UNL     1     -45.121  60.674 -49.622  1.00  0.00     0.164 A 
HETATM   22  N   UNL     1     -43.998  61.388 -49.839  1.00  0.00    -0.237 NA
HETATM   23  C   UNL     1     -43.123  60.877 -50.729  1.00  0.00     0.120 A 
HETATM   24  C   UNL     1     -43.328  59.696 -51.426  1.00  0.00     0.028 A 
BRANCH  21  25
HETATM   25  O   UNL     1     -46.058  61.138 -48.718  1.00  0.00    -0.329 OA
BRANCH  25  26
HETATM   26  C   UNL     1     -45.555  61.987 -47.665  1.00  0.00     0.130 C 
HETATM   27  C   UNL     1     -46.594  62.542 -46.653  1.00  0.00     0.032 C 
HETATM   28  C   UNL     1     -45.558  62.289 -45.544  1.00  0.00     0.005 C 
HETATM   29  C   UNL     1     -44.931  61.228 -46.465  1.00  0.00     0.032 C 
ENDBRANCH  25  26
ENDBRANCH  21  25
ENDBRANCH  18  19
ENDBRANCH   3  18
TORSDOF 7
ENDMDL
MODEL 6
REMARK VINA RESULT:      -7.5      1.601      2.695
REMARK  7 active torsions:
REMARK  status: ('A' for Active; 'I' for Inactive)
REMARK    1  A    between atoms: C_4  and  C_5 
REMARK    2  A    between atoms: C_5  and  N_6 
REMARK       I    between atoms: N_6  and  C_7 
REMARK       I    between atoms: C_7  and  N_8 
REMARK    3  A    between atoms: N_8  and  C_9 
REMARK    4  A    between atoms: C_9  and  C_10 
REMARK    5  A    between atoms: C_12  and  O_13 
REMARK    6  A    between atoms: O_13  and  C_14 
REMARK    7  A    between atoms: C_23  and  O_24 
ROOT
HETATM    1  N   UNL     1     -42.334  55.249 -50.817  1.00  0.00    -0.335 N 
HETATM    2  C   UNL     1     -43.662  54.998 -50.936  1.00  0.00     0.316 C 
HETATM    3  N   UNL     1     -44.494  56.061 -50.818  1.00  0.00    -0.339 N 
HETATM    4  O   UNL     1     -44.154  53.894 -51.147  1.00  0.00    -0.247 OA
HETATM    5  H   UNL     1     -42.094  56.052 -50.263  1.00  0.00     0.165 HD
HETATM    6  H   UNL     1     -45.455  55.797 -50.997  1.00  0.00     0.164 HD
ENDROOT
BRANCH   1   7
HETATM    7  C   UNL     1     -41.267  54.244 -50.852  1.00  0.00     0.118 C 
HETATM    8  C   UNL     1     -40.066  54.524 -49.948  1.00  0.00     0.037 C 
BRANCH   7   9
HETATM    9  C   UNL     1     -40.841  53.902 -52.276  1.00  0.00    -0.002 A 
HETATM   10  C   UNL     1     -40.597  52.565 -52.645  1.00  0.00     0.018 A 
HETATM   11  C   UNL     1     -40.188  52.225 -53.939  1.00  0.00    -0.061 A 
HETATM   12  C   UNL     1     -39.947  50.790 -54.302  1.00  0.00     0.048 C 
HETATM   13  C   UNL     1     -40.069  53.233 -54.895  1.00  0.00     0.009 A 
HETATM   14  C   UNL     1     -40.334  54.562 -54.558  1.00  0.00     0.038 A 
HETATM   15  C   UNL     1     -40.721  54.907 -53.258  1.00  0.00     0.076 A 
BRANCH  15  16
HETATM   16  O   UNL     1     -41.005  56.187 -52.853  1.00  0.00    -0.355 OA
HETATM   17  C   UNL     1     -40.869  57.227 -53.812  1.00  0.00     0.210 C 
ENDBRANCH  15  16
ENDBRANCH   7   9
ENDBRANCH   1   7
BRANCH   3  18
HETATM   18  C   UNL     1     -44.204  57.477 -50.773  1.00  0.00     0.163 C 
BRANCH  18  19
HETATM   19  C   UNL     1     -44.602  58.157 -52.054  1.00  0.00    -0.035 A 
HETATM   20  C   UNL     1     -44.632  57.448 -53.258  1.00  0.00     0.066 A 
HETATM   21  C   UNL     1     -44.998  58.118 -54.414  1.00  0.00     0.164 A 
HETATM   22  N   UNL     1     -45.341  59.422 -54.454  1.00  0.00    -0.237 NA
HETATM   23  C   UNL     1     -45.328  60.083 -53.278  1.00  0.00     0.120 A 
HETATM   24  C   UNL     1     -44.973  59.505 -52.069  1.00  0.00     0.028 A 
BRANCH  21  25
HETATM   25  O   UNL     1     -44.994  57.382 -55.584  1.00  0.00    -0.329 OA
BRANCH  25  26
HETATM   26  C   UNL     1     -43.697  57.103 -56.152  1.00  0.00     0.130 C 
HETATM   27  C   UNL     1     -43.237  55.620 -56.161  1.00  0.00     0.032 C 
HETATM   28  C   UNL     1     -42.663  55.869 -57.567  1.00  0.00     0.005 C 
HETATM   29  C   UNL     1     -43.674  57.020 -57.702  1.00  0.00     0.032 C 
ENDBRANCH  25  26
ENDBRANCH  21  25
ENDBRANCH  18  19
ENDBRANCH   3  18
TORSDOF 7
ENDMDL
MODEL 7
REMARK VINA RESULT:      -7.3      2.045      3.016
REMARK  7 active torsions:
REMARK  status: ('A' for Active; 'I' for Inactive)
REMARK    1  A    between atoms: C_4  and  C_5 
REMARK    2  A    between atoms: C_5  and  N_6 
REMARK       I    between atoms: N_6  and  C_7 
REMARK       I    between atoms: C_7  and  N_8 
REMARK    3  A    between atoms: N_8  and  C_9 
REMARK    4  A    between atoms: C_9  and  C_10 
REMARK    5  A    between atoms: C_12  and  O_13 
REMARK    6  A    between atoms: O_13  and  C_14 
REMARK    7  A    between atoms: C_23  and  O_24 
ROOT
HETATM    1  N   UNL     1     -41.762  55.285 -52.898  1.00  0.00    -0.335 N 
HETATM    2  C   UNL     1     -43.062  55.041 -53.202  1.00  0.00     0.316 C 
HETATM    3  N   UNL     1     -43.992  55.625 -52.407  1.00  0.00    -0.339 N 
HETATM    4  O   UNL     1     -43.448  54.347 -54.137  1.00  0.00    -0.247 OA
HETATM    5  H   UNL     1     -41.577  55.499 -51.934  1.00  0.00     0.165 HD
HETATM    6  H   UNL     1     -44.929  55.454 -52.751  1.00  0.00     0.164 HD
ENDROOT
BRANCH   1   7
HETATM    7  C   UNL     1     -40.601  54.711 -53.586  1.00  0.00     0.118 C 
HETATM    8  C   UNL     1     -40.622  54.810 -55.112  1.00  0.00     0.037 C 
BRANCH   7   9
HETATM    9  C   UNL     1     -40.287  53.298 -53.110  1.00  0.00    -0.002 A 
HETATM   10  C   UNL     1     -40.173  52.242 -54.035  1.00  0.00     0.018 A 
HETATM   11  C   UNL     1     -39.903  50.932 -53.624  1.00  0.00    -0.061 A 
HETATM   12  C   UNL     1     -39.778  49.834 -54.637  1.00  0.00     0.048 C 
HETATM   13  C   UNL     1     -39.693  50.681 -52.268  1.00  0.00     0.009 A 
HETATM   14  C   UNL     1     -39.773  51.719 -51.336  1.00  0.00     0.038 A 
HETATM   15  C   UNL     1     -40.065  53.025 -51.743  1.00  0.00     0.076 A 
BRANCH  15  16
HETATM   16  O   UNL     1     -40.154  54.096 -50.890  1.00  0.00    -0.355 OA
HETATM   17  C   UNL     1     -40.263  53.824 -49.499  1.00  0.00     0.210 C 
ENDBRANCH  15  16
ENDBRANCH   7   9
ENDBRANCH   1   7
BRANCH   3  18
HETATM   18  C   UNL     1     -43.847  56.634 -51.381  1.00  0.00     0.163 C 
BRANCH  18  19
HETATM   19  C   UNL     1     -44.303  57.980 -51.872  1.00  0.00    -0.035 A 
HETATM   20  C   UNL     1     -44.713  58.154 -53.196  1.00  0.00     0.066 A 
HETATM   21  C   UNL     1     -45.118  59.416 -53.605  1.00  0.00     0.164 A 
HETATM   22  N   UNL     1     -45.152  60.495 -52.798  1.00  0.00    -0.237 NA
HETATM   23  C   UNL     1     -44.775  60.301 -51.518  1.00  0.00     0.120 A 
HETATM   24  C   UNL     1     -44.349  59.082 -51.013  1.00  0.00     0.028 A 
BRANCH  21  25
HETATM   25  O   UNL     1     -45.497  59.545 -54.929  1.00  0.00    -0.329 OA
BRANCH  25  26
HETATM   26  C   UNL     1     -45.193  58.425 -55.786  1.00  0.00     0.130 C 
HETATM   27  C   UNL     1     -46.073  58.251 -57.054  1.00  0.00     0.032 C 
HETATM   28  C   UNL     1     -44.793  57.866 -57.816  1.00  0.00     0.005 C 
HETATM   29  C   UNL     1     -44.006  58.657 -56.758  1.00  0.00     0.032 C 
ENDBRANCH  25  26
ENDBRANCH  21  25
ENDBRANCH  18  19
ENDBRANCH   3  18
TORSDOF 7
ENDMDL
MODEL 8
REMARK VINA RESULT:      -7.3      3.273      5.513
REMARK  7 active torsions:
REMARK  status: ('A' for Active; 'I' for Inactive)
REMARK    1  A    between atoms: C_4  and  C_5 
REMARK    2  A    between atoms: C_5  and  N_6 
REMARK       I    between atoms: N_6  and  C_7 
REMARK       I    between atoms: C_7  and  N_8 
REMARK    3  A    between atoms: N_8  and  C_9 
REMARK    4  A    between atoms: C_9  and  C_10 
REMARK    5  A    between atoms: C_12  and  O_13 
REMARK    6  A    between atoms: O_13  and  C_14 
REMARK    7  A    between atoms: C_23  and  O_24 
ROOT
HETATM    1  N   UNL     1     -42.467  55.277 -51.100  1.00  0.00    -0.335 N 
HETATM    2  C   UNL     1     -43.792  55.252 -50.804  1.00  0.00     0.316 C 
HETATM    3  N   UNL     1     -44.541  56.273 -51.287  1.00  0.00    -0.339 N 
HETATM    4  O   UNL     1     -44.350  54.379 -50.148  1.00  0.00    -0.247 OA
HETATM    5  H   UNL     1     -42.079  56.189 -51.265  1.00  0.00     0.165 HD
HETATM    6  H   UNL     1     -45.524  56.133 -51.087  1.00  0.00     0.164 HD
ENDROOT
BRANCH   1   7
HETATM    7  C   UNL     1     -41.468  54.311 -50.634  1.00  0.00     0.118 C 
HETATM    8  C   UNL     1     -40.405  54.865 -49.685  1.00  0.00     0.037 C 
BRANCH   7   9
HETATM    9  C   UNL     1     -40.852  53.517 -51.780  1.00  0.00    -0.002 A 
HETATM   10  C   UNL     1     -40.826  54.051 -53.084  1.00  0.00     0.018 A 
HETATM   11  C   UNL     1     -40.282  53.337 -54.157  1.00  0.00    -0.061 A 
HETATM   12  C   UNL     1     -40.261  53.939 -55.531  1.00  0.00     0.048 C 
HETATM   13  C   UNL     1     -39.710  52.088 -53.916  1.00  0.00     0.009 A 
HETATM   14  C   UNL     1     -39.699  51.553 -52.626  1.00  0.00     0.038 A 
HETATM   15  C   UNL     1     -40.262  52.256 -51.555  1.00  0.00     0.076 A 
BRANCH  15  16
HETATM   16  O   UNL     1     -40.284  51.800 -50.261  1.00  0.00    -0.355 OA
HETATM   17  C   UNL     1     -40.246  50.394 -50.056  1.00  0.00     0.210 C 
ENDBRANCH  15  16
ENDBRANCH   7   9
ENDBRANCH   1   7
BRANCH   3  18
HETATM   18  C   UNL     1     -44.210  57.310 -52.238  1.00  0.00     0.163 C 
BRANCH  18  19
HETATM   19  C   UNL     1     -44.884  58.608 -51.888  1.00  0.00    -0.035 A 
HETATM   20  C   UNL     1     -45.192  58.915 -50.560  1.00  0.00     0.066 A 
HETATM   21  C   UNL     1     -45.820  60.120 -50.285  1.00  0.00     0.164 A 
HETATM   22  N   UNL     1     -46.147  61.031 -51.224  1.00  0.00    -0.237 NA
HETATM   23  C   UNL     1     -45.820  60.726 -52.497  1.00  0.00     0.120 A 
HETATM   24  C   UNL     1     -45.196  59.547 -52.875  1.00  0.00     0.028 A 
BRANCH  21  25
HETATM   25  O   UNL     1     -46.124  60.371 -48.960  1.00  0.00    -0.329 OA
BRANCH  25  26
HETATM   26  C   UNL     1     -45.292  61.343 -48.293  1.00  0.00     0.130 C 
HETATM   27  C   UNL     1     -45.977  62.659 -47.834  1.00  0.00     0.032 C 
HETATM   28  C   UNL     1     -45.141  62.575 -46.546  1.00  0.00     0.005 C 
HETATM   29  C   UNL     1     -45.044  61.058 -46.788  1.00  0.00     0.032 C 
ENDBRANCH  25  26
ENDBRANCH  21  25
ENDBRANCH  18  19
ENDBRANCH   3  18
TORSDOF 7
ENDMDL
MODEL 9
REMARK VINA RESULT:      -7.3      2.196      3.601
REMARK  7 active torsions:
REMARK  status: ('A' for Active; 'I' for Inactive)
REMARK    1  A    between atoms: C_4  and  C_5 
REMARK    2  A    between atoms: C_5  and  N_6 
REMARK       I    between atoms: N_6  and  C_7 
REMARK       I    between atoms: C_7  and  N_8 
REMARK    3  A    between atoms: N_8  and  C_9 
REMARK    4  A    between atoms: C_9  and  C_10 
REMARK    5  A    between atoms: C_12  and  O_13 
REMARK    6  A    between atoms: O_13  and  C_14 
REMARK    7  A    between atoms: C_23  and  O_24 
ROOT
HETATM    1  N   UNL     1     -42.028  55.486 -54.011  1.00  0.00    -0.335 N 
HETATM    2  C   UNL     1     -43.134  54.859 -54.485  1.00  0.00     0.316 C 
HETATM    3  N   UNL     1     -44.285  55.574 -54.482  1.00  0.00    -0.339 N 
HETATM    4  O   UNL     1     -43.162  53.711 -54.916  1.00  0.00    -0.247 OA
HETATM    5  H   UNL     1     -42.199  56.215 -53.340  1.00  0.00     0.165 HD
HETATM    6  H   UNL     1     -45.038  55.060 -54.923  1.00  0.00     0.164 HD
ENDROOT
BRANCH   1   7
HETATM    7  C   UNL     1     -40.698  54.885 -53.868  1.00  0.00     0.118 C 
HETATM    8  C   UNL     1     -40.174  54.143 -55.099  1.00  0.00     0.037 C 
BRANCH   7   9
HETATM    9  C   UNL     1     -40.576  54.046 -52.601  1.00  0.00    -0.002 A 
HETATM   10  C   UNL     1     -40.126  52.713 -52.669  1.00  0.00     0.018 A 
HETATM   11  C   UNL     1     -40.021  51.916 -51.524  1.00  0.00    -0.061 A 
HETATM   12  C   UNL     1     -39.529  50.503 -51.631  1.00  0.00     0.048 C 
HETATM   13  C   UNL     1     -40.323  52.475 -50.283  1.00  0.00     0.009 A 
HETATM   14  C   UNL     1     -40.743  53.804 -50.190  1.00  0.00     0.038 A 
HETATM   15  C   UNL     1     -40.870  54.596 -51.336  1.00  0.00     0.076 A 
BRANCH  15  16
HETATM   16  O   UNL     1     -41.270  55.908 -51.325  1.00  0.00    -0.355 OA
HETATM   17  C   UNL     1     -41.403  56.546 -50.061  1.00  0.00     0.210 C 
ENDBRANCH  15  16
ENDBRANCH   7   9
ENDBRANCH   1   7
BRANCH   3  18
HETATM   18  C   UNL     1     -44.515  56.980 -54.233  1.00  0.00     0.163 C 
BRANCH  18  19
HETATM   19  C   UNL     1     -44.002  57.827 -55.364  1.00  0.00    -0.035 A 
HETATM   20  C   UNL     1     -44.257  57.472 -56.692  1.00  0.00     0.066 A 
HETATM   21  C   UNL     1     -43.757  58.279 -57.702  1.00  0.00     0.164 A 
HETATM   22  N   UNL     1     -43.043  59.402 -57.486  1.00  0.00    -0.237 NA
HETATM   23  C   UNL     1     -42.828  59.740 -56.199  1.00  0.00     0.120 A 
HETATM   24  C   UNL     1     -43.280  58.998 -55.118  1.00  0.00     0.028 A 
BRANCH  21  25
HETATM   25  O   UNL     1     -44.017  57.878 -59.000  1.00  0.00    -0.329 OA
BRANCH  25  26
HETATM   26  C   UNL     1     -44.577  56.558 -59.154  1.00  0.00     0.130 C 
HETATM   27  C   UNL     1     -45.495  56.323 -60.384  1.00  0.00     0.032 C 
HETATM   28  C   UNL     1     -44.831  54.943 -60.541  1.00  0.00     0.005 C 
HETATM   29  C   UNL     1     -43.617  55.518 -59.791  1.00  0.00     0.032 C 
ENDBRANCH  25  26
ENDBRANCH  21  25
ENDBRANCH  18  19
ENDBRANCH   3  18
TORSDOF 7
ENDMDL
MODEL 10
REMARK VINA RESULT:      -7.1      2.068      7.713
REMARK  7 active torsions:
REMARK  status: ('A' for Active; 'I' for Inactive)
REMARK    1  A    between atoms: C_4  and  C_5 
REMARK    2  A    between atoms: C_5  and  N_6 
REMARK       I    between atoms: N_6  and  C_7 
REMARK       I    between atoms: C_7  and  N_8 
REMARK    3  A    between atoms: N_8  and  C_9 
REMARK    4  A    between atoms: C_9  and  C_10 
REMARK    5  A    between atoms: C_12  and  O_13 
REMARK    6  A    between atoms: O_13  and  C_14 
REMARK    7  A    between atoms: C_23  and  O_24 
ROOT
HETATM    1  N   UNL     1     -42.359  56.795 -56.907  1.00  0.00    -0.335 N 
HETATM    2  C   UNL     1     -42.576  55.542 -56.431  1.00  0.00     0.316 C 
HETATM    3  N   UNL     1     -42.060  55.260 -55.209  1.00  0.00    -0.339 N 
HETATM    4  O   UNL     1     -43.203  54.665 -57.016  1.00  0.00    -0.247 OA
HETATM    5  H   UNL     1     -41.534  57.252 -56.560  1.00  0.00     0.165 HD
HETATM    6  H   UNL     1     -42.335  54.335 -54.900  1.00  0.00     0.164 HD
ENDROOT
BRANCH   1   7
HETATM    7  C   UNL     1     -42.774  57.293 -58.222  1.00  0.00     0.118 C 
HETATM    8  C   UNL     1     -41.998  58.503 -58.744  1.00  0.00     0.037 C 
BRANCH   7   9
HETATM    9  C   UNL     1     -44.282  57.500 -58.312  1.00  0.00    -0.002 A 
HETATM   10  C   UNL     1     -45.028  56.871 -59.329  1.00  0.00     0.018 A 
HETATM   11  C   UNL     1     -46.410  57.057 -59.445  1.00  0.00    -0.061 A 
HETATM   12  C   UNL     1     -47.175  56.364 -60.533  1.00  0.00     0.048 C 
HETATM   13  C   UNL     1     -47.066  57.846 -58.501  1.00  0.00     0.009 A 
HETATM   14  C   UNL     1     -46.350  58.456 -57.468  1.00  0.00     0.038 A 
HETATM   15  C   UNL     1     -44.964  58.289 -57.363  1.00  0.00     0.076 A 
BRANCH  15  16
HETATM   16  O   UNL     1     -44.194  58.848 -56.375  1.00  0.00    -0.355 OA
HETATM   17  C   UNL     1     -44.663  58.748 -55.037  1.00  0.00     0.210 C 
ENDBRANCH  15  16
ENDBRANCH   7   9
ENDBRANCH   1   7
BRANCH   3  18
HETATM   18  C   UNL     1     -41.466  56.129 -54.218  1.00  0.00     0.163 C 
BRANCH  18  19
HETATM   19  C   UNL     1     -41.190  55.391 -52.938  1.00  0.00    -0.035 A 
HETATM   20  C   UNL     1     -40.957  54.012 -52.947  1.00  0.00     0.066 A 
HETATM   21  C   UNL     1     -40.714  53.373 -51.741  1.00  0.00     0.164 A 
HETATM   22  N   UNL     1     -40.677  54.001 -50.549  1.00  0.00    -0.237 NA
HETATM   23  C   UNL     1     -40.881  55.334 -50.565  1.00  0.00     0.120 A 
HETATM   24  C   UNL     1     -41.137  56.064 -51.715  1.00  0.00     0.028 A 
BRANCH  21  25
HETATM   25  O   UNL     1     -40.509  52.007 -51.796  1.00  0.00    -0.329 OA
BRANCH  25  26
HETATM   26  C   UNL     1     -39.717  51.529 -52.903  1.00  0.00     0.130 C 
HETATM   27  C   UNL     1     -39.415  50.006 -52.948  1.00  0.00     0.032 C 
HETATM   28  C   UNL     1     -39.643  50.067 -54.468  1.00  0.00     0.005 C 
HETATM   29  C   UNL     1     -40.508  51.316 -54.221  1.00  0.00     0.032 C 
ENDBRANCH  25  26
ENDBRANCH  21  25
ENDBRANCH  18  19
ENDBRANCH   3  18
TORSDOF 7
ENDMDL
