MODEL 1
REMARK VINA RESULT:      -8.1      0.000      0.000
REMARK  6 active torsions:
REMARK  status: ('A' for Active; 'I' for Inactive)
REMARK    1  A    between atoms: CG_8  and  CB_9 
REMARK    2  A    between atoms: CB_9  and  CA_10 
REMARK    3  A    between atoms: CA_10  and  N_11 
REMARK    4  A    between atoms: CA_10  and  C_12 
REMARK       I    between atoms: N_11  and  C_18 
REMARK    5  A    between atoms: C_12  and  O_13 
REMARK       I    between atoms: C_18  and  N_19 
REMARK    6  A    between atoms: N_19  and  C_20 
ROOT
ATOM      1  CA  TRP A   1     -41.349  54.023 -50.167  1.00  0.00     0.114 C 
ENDROOT
BRANCH   1   2
ATOM      2  CB  TRP A   1     -39.910  53.507 -50.385  1.00  0.00     0.068 C 
BRANCH   2   3
ATOM      3  CG  TRP A   1     -39.878  52.082 -50.861  1.00  0.00    -0.028 A 
ATOM      4  CD2 TRP A   1     -39.818  51.616 -52.214  1.00  0.00    -0.002 A 
ATOM      5  CE3 TRP A   1     -39.752  52.248 -53.472  1.00  0.00     0.014 A 
ATOM      6  CE2 TRP A   1     -39.845  50.221 -52.177  1.00  0.00     0.042 A 
ATOM      7  CZ3 TRP A   1     -39.741  51.474 -54.637  1.00  0.00     0.001 A 
ATOM      8  CH2 TRP A   1     -39.781  50.083 -54.565  1.00  0.00     0.002 A 
ATOM      9  CZ2 TRP A   1     -39.827  49.429 -53.331  1.00  0.00     0.030 A 
ATOM     10  NE1 TRP A   1     -39.881  49.851 -50.853  1.00  0.00    -0.365 N 
ATOM     11  HE1 TRP A   1     -39.890  48.896 -50.525  1.00  0.00     0.165 HD
ATOM     12  CD1 TRP A   1     -39.904  50.961 -50.053  1.00  0.00     0.096 A 
ENDBRANCH   2   3
ENDBRANCH   1   2
BRANCH   1  13
ATOM     13  N   TRP A   1     -42.073  54.242 -51.429  1.00  0.00    -0.336 N 
HETATM   14  C   UNK A   0     -43.421  54.152 -51.554  1.00  0.00     0.321 C 
HETATM   15  N   UNK A   0     -43.961  54.401 -52.777  1.00  0.00    -0.309 N 
HETATM   16  O   UNK A   0     -44.156  53.793 -50.636  1.00  0.00    -0.247 OA
HETATM   17  H   UNK A   0     -44.923  54.088 -52.820  1.00  0.00     0.170 HD
ATOM     18  H   TRP A   1     -41.546  54.097 -52.279  1.00  0.00     0.164 HD
BRANCH  15  19
HETATM   19  C   UNK A   0     -43.501  55.138 -53.885  1.00  0.00     0.036 A 
HETATM   20  C   UNK A   0     -43.515  56.533 -53.962  1.00  0.00     0.039 A 
HETATM   21  C   UNK A   0     -43.113  57.142 -55.142  1.00  0.00    -0.024 A 
HETATM   22  C   UNK A   0     -42.702  56.400 -56.237  1.00  0.00    -0.026 A 
HETATM   23  C   UNK A   0     -43.098  58.584 -55.492  1.00  0.00     0.207 C 
HETATM   24  C   UNK A   0     -42.385  57.317 -57.359  1.00  0.00     0.207 C 
HETATM   25  C   UNK A   0     -42.683  55.020 -56.192  1.00  0.00     0.012 A 
HETATM   26  O   UNK A   0     -42.416  58.638 -56.768  1.00  0.00    -0.382 OA
HETATM   27  C   UNK A   0     -43.090  54.392 -55.010  1.00  0.00     0.030 A 
ENDBRANCH  15  19
ENDBRANCH   1  13
BRANCH   1  28
ATOM     28  C   TRP A   1     -41.355  55.265 -49.255  1.00  0.00     0.189 C 
BRANCH  28  29
ATOM     29  O   TRP A   1     -40.977  54.906 -47.926  1.00  0.00    -0.399 OA
ATOM     30  H   TRP A   1     -41.796  54.959 -47.400  1.00  0.00     0.209 HD
ENDBRANCH  28  29
ENDBRANCH   1  28
TORSDOF 6
ENDMDL
MODEL 2
REMARK VINA RESULT:      -8.1      2.162      6.102
REMARK  6 active torsions:
REMARK  status: ('A' for Active; 'I' for Inactive)
REMARK    1  A    between atoms: CG_8  and  CB_9 
REMARK    2  A    between atoms: CB_9  and  CA_10 
REMARK    3  A    between atoms: CA_10  and  N_11 
REMARK    4  A    between atoms: CA_10  and  C_12 
REMARK       I    between atoms: N_11  and  C_18 
REMARK    5  A    between atoms: C_12  and  O_13 
REMARK       I    between atoms: C_18  and  N_19 
REMARK    6  A    between atoms: N_19  and  C_20 
ROOT
ATOM      1  CA  TRP A   1     -43.583  55.623 -50.382  1.00  0.00     0.114 C 
ENDROOT
BRANCH   1   2
ATOM      2  CB  TRP A   1     -44.037  56.748 -51.337  1.00  0.00     0.068 C 
BRANCH   2   3
ATOM      3  CG  TRP A   1     -43.126  56.897 -52.523  1.00  0.00    -0.028 A 
ATOM      4  CD2 TRP A   1     -43.055  56.056 -53.680  1.00  0.00    -0.002 A 
ATOM      5  CE3 TRP A   1     -43.753  54.909 -54.107  1.00  0.00     0.014 A 
ATOM      6  CE2 TRP A   1     -42.042  56.556 -54.498  1.00  0.00     0.042 A 
ATOM      7  CZ3 TRP A   1     -43.400  54.293 -55.313  1.00  0.00     0.001 A 
ATOM      8  CH2 TRP A   1     -42.375  54.810 -56.101  1.00  0.00     0.002 A 
ATOM      9  CZ2 TRP A   1     -41.678  55.958 -55.711  1.00  0.00     0.030 A 
ATOM     10  NE1 TRP A   1     -41.540  57.679 -53.883  1.00  0.00    -0.365 N 
ATOM     11  HE1 TRP A   1     -40.803  58.258 -54.260  1.00  0.00     0.165 HD
ATOM     12  CD1 TRP A   1     -42.182  57.893 -52.693  1.00  0.00     0.096 A 
ENDBRANCH   2   3
ENDBRANCH   1   2
BRANCH   1  13
ATOM     13  N   TRP A   1     -42.365  54.939 -50.845  1.00  0.00    -0.336 N 
HETATM   14  C   UNK A   0     -41.220  54.860 -50.122  1.00  0.00     0.321 C 
HETATM   15  N   UNK A   0     -40.176  54.177 -50.664  1.00  0.00    -0.309 N 
HETATM   16  O   UNK A   0     -41.068  55.429 -49.043  1.00  0.00    -0.247 OA
HETATM   17  H   UNK A   0     -39.317  54.370 -50.163  1.00  0.00     0.170 HD
ATOM     18  H   TRP A   1     -42.256  54.847 -51.845  1.00  0.00     0.164 HD
BRANCH  15  19
HETATM   19  C   UNK A   0     -40.108  53.165 -51.640  1.00  0.00     0.036 A 
HETATM   20  C   UNK A   0     -39.781  51.833 -51.370  1.00  0.00     0.039 A 
HETATM   21  C   UNK A   0     -39.665  50.945 -52.429  1.00  0.00    -0.024 A 
HETATM   22  C   UNK A   0     -39.863  51.349 -53.738  1.00  0.00    -0.026 A 
HETATM   23  C   UNK A   0     -39.270  49.514 -52.410  1.00  0.00     0.207 C 
HETATM   24  C   UNK A   0     -39.621  50.202 -54.647  1.00  0.00     0.207 C 
HETATM   25  C   UNK A   0     -40.182  52.660 -54.036  1.00  0.00     0.012 A 
HETATM   26  O   UNK A   0     -39.499  49.060 -53.766  1.00  0.00    -0.382 OA
HETATM   27  C   UNK A   0     -40.298  53.567 -52.979  1.00  0.00     0.030 A 
ENDBRANCH  15  19
ENDBRANCH   1  13
BRANCH   1  28
ATOM     28  C   TRP A   1     -44.740  54.647 -50.095  1.00  0.00     0.189 C 
BRANCH  28  29
ATOM     29  O   TRP A   1     -44.733  53.577 -51.041  1.00  0.00    -0.399 OA
ATOM     30  H   TRP A   1     -45.193  52.839 -50.602  1.00  0.00     0.209 HD
ENDBRANCH  28  29
ENDBRANCH   1  28
TORSDOF 6
ENDMDL
MODEL 3
REMARK VINA RESULT:      -8.0      2.872      4.107
REMARK  6 active torsions:
REMARK  status: ('A' for Active; 'I' for Inactive)
REMARK    1  A    between atoms: CG_8  and  CB_9 
REMARK    2  A    between atoms: CB_9  and  CA_10 
REMARK    3  A    between atoms: CA_10  and  N_11 
REMARK    4  A    between atoms: CA_10  and  C_12 
REMARK       I    between atoms: N_11  and  C_18 
REMARK    5  A    between atoms: C_12  and  O_13 
REMARK       I    between atoms: C_18  and  N_19 
REMARK    6  A    between atoms: N_19  and  C_20 
ROOT
ATOM      1  CA  TRP A   1     -42.601  54.785 -54.057  1.00  0.00     0.114 C 
ENDROOT
BRANCH   1   2
ATOM      2  CB  TRP A   1     -41.059  54.732 -53.987  1.00  0.00     0.068 C 
BRANCH   2   3
ATOM      3  CG  TRP A   1     -40.565  53.711 -53.000  1.00  0.00    -0.028 A 
ATOM      4  CD2 TRP A   1     -40.279  52.329 -53.244  1.00  0.00    -0.002 A 
ATOM      5  CE3 TRP A   1     -40.326  51.500 -54.382  1.00  0.00     0.014 A 
ATOM      6  CE2 TRP A   1     -39.884  51.765 -52.030  1.00  0.00     0.042 A 
ATOM      7  CZ3 TRP A   1     -40.006  50.143 -54.263  1.00  0.00     0.001 A 
ATOM      8  CH2 TRP A   1     -39.626  49.608 -53.035  1.00  0.00     0.002 A 
ATOM      9  CZ2 TRP A   1     -39.552  50.411 -51.893  1.00  0.00     0.030 A 
ATOM     10  NE1 TRP A   1     -39.893  52.770 -51.093  1.00  0.00    -0.365 N 
ATOM     11  HE1 TRP A   1     -39.632  52.653 -50.124  1.00  0.00     0.165 HD
ATOM     12  CD1 TRP A   1     -40.303  53.945 -51.663  1.00  0.00     0.096 A 
ENDBRANCH   2   3
ENDBRANCH   1   2
BRANCH   1  13
ATOM     13  N   TRP A   1     -43.093  55.559 -55.207  1.00  0.00    -0.336 N 
HETATM   14  C   UNK A   0     -42.789  56.862 -55.429  1.00  0.00     0.321 C 
HETATM   15  N   UNK A   0     -43.297  57.449 -56.546  1.00  0.00    -0.309 N 
HETATM   16  O   UNK A   0     -42.139  57.542 -54.638  1.00  0.00    -0.247 OA
HETATM   17  H   UNK A   0     -43.207  58.457 -56.500  1.00  0.00     0.170 HD
ATOM     18  H   TRP A   1     -43.949  55.233 -55.633  1.00  0.00     0.164 HD
BRANCH  15  19
HETATM   19  C   UNK A   0     -43.745  56.925 -57.773  1.00  0.00     0.036 A 
HETATM   20  C   UNK A   0     -45.031  57.115 -58.287  1.00  0.00     0.039 A 
HETATM   21  C   UNK A   0     -45.381  56.478 -59.468  1.00  0.00    -0.024 A 
HETATM   22  C   UNK A   0     -44.488  55.663 -60.144  1.00  0.00    -0.026 A 
HETATM   23  C   UNK A   0     -46.686  56.468 -60.174  1.00  0.00     0.207 C 
HETATM   24  C   UNK A   0     -45.156  55.085 -61.335  1.00  0.00     0.207 C 
HETATM   25  C   UNK A   0     -43.212  55.452 -59.658  1.00  0.00     0.012 A 
HETATM   26  O   UNK A   0     -46.411  55.799 -61.429  1.00  0.00    -0.382 OA
HETATM   27  C   UNK A   0     -42.847  56.085 -58.465  1.00  0.00     0.030 A 
ENDBRANCH  15  19
ENDBRANCH   1  13
BRANCH   1  28
ATOM     28  C   TRP A   1     -43.195  55.266 -52.719  1.00  0.00     0.189 C 
BRANCH  28  29
ATOM     29  O   TRP A   1     -43.946  54.219 -52.105  1.00  0.00    -0.399 OA
ATOM     30  H   TRP A   1     -44.721  54.654 -51.706  1.00  0.00     0.209 HD
ENDBRANCH  28  29
ENDBRANCH   1  28
TORSDOF 6
ENDMDL
MODEL 4
REMARK VINA RESULT:      -7.9      2.607      6.967
REMARK  6 active torsions:
REMARK  status: ('A' for Active; 'I' for Inactive)
REMARK    1  A    between atoms: CG_8  and  CB_9 
REMARK    2  A    between atoms: CB_9  and  CA_10 
REMARK    3  A    between atoms: CA_10  and  N_11 
REMARK    4  A    between atoms: CA_10  and  C_12 
REMARK       I    between atoms: N_11  and  C_18 
REMARK    5  A    between atoms: C_12  and  O_13 
REMARK       I    between atoms: C_18  and  N_19 
REMARK    6  A    between atoms: N_19  and  C_20 
ROOT
ATOM      1  CA  TRP A   1     -41.185  57.764 -54.090  1.00  0.00     0.114 C 
ENDROOT
BRANCH   1   2
ATOM      2  CB  TRP A   1     -42.613  57.847 -54.669  1.00  0.00     0.068 C 
BRANCH   2   3
ATOM      3  CG  TRP A   1     -42.827  56.892 -55.809  1.00  0.00    -0.028 A 
ATOM      4  CD2 TRP A   1     -42.584  57.127 -57.201  1.00  0.00    -0.002 A 
ATOM      5  CE3 TRP A   1     -42.085  58.215 -57.944  1.00  0.00     0.014 A 
ATOM      6  CE2 TRP A   1     -42.961  55.973 -57.891  1.00  0.00     0.042 A 
ATOM      7  CZ3 TRP A   1     -42.006  58.124 -59.338  1.00  0.00     0.001 A 
ATOM      8  CH2 TRP A   1     -42.402  56.963 -59.997  1.00  0.00     0.002 A 
ATOM      9  CZ2 TRP A   1     -42.882  55.861 -59.284  1.00  0.00     0.030 A 
ATOM     10  NE1 TRP A   1     -43.381  55.060 -56.954  1.00  0.00    -0.365 N 
ATOM     11  HE1 TRP A   1     -43.698  54.124 -57.168  1.00  0.00     0.165 HD
ATOM     12  CD1 TRP A   1     -43.308  55.600 -55.699  1.00  0.00     0.096 A 
ENDBRANCH   2   3
ENDBRANCH   1   2
BRANCH   1  13
ATOM     13  N   TRP A   1     -40.914  56.482 -53.421  1.00  0.00    -0.336 N 
HETATM   14  C   UNK A   0     -41.332  56.180 -52.166  1.00  0.00     0.321 C 
HETATM   15  N   UNK A   0     -41.028  54.947 -51.679  1.00  0.00    -0.309 N 
HETATM   16  O   UNK A   0     -41.905  56.987 -51.439  1.00  0.00    -0.247 OA
HETATM   17  H   UNK A   0     -41.177  54.906 -50.678  1.00  0.00     0.170 HD
ATOM     18  H   TRP A   1     -40.107  55.968 -53.747  1.00  0.00     0.164 HD
BRANCH  15  19
HETATM   19  C   UNK A   0     -40.726  53.725 -52.309  1.00  0.00     0.036 A 
HETATM   20  C   UNK A   0     -40.311  52.574 -51.633  1.00  0.00     0.039 A 
HETATM   21  C   UNK A   0     -39.962  51.453 -52.373  1.00  0.00    -0.024 A 
HETATM   22  C   UNK A   0     -40.015  51.453 -53.757  1.00  0.00    -0.026 A 
HETATM   23  C   UNK A   0     -39.435  50.148 -51.902  1.00  0.00     0.207 C 
HETATM   24  C   UNK A   0     -39.539  50.144 -54.266  1.00  0.00     0.207 C 
HETATM   25  C   UNK A   0     -40.417  52.577 -54.452  1.00  0.00     0.012 A 
HETATM   26  O   UNK A   0     -39.428  49.314 -53.086  1.00  0.00    -0.382 OA
HETATM   27  C   UNK A   0     -40.768  53.716 -53.719  1.00  0.00     0.030 A 
ENDBRANCH  15  19
ENDBRANCH   1  13
BRANCH   1  28
ATOM     28  C   TRP A   1     -40.885  58.979 -53.191  1.00  0.00     0.189 C 
BRANCH  28  29
ATOM     29  O   TRP A   1     -39.477  59.121 -53.001  1.00  0.00    -0.399 OA
ATOM     30  H   TRP A   1     -39.172  58.259 -52.665  1.00  0.00     0.209 HD
ENDBRANCH  28  29
ENDBRANCH   1  28
TORSDOF 6
ENDMDL
MODEL 5
REMARK VINA RESULT:      -7.7      2.240      3.325
REMARK  6 active torsions:
REMARK  status: ('A' for Active; 'I' for Inactive)
REMARK    1  A    between atoms: CG_8  and  CB_9 
REMARK    2  A    between atoms: CB_9  and  CA_10 
REMARK    3  A    between atoms: CA_10  and  N_11 
REMARK    4  A    between atoms: CA_10  and  C_12 
REMARK       I    between atoms: N_11  and  C_18 
REMARK    5  A    between atoms: C_12  and  O_13 
REMARK       I    between atoms: C_18  and  N_19 
REMARK    6  A    between atoms: N_19  and  C_20 
ROOT
ATOM      1  CA  TRP A   1     -42.557  54.780 -52.983  1.00  0.00     0.114 C 
ENDROOT
BRANCH   1   2
ATOM      2  CB  TRP A   1     -41.022  54.748 -52.816  1.00  0.00     0.068 C 
BRANCH   2   3
ATOM      3  CG  TRP A   1     -40.541  53.474 -52.179  1.00  0.00    -0.028 A 
ATOM      4  CD2 TRP A   1     -40.243  52.233 -52.828  1.00  0.00    -0.002 A 
ATOM      5  CE3 TRP A   1     -40.264  51.791 -54.166  1.00  0.00     0.014 A 
ATOM      6  CE2 TRP A   1     -39.868  51.324 -51.838  1.00  0.00     0.042 A 
ATOM      7  CZ3 TRP A   1     -39.938  50.463 -54.463  1.00  0.00     0.001 A 
ATOM      8  CH2 TRP A   1     -39.579  49.578 -53.450  1.00  0.00     0.002 A 
ATOM      9  CZ2 TRP A   1     -39.531  49.993 -52.116  1.00  0.00     0.030 A 
ATOM     10  NE1 TRP A   1     -39.900  51.994 -50.639  1.00  0.00    -0.365 N 
ATOM     11  HE1 TRP A   1     -39.657  51.585 -49.747  1.00  0.00     0.165 HD
ATOM     12  CD1 TRP A   1     -40.305  53.286 -50.830  1.00  0.00     0.096 A 
ENDBRANCH   2   3
ENDBRANCH   1   2
BRANCH   1  13
ATOM     13  N   TRP A   1     -42.999  55.746 -54.000  1.00  0.00    -0.336 N 
HETATM   14  C   UNK A   0     -42.656  57.059 -53.997  1.00  0.00     0.321 C 
HETATM   15  N   UNK A   0     -43.121  57.835 -55.013  1.00  0.00    -0.309 N 
HETATM   16  O   UNK A   0     -42.009  57.580 -53.092  1.00  0.00    -0.247 OA
HETATM   17  H   UNK A   0     -43.006  58.819 -54.800  1.00  0.00     0.170 HD
ATOM     18  H   TRP A   1     -43.853  55.520 -54.491  1.00  0.00     0.164 HD
BRANCH  15  19
HETATM   19  C   UNK A   0     -43.552  57.533 -56.319  1.00  0.00     0.036 A 
HETATM   20  C   UNK A   0     -42.776  56.860 -57.267  1.00  0.00     0.039 A 
HETATM   21  C   UNK A   0     -43.281  56.695 -58.548  1.00  0.00    -0.024 A 
HETATM   22  C   UNK A   0     -44.528  57.181 -58.904  1.00  0.00    -0.026 A 
HETATM   23  C   UNK A   0     -42.635  56.082 -59.736  1.00  0.00     0.207 C 
HETATM   24  C   UNK A   0     -44.771  56.901 -60.341  1.00  0.00     0.207 C 
HETATM   25  C   UNK A   0     -45.315  57.854 -57.990  1.00  0.00     0.012 A 
HETATM   26  O   UNK A   0     -43.688  56.023 -60.728  1.00  0.00    -0.382 OA
HETATM   27  C   UNK A   0     -44.817  58.033 -56.695  1.00  0.00     0.030 A 
ENDBRANCH  15  19
ENDBRANCH   1  13
BRANCH   1  28
ATOM     28  C   TRP A   1     -43.252  54.987 -51.624  1.00  0.00     0.189 C 
BRANCH  28  29
ATOM     29  O   TRP A   1     -44.159  53.916 -51.362  1.00  0.00    -0.399 OA
ATOM     30  H   TRP A   1     -44.933  54.086 -51.928  1.00  0.00     0.209 HD
ENDBRANCH  28  29
ENDBRANCH   1  28
TORSDOF 6
ENDMDL
MODEL 6
REMARK VINA RESULT:      -7.7      2.915      4.956
REMARK  6 active torsions:
REMARK  status: ('A' for Active; 'I' for Inactive)
REMARK    1  A    between atoms: CG_8  and  CB_9 
REMARK    2  A    between atoms: CB_9  and  CA_10 
REMARK    3  A    between atoms: CA_10  and  N_11 
REMARK    4  A    between atoms: CA_10  and  C_12 
REMARK       I    between atoms: N_11  and  C_18 
REMARK    5  A    between atoms: C_12  and  O_13 
REMARK       I    between atoms: C_18  and  N_19 
REMARK    6  A    between atoms: N_19  and  C_20 
ROOT
ATOM      1  CA  TRP A   1     -42.113  54.711 -55.575  1.00  0.00     0.114 C 
ENDROOT
BRANCH   1   2
ATOM      2  CB  TRP A   1     -40.785  53.932 -55.471  1.00  0.00     0.068 C 
BRANCH   2   3
ATOM      3  CG  TRP A   1     -40.498  53.472 -54.070  1.00  0.00    -0.028 A 
ATOM      4  CD2 TRP A   1     -40.172  52.146 -53.636  1.00  0.00    -0.002 A 
ATOM      5  CE3 TRP A   1     -39.994  50.912 -54.292  1.00  0.00     0.014 A 
ATOM      6  CE2 TRP A   1     -40.025  52.185 -52.249  1.00  0.00     0.042 A 
ATOM      7  CZ3 TRP A   1     -39.705  49.765 -53.544  1.00  0.00     0.001 A 
ATOM      8  CH2 TRP A   1     -39.578  49.836 -52.159  1.00  0.00     0.002 A 
ATOM      9  CZ2 TRP A   1     -39.730  51.050 -51.484  1.00  0.00     0.030 A 
ATOM     10  NE1 TRP A   1     -40.218  53.488 -51.857  1.00  0.00    -0.365 N 
ATOM     11  HE1 TRP A   1     -40.155  53.815 -50.903  1.00  0.00     0.165 HD
ATOM     12  CD1 TRP A   1     -40.505  54.271 -52.942  1.00  0.00     0.096 A 
ENDBRANCH   2   3
ENDBRANCH   1   2
BRANCH   1  13
ATOM     13  N   TRP A   1     -41.968  56.135 -55.236  1.00  0.00    -0.336 N 
HETATM   14  C   UNK A   0     -42.369  57.150 -56.042  1.00  0.00     0.321 C 
HETATM   15  N   UNK A   0     -42.192  58.422 -55.593  1.00  0.00    -0.309 N 
HETATM   16  O   UNK A   0     -42.815  56.971 -57.173  1.00  0.00    -0.247 OA
HETATM   17  H   UNK A   0     -42.305  59.092 -56.344  1.00  0.00     0.170 HD
ATOM     18  H   TRP A   1     -41.241  56.366 -54.574  1.00  0.00     0.164 HD
BRANCH  15  19
HETATM   19  C   UNK A   0     -42.060  58.962 -54.299  1.00  0.00     0.036 A 
HETATM   20  C   UNK A   0     -40.933  58.797 -53.490  1.00  0.00     0.039 A 
HETATM   21  C   UNK A   0     -40.955  59.308 -52.200  1.00  0.00    -0.024 A 
HETATM   22  C   UNK A   0     -42.064  59.972 -51.703  1.00  0.00    -0.026 A 
HETATM   23  C   UNK A   0     -39.925  59.208 -51.137  1.00  0.00     0.207 C 
HETATM   24  C   UNK A   0     -41.814  60.354 -50.291  1.00  0.00     0.207 C 
HETATM   25  C   UNK A   0     -43.194  60.146 -52.478  1.00  0.00     0.012 A 
HETATM   26  O   UNK A   0     -40.410  60.074 -50.082  1.00  0.00    -0.382 OA
HETATM   27  C   UNK A   0     -43.188  59.632 -53.778  1.00  0.00     0.030 A 
ENDBRANCH  15  19
ENDBRANCH   1  13
BRANCH   1  28
ATOM     28  C   TRP A   1     -43.222  54.016 -54.761  1.00  0.00     0.189 C 
BRANCH  28  29
ATOM     29  O   TRP A   1     -44.306  54.916 -54.531  1.00  0.00    -0.399 OA
ATOM     30  H   TRP A   1     -45.072  54.351 -54.319  1.00  0.00     0.209 HD
ENDBRANCH  28  29
ENDBRANCH   1  28
TORSDOF 6
ENDMDL
MODEL 7
REMARK VINA RESULT:      -7.7      2.773      3.958
REMARK  6 active torsions:
REMARK  status: ('A' for Active; 'I' for Inactive)
REMARK    1  A    between atoms: CG_8  and  CB_9 
REMARK    2  A    between atoms: CB_9  and  CA_10 
REMARK    3  A    between atoms: CA_10  and  N_11 
REMARK    4  A    between atoms: CA_10  and  C_12 
REMARK       I    between atoms: N_11  and  C_18 
REMARK    5  A    between atoms: C_12  and  O_13 
REMARK       I    between atoms: C_18  and  N_19 
REMARK    6  A    between atoms: N_19  and  C_20 
ROOT
ATOM      1  CA  TRP A   1     -41.388  55.326 -54.500  1.00  0.00     0.114 C 
ENDROOT
BRANCH   1   2
ATOM      2  CB  TRP A   1     -40.212  54.327 -54.527  1.00  0.00     0.068 C 
BRANCH   2   3
ATOM      3  CG  TRP A   1     -40.147  53.483 -53.286  1.00  0.00    -0.028 A 
ATOM      4  CD2 TRP A   1     -39.927  52.070 -53.202  1.00  0.00    -0.002 A 
ATOM      5  CE3 TRP A   1     -39.691  51.052 -54.147  1.00  0.00     0.014 A 
ATOM      6  CE2 TRP A   1     -39.985  51.718 -51.853  1.00  0.00     0.042 A 
ATOM      7  CZ3 TRP A   1     -39.550  49.727 -53.718  1.00  0.00     0.001 A 
ATOM      8  CH2 TRP A   1     -39.625  49.408 -52.365  1.00  0.00     0.002 A 
ATOM      9  CZ2 TRP A   1     -39.838  50.400 -51.403  1.00  0.00     0.030 A 
ATOM     10  NE1 TRP A   1     -40.194  52.875 -51.140  1.00  0.00    -0.365 N 
ATOM     11  HE1 TRP A   1     -40.262  52.924 -50.133  1.00  0.00     0.165 HD
ATOM     12  CD1 TRP A   1     -40.296  53.942 -51.990  1.00  0.00     0.096 A 
ENDBRANCH   2   3
ENDBRANCH   1   2
BRANCH   1  13
ATOM     13  N   TRP A   1     -41.993  55.532 -55.825  1.00  0.00    -0.336 N 
HETATM   14  C   UNK A   0     -43.033  54.804 -56.304  1.00  0.00     0.321 C 
HETATM   15  N   UNK A   0     -43.507  55.117 -57.540  1.00  0.00    -0.309 N 
HETATM   16  O   UNK A   0     -43.512  53.845 -55.703  1.00  0.00    -0.247 OA
HETATM   17  H   UNK A   0     -44.113  54.386 -57.892  1.00  0.00     0.170 HD
ATOM     18  H   TRP A   1     -41.404  55.963 -56.524  1.00  0.00     0.164 HD
BRANCH  15  19
HETATM   19  C   UNK A   0     -43.452  56.296 -58.308  1.00  0.00     0.036 A 
HETATM   20  C   UNK A   0     -44.224  57.433 -58.060  1.00  0.00     0.039 A 
HETATM   21  C   UNK A   0     -44.141  58.503 -58.938  1.00  0.00    -0.024 A 
HETATM   22  C   UNK A   0     -43.314  58.466 -60.049  1.00  0.00    -0.026 A 
HETATM   23  C   UNK A   0     -44.896  59.781 -58.931  1.00  0.00     0.207 C 
HETATM   24  C   UNK A   0     -43.475  59.723 -60.821  1.00  0.00     0.207 C 
HETATM   25  C   UNK A   0     -42.543  57.354 -60.323  1.00  0.00     0.012 A 
HETATM   26  O   UNK A   0     -44.268  60.577 -59.965  1.00  0.00    -0.382 OA
HETATM   27  C   UNK A   0     -42.620  56.265 -59.448  1.00  0.00     0.030 A 
ENDBRANCH  15  19
ENDBRANCH   1  13
BRANCH   1  28
ATOM     28  C   TRP A   1     -40.970  56.647 -53.826  1.00  0.00     0.189 C 
BRANCH  28  29
ATOM     29  O   TRP A   1     -41.878  56.977 -52.775  1.00  0.00    -0.399 OA
ATOM     30  H   TRP A   1     -41.349  57.461 -52.116  1.00  0.00     0.209 HD
ENDBRANCH  28  29
ENDBRANCH   1  28
TORSDOF 6
ENDMDL
MODEL 8
REMARK VINA RESULT:      -7.7      3.112      7.561
REMARK  6 active torsions:
REMARK  status: ('A' for Active; 'I' for Inactive)
REMARK    1  A    between atoms: CG_8  and  CB_9 
REMARK    2  A    between atoms: CB_9  and  CA_10 
REMARK    3  A    between atoms: CA_10  and  N_11 
REMARK    4  A    between atoms: CA_10  and  C_12 
REMARK       I    between atoms: N_11  and  C_18 
REMARK    5  A    between atoms: C_12  and  O_13 
REMARK       I    between atoms: C_18  and  N_19 
REMARK    6  A    between atoms: N_19  and  C_20 
ROOT
ATOM      1  CA  TRP A   1     -42.855  58.001 -55.759  1.00  0.00     0.114 C 
ENDROOT
BRANCH   1   2
ATOM      2  CB  TRP A   1     -42.043  59.265 -55.405  1.00  0.00     0.068 C 
BRANCH   2   3
ATOM      3  CG  TRP A   1     -42.364  59.787 -54.033  1.00  0.00    -0.028 A 
ATOM      4  CD2 TRP A   1     -41.603  59.611 -52.832  1.00  0.00    -0.002 A 
ATOM      5  CE3 TRP A   1     -40.387  58.970 -52.522  1.00  0.00     0.014 A 
ATOM      6  CE2 TRP A   1     -42.301  60.237 -51.800  1.00  0.00     0.042 A 
ATOM      7  CZ3 TRP A   1     -39.929  58.954 -51.200  1.00  0.00     0.001 A 
ATOM      8  CH2 TRP A   1     -40.657  59.579 -50.190  1.00  0.00     0.002 A 
ATOM      9  CZ2 TRP A   1     -41.856  60.239 -50.472  1.00  0.00     0.030 A 
ATOM     10  NE1 TRP A   1     -43.424  60.804 -52.355  1.00  0.00    -0.365 N 
ATOM     11  HE1 TRP A   1     -44.110  61.340 -51.840  1.00  0.00     0.165 HD
ATOM     12  CD1 TRP A   1     -43.474  60.539 -53.696  1.00  0.00     0.096 A 
ENDBRANCH   2   3
ENDBRANCH   1   2
BRANCH   1  13
ATOM     13  N   TRP A   1     -42.777  56.963 -54.719  1.00  0.00    -0.336 N 
HETATM   14  C   UNK A   0     -43.862  56.391 -54.137  1.00  0.00     0.321 C 
HETATM   15  N   UNK A   0     -43.643  55.428 -53.203  1.00  0.00    -0.309 N 
HETATM   16  O   UNK A   0     -45.013  56.752 -54.368  1.00  0.00    -0.247 OA
HETATM   17  H   UNK A   0     -44.486  55.235 -52.675  1.00  0.00     0.170 HD
ATOM     18  H   TRP A   1     -41.926  56.938 -54.174  1.00  0.00     0.164 HD
BRANCH  15  19
HETATM   19  C   UNK A   0     -42.556  54.566 -52.963  1.00  0.00     0.036 A 
HETATM   20  C   UNK A   0     -41.995  53.721 -53.925  1.00  0.00     0.039 A 
HETATM   21  C   UNK A   0     -40.979  52.857 -53.546  1.00  0.00    -0.024 A 
HETATM   22  C   UNK A   0     -40.513  52.814 -52.242  1.00  0.00    -0.026 A 
HETATM   23  C   UNK A   0     -40.274  51.830 -54.353  1.00  0.00     0.207 C 
HETATM   24  C   UNK A   0     -39.470  51.765 -52.129  1.00  0.00     0.207 C 
HETATM   25  C   UNK A   0     -41.051  53.633 -51.269  1.00  0.00     0.012 A 
HETATM   26  O   UNK A   0     -39.203  51.370 -53.495  1.00  0.00    -0.382 OA
HETATM   27  C   UNK A   0     -42.079  54.507 -51.636  1.00  0.00     0.030 A 
ENDBRANCH  15  19
ENDBRANCH   1  13
BRANCH   1  28
ATOM     28  C   TRP A   1     -42.468  57.473 -57.154  1.00  0.00     0.189 C 
BRANCH  28  29
ATOM     29  O   TRP A   1     -42.094  56.097 -57.078  1.00  0.00    -0.399 OA
ATOM     30  H   TRP A   1     -41.279  56.078 -56.545  1.00  0.00     0.209 HD
ENDBRANCH  28  29
ENDBRANCH   1  28
TORSDOF 6
ENDMDL
MODEL 9
REMARK VINA RESULT:      -7.6      2.944      7.151
REMARK  6 active torsions:
REMARK  status: ('A' for Active; 'I' for Inactive)
REMARK    1  A    between atoms: CG_8  and  CB_9 
REMARK    2  A    between atoms: CB_9  and  CA_10 
REMARK    3  A    between atoms: CA_10  and  N_11 
REMARK    4  A    between atoms: CA_10  and  C_12 
REMARK       I    between atoms: N_11  and  C_18 
REMARK    5  A    between atoms: C_12  and  O_13 
REMARK       I    between atoms: C_18  and  N_19 
REMARK    6  A    between atoms: N_19  and  C_20 
ROOT
ATOM      1  CA  TRP A   1     -44.708  57.346 -55.038  1.00  0.00     0.114 C 
ENDROOT
BRANCH   1   2
ATOM      2  CB  TRP A   1     -44.501  58.595 -54.154  1.00  0.00     0.068 C 
BRANCH   2   3
ATOM      3  CG  TRP A   1     -43.860  58.264 -52.836  1.00  0.00    -0.028 A 
ATOM      4  CD2 TRP A   1     -42.496  58.470 -52.453  1.00  0.00    -0.002 A 
ATOM      5  CE3 TRP A   1     -41.367  59.022 -53.091  1.00  0.00     0.014 A 
ATOM      6  CE2 TRP A   1     -42.347  57.981 -51.155  1.00  0.00     0.042 A 
ATOM      7  CZ3 TRP A   1     -40.135  59.039 -52.427  1.00  0.00     0.001 A 
ATOM      8  CH2 TRP A   1     -40.018  58.531 -51.136  1.00  0.00     0.002 A 
ATOM      9  CZ2 TRP A   1     -41.125  57.996 -50.471  1.00  0.00     0.030 A 
ATOM     10  NE1 TRP A   1     -43.580  57.528 -50.749  1.00  0.00    -0.365 N 
ATOM     11  HE1 TRP A   1     -43.775  57.133 -49.839  1.00  0.00     0.165 HD
ATOM     12  CD1 TRP A   1     -44.498  57.691 -51.751  1.00  0.00     0.096 A 
ENDBRANCH   2   3
ENDBRANCH   1   2
BRANCH   1  13
ATOM     13  N   TRP A   1     -43.523  56.475 -55.083  1.00  0.00    -0.336 N 
HETATM   14  C   UNK A   0     -42.439  56.712 -55.862  1.00  0.00     0.321 C 
HETATM   15  N   UNK A   0     -41.403  55.834 -55.788  1.00  0.00    -0.309 N 
HETATM   16  O   UNK A   0     -42.384  57.637 -56.670  1.00  0.00    -0.247 OA
HETATM   17  H   UNK A   0     -40.758  55.967 -56.559  1.00  0.00     0.170 HD
ATOM     18  H   TRP A   1     -43.665  55.511 -54.815  1.00  0.00     0.164 HD
BRANCH  15  19
HETATM   19  C   UNK A   0     -40.991  54.934 -54.787  1.00  0.00     0.036 A 
HETATM   20  C   UNK A   0     -40.574  53.623 -55.033  1.00  0.00     0.039 A 
HETATM   21  C   UNK A   0     -40.271  52.804 -53.954  1.00  0.00    -0.024 A 
HETATM   22  C   UNK A   0     -40.375  53.257 -52.650  1.00  0.00    -0.026 A 
HETATM   23  C   UNK A   0     -39.874  51.374 -53.948  1.00  0.00     0.207 C 
HETATM   24  C   UNK A   0     -40.039  52.151 -51.719  1.00  0.00     0.207 C 
HETATM   25  C   UNK A   0     -40.789  54.546 -52.376  1.00  0.00     0.012 A 
HETATM   26  O   UNK A   0     -39.513  51.107 -52.571  1.00  0.00    -0.382 OA
HETATM   27  C   UNK A   0     -41.102  55.381 -53.454  1.00  0.00     0.030 A 
ENDBRANCH  15  19
ENDBRANCH   1  13
BRANCH   1  28
ATOM     28  C   TRP A   1     -45.207  57.743 -56.441  1.00  0.00     0.189 C 
BRANCH  28  29
ATOM     29  O   TRP A   1     -46.633  57.807 -56.461  1.00  0.00    -0.399 OA
ATOM     30  H   TRP A   1     -46.883  58.299 -55.658  1.00  0.00     0.209 HD
ENDBRANCH  28  29
ENDBRANCH   1  28
TORSDOF 6
ENDMDL
MODEL 10
REMARK VINA RESULT:      -7.6      2.148      3.318
REMARK  6 active torsions:
REMARK  status: ('A' for Active; 'I' for Inactive)
REMARK    1  A    between atoms: CG_8  and  CB_9 
REMARK    2  A    between atoms: CB_9  and  CA_10 
REMARK    3  A    between atoms: CA_10  and  N_11 
REMARK    4  A    between atoms: CA_10  and  C_12 
REMARK       I    between atoms: N_11  and  C_18 
REMARK    5  A    between atoms: C_12  and  O_13 
REMARK       I    between atoms: C_18  and  N_19 
REMARK    6  A    between atoms: N_19  and  C_20 
ROOT
ATOM      1  CA  TRP A   1     -42.308  54.630 -53.426  1.00  0.00     0.114 C 
ENDROOT
BRANCH   1   2
ATOM      2  CB  TRP A   1     -40.835  54.649 -52.964  1.00  0.00     0.068 C 
BRANCH   2   3
ATOM      3  CG  TRP A   1     -40.445  53.392 -52.240  1.00  0.00    -0.028 A 
ATOM      4  CD2 TRP A   1     -40.136  52.116 -52.811  1.00  0.00    -0.002 A 
ATOM      5  CE3 TRP A   1     -40.068  51.617 -54.127  1.00  0.00     0.014 A 
ATOM      6  CE2 TRP A   1     -39.866  51.241 -51.758  1.00  0.00     0.042 A 
ATOM      7  CZ3 TRP A   1     -39.762  50.268 -54.341  1.00  0.00     0.001 A 
ATOM      8  CH2 TRP A   1     -39.510  49.418 -53.267  1.00  0.00     0.002 A 
ATOM      9  CZ2 TRP A   1     -39.551  49.891 -51.952  1.00  0.00     0.030 A 
ATOM     10  NE1 TRP A   1     -39.970  51.964 -50.593  1.00  0.00    -0.365 N 
ATOM     11  HE1 TRP A   1     -39.809  51.589 -49.669  1.00  0.00     0.165 HD
ATOM     12  CD1 TRP A   1     -40.319  53.258 -50.869  1.00  0.00     0.096 A 
ENDBRANCH   2   3
ENDBRANCH   1   2
BRANCH   1  13
ATOM     13  N   TRP A   1     -42.528  55.391 -54.666  1.00  0.00    -0.336 N 
HETATM   14  C   UNK A   0     -43.122  54.880 -55.773  1.00  0.00     0.321 C 
HETATM   15  N   UNK A   0     -43.280  55.704 -56.843  1.00  0.00    -0.309 N 
HETATM   16  O   UNK A   0     -43.457  53.701 -55.870  1.00  0.00    -0.247 OA
HETATM   17  H   UNK A   0     -43.515  55.177 -57.676  1.00  0.00     0.170 HD
ATOM     18  H   TRP A   1     -41.911  56.175 -54.825  1.00  0.00     0.164 HD
BRANCH  15  19
HETATM   19  C   UNK A   0     -43.345  57.106 -56.961  1.00  0.00     0.036 A 
HETATM   20  C   UNK A   0     -42.344  57.894 -57.536  1.00  0.00     0.039 A 
HETATM   21  C   UNK A   0     -42.487  59.273 -57.519  1.00  0.00    -0.024 A 
HETATM   22  C   UNK A   0     -43.592  59.881 -56.947  1.00  0.00    -0.026 A 
HETATM   23  C   UNK A   0     -41.547  60.317 -57.999  1.00  0.00     0.207 C 
HETATM   24  C   UNK A   0     -43.441  61.354 -57.033  1.00  0.00     0.207 C 
HETATM   25  C   UNK A   0     -44.595  59.128 -56.367  1.00  0.00     0.012 A 
HETATM   26  O   UNK A   0     -42.295  61.552 -57.894  1.00  0.00    -0.382 OA
HETATM   27  C   UNK A   0     -44.462  57.736 -56.373  1.00  0.00     0.030 A 
ENDBRANCH  15  19
ENDBRANCH   1  13
BRANCH   1  28
ATOM     28  C   TRP A   1     -43.247  55.069 -52.286  1.00  0.00     0.189 C 
BRANCH  28  29
ATOM     29  O   TRP A   1     -43.957  53.944 -51.767  1.00  0.00    -0.399 OA
ATOM     30  H   TRP A   1     -44.781  53.896 -52.283  1.00  0.00     0.209 HD
ENDBRANCH  28  29
ENDBRANCH   1  28
TORSDOF 6
ENDMDL
