MODEL 1
REMARK VINA RESULT:      -9.6      0.000      0.000
REMARK  4 active torsions:
REMARK  status: ('A' for Active; 'I' for Inactive)
REMARK    1  A    between atoms: C_4  and  N_5 
REMARK       I    between atoms: N_5  and  C_6 
REMARK    2  A    between atoms: C_6  and  C_7 
REMARK    3  A    between atoms: C_7  and  N_8 
REMARK    4  A    between atoms: C_12  and  C_13 
ROOT
HETATM    1  N   UNL     1     -40.647  54.126 -54.157  1.00  0.00    -0.304 N 
HETATM    2  C   UNL     1     -40.733  55.227 -53.318  1.00  0.00     0.261 C 
HETATM    3  O   UNL     1     -40.777  56.388 -53.686  1.00  0.00    -0.267 OA
HETATM    4  C   UNL     1     -40.648  54.665 -51.914  1.00  0.00     0.068 C 
HETATM    5  C   UNL     1     -40.983  55.341 -50.796  1.00  0.00     0.093 C 
HETATM    6  C   UNL     1     -40.986  54.666 -49.435  1.00  0.00     0.025 C 
HETATM    7  N   UNL     1     -40.989  54.106 -48.305  1.00  0.00    -0.096 N 
HETATM    8  C   UNL     1     -40.263  53.244 -52.069  1.00  0.00     0.008 A 
HETATM    9  C   UNL     1     -40.309  52.968 -53.444  1.00  0.00     0.049 A 
HETATM   10  C   UNL     1     -39.901  52.243 -51.179  1.00  0.00     0.015 A 
HETATM   11  C   UNL     1     -39.605  50.970 -51.682  1.00  0.00     0.001 A 
HETATM   12  C   UNL     1     -39.665  50.707 -53.058  1.00  0.00     0.002 A 
HETATM   13  C   UNL     1     -40.019  51.714 -53.956  1.00  0.00     0.030 A 
ENDROOT
BRANCH   5  14
HETATM   14  C   UNL     1     -41.505  56.665 -50.822  1.00  0.00     0.149 A 
HETATM   15  N   UNL     1     -40.923  57.824 -50.588  1.00  0.00    -0.228 NA
HETATM   16  C   UNL     1     -41.868  58.787 -50.844  1.00  0.00     0.086 A 
HETATM   17  C   UNL     1     -43.053  58.210 -51.281  1.00  0.00     0.062 A 
HETATM   18  C   UNL     1     -41.783  60.182 -50.742  1.00  0.00     0.034 A 
HETATM   19  N   UNL     1     -42.803  56.863 -51.247  1.00  0.00    -0.338 N 
HETATM   20  C   UNL     1     -44.178  58.949 -51.651  1.00  0.00     0.032 A 
HETATM   21  H   UNL     1     -43.463  56.146 -51.512  1.00  0.00     0.167 HD
HETATM   22  C   UNL     1     -44.073  60.341 -51.552  1.00  0.00     0.002 A 
HETATM   23  C   UNL     1     -42.899  60.951 -51.101  1.00  0.00     0.002 A 
ENDBRANCH   5  14
BRANCH   1  24
HETATM   24  C   UNL     1     -41.000  54.167 -55.557  1.00  0.00     0.235 C 
BRANCH  24  25
HETATM   25  C   UNL     1     -42.389  54.718 -55.862  1.00  0.00     0.240 C 
HETATM   26  N   UNL     1     -42.363  55.979 -56.430  1.00  0.00    -0.326 N 
HETATM   27  H   UNL     1     -41.475  56.281 -56.835  1.00  0.00     0.169 HD
HETATM   28  O   UNL     1     -43.393  54.087 -55.532  1.00  0.00    -0.271 OA
BRANCH  26  29
HETATM   29  C   UNL     1     -43.424  56.907 -56.473  1.00  0.00     0.035 A 
HETATM   30  C   UNL     1     -44.102  57.249 -57.648  1.00  0.00     0.036 A 
HETATM   31  C   UNL     1     -45.211  58.111 -57.619  1.00  0.00    -0.060 A 
HETATM   32  C   UNL     1     -45.986  58.391 -58.873  1.00  0.00     0.048 C 
HETATM   33  C   UNL     1     -45.635  58.636 -56.394  1.00  0.00     0.007 A 
HETATM   34  C   UNL     1     -44.958  58.310 -55.219  1.00  0.00     0.003 A 
HETATM   35  C   UNL     1     -43.864  57.442 -55.258  1.00  0.00     0.029 A 
ENDBRANCH  26  29
ENDBRANCH  24  25
ENDBRANCH   1  24
TORSDOF 4
ENDMDL
MODEL 2
REMARK VINA RESULT:      -9.4      2.245      6.599
REMARK  4 active torsions:
REMARK  status: ('A' for Active; 'I' for Inactive)
REMARK    1  A    between atoms: C_4  and  N_5 
REMARK       I    between atoms: N_5  and  C_6 
REMARK    2  A    between atoms: C_6  and  C_7 
REMARK    3  A    between atoms: C_7  and  N_8 
REMARK    4  A    between atoms: C_12  and  C_13 
ROOT
HETATM    1  N   UNL     1     -43.051  55.912 -56.454  1.00  0.00    -0.304 N 
HETATM    2  C   UNL     1     -43.029  56.976 -55.564  1.00  0.00     0.261 C 
HETATM    3  O   UNL     1     -43.294  56.903 -54.377  1.00  0.00    -0.267 OA
HETATM    4  C   UNL     1     -42.727  58.195 -56.410  1.00  0.00     0.068 C 
HETATM    5  C   UNL     1     -42.327  59.387 -55.922  1.00  0.00     0.093 C 
HETATM    6  C   UNL     1     -41.925  60.526 -56.845  1.00  0.00     0.025 C 
HETATM    7  N   UNL     1     -41.591  61.470 -57.611  1.00  0.00    -0.096 N 
HETATM    8  C   UNL     1     -42.839  57.750 -57.818  1.00  0.00     0.008 A 
HETATM    9  C   UNL     1     -43.004  56.357 -57.781  1.00  0.00     0.049 A 
HETATM   10  C   UNL     1     -42.812  58.407 -59.039  1.00  0.00     0.015 A 
HETATM   11  C   UNL     1     -42.936  57.652 -60.212  1.00  0.00     0.001 A 
HETATM   12  C   UNL     1     -43.090  56.260 -60.160  1.00  0.00     0.002 A 
HETATM   13  C   UNL     1     -43.127  55.597 -58.933  1.00  0.00     0.030 A 
ENDROOT
BRANCH   5  14
HETATM   14  C   UNL     1     -42.098  59.616 -54.535  1.00  0.00     0.149 A 
HETATM   15  N   UNL     1     -42.809  60.279 -53.645  1.00  0.00    -0.228 NA
HETATM   16  C   UNL     1     -42.174  60.102 -52.440  1.00  0.00     0.086 A 
HETATM   17  C   UNL     1     -41.065  59.280 -52.584  1.00  0.00     0.062 A 
HETATM   18  C   UNL     1     -42.497  60.600 -51.170  1.00  0.00     0.034 A 
HETATM   19  N   UNL     1     -41.029  58.995 -53.924  1.00  0.00    -0.338 N 
HETATM   20  C   UNL     1     -40.247  58.896 -51.518  1.00  0.00     0.032 A 
HETATM   21  H   UNL     1     -40.340  58.408 -54.371  1.00  0.00     0.167 HD
HETATM   22  C   UNL     1     -40.590  59.395 -50.256  1.00  0.00     0.002 A 
HETATM   23  C   UNL     1     -41.692  60.237 -50.082  1.00  0.00     0.002 A 
ENDBRANCH   5  14
BRANCH   1  24
HETATM   24  C   UNL     1     -42.990  54.530 -56.037  1.00  0.00     0.235 C 
BRANCH  24  25
HETATM   25  C   UNL     1     -41.839  54.183 -55.098  1.00  0.00     0.240 C 
HETATM   26  N   UNL     1     -42.257  53.862 -53.819  1.00  0.00    -0.326 N 
HETATM   27  H   UNL     1     -43.242  53.617 -53.707  1.00  0.00     0.169 HD
HETATM   28  O   UNL     1     -40.674  54.283 -55.481  1.00  0.00    -0.271 OA
BRANCH  26  29
HETATM   29  C   UNL     1     -41.473  53.876 -52.647  1.00  0.00     0.035 A 
HETATM   30  C   UNL     1     -41.645  54.806 -51.616  1.00  0.00     0.036 A 
HETATM   31  C   UNL     1     -40.897  54.718 -50.430  1.00  0.00    -0.060 A 
HETATM   32  C   UNL     1     -41.161  55.664 -49.295  1.00  0.00     0.048 C 
HETATM   33  C   UNL     1     -39.964  53.686 -50.287  1.00  0.00     0.007 A 
HETATM   34  C   UNL     1     -39.778  52.762 -51.314  1.00  0.00     0.003 A 
HETATM   35  C   UNL     1     -40.536  52.851 -52.484  1.00  0.00     0.029 A 
ENDBRANCH  26  29
ENDBRANCH  24  25
ENDBRANCH   1  24
TORSDOF 4
ENDMDL
MODEL 3
REMARK VINA RESULT:      -9.1      2.266      7.912
REMARK  4 active torsions:
REMARK  status: ('A' for Active; 'I' for Inactive)
REMARK    1  A    between atoms: C_4  and  N_5 
REMARK       I    between atoms: N_5  and  C_6 
REMARK    2  A    between atoms: C_6  and  C_7 
REMARK    3  A    between atoms: C_7  and  N_8 
REMARK    4  A    between atoms: C_12  and  C_13 
ROOT
HETATM    1  N   UNL     1     -42.644  55.998 -53.434  1.00  0.00    -0.304 N 
HETATM    2  C   UNL     1     -42.860  56.104 -54.800  1.00  0.00     0.261 C 
HETATM    3  O   UNL     1     -43.237  55.198 -55.523  1.00  0.00    -0.267 OA
HETATM    4  C   UNL     1     -42.425  57.508 -55.164  1.00  0.00     0.068 C 
HETATM    5  C   UNL     1     -42.733  58.132 -56.319  1.00  0.00     0.093 C 
HETATM    6  C   UNL     1     -42.363  59.586 -56.557  1.00  0.00     0.025 C 
HETATM    7  N   UNL     1     -42.056  60.793 -56.754  1.00  0.00    -0.096 N 
HETATM    8  C   UNL     1     -41.739  58.044 -53.966  1.00  0.00     0.008 A 
HETATM    9  C   UNL     1     -41.931  57.100 -52.944  1.00  0.00     0.049 A 
HETATM   10  C   UNL     1     -41.014  59.197 -53.707  1.00  0.00     0.015 A 
HETATM   11  C   UNL     1     -40.503  59.397 -52.419  1.00  0.00     0.001 A 
HETATM   12  C   UNL     1     -40.712  58.450 -51.406  1.00  0.00     0.002 A 
HETATM   13  C   UNL     1     -41.432  57.284 -51.665  1.00  0.00     0.030 A 
ENDROOT
BRANCH   5  14
HETATM   14  C   UNL     1     -43.556  57.540 -57.320  1.00  0.00     0.149 A 
HETATM   15  N   UNL     1     -44.783  57.827 -57.704  1.00  0.00    -0.228 NA
HETATM   16  C   UNL     1     -45.053  57.004 -58.770  1.00  0.00     0.086 A 
HETATM   17  C   UNL     1     -43.952  56.215 -59.074  1.00  0.00     0.062 A 
HETATM   18  C   UNL     1     -46.215  56.885 -59.544  1.00  0.00     0.034 A 
HETATM   19  N   UNL     1     -43.019  56.563 -58.133  1.00  0.00    -0.338 N 
HETATM   20  C   UNL     1     -43.924  55.307 -60.135  1.00  0.00     0.032 A 
HETATM   21  H   UNL     1     -42.088  56.175 -58.071  1.00  0.00     0.167 HD
HETATM   22  C   UNL     1     -45.090  55.209 -60.903  1.00  0.00     0.002 A 
HETATM   23  C   UNL     1     -46.220  55.978 -60.613  1.00  0.00     0.002 A 
ENDBRANCH   5  14
BRANCH   1  24
HETATM   24  C   UNL     1     -43.210  54.946 -52.622  1.00  0.00     0.235 C 
BRANCH  24  25
HETATM   25  C   UNL     1     -42.222  53.885 -52.149  1.00  0.00     0.240 C 
HETATM   26  N   UNL     1     -41.416  53.400 -53.164  1.00  0.00    -0.326 N 
HETATM   27  H   UNL     1     -41.358  53.966 -54.013  1.00  0.00     0.169 HD
HETATM   28  O   UNL     1     -42.251  53.484 -50.986  1.00  0.00    -0.271 OA
BRANCH  26  29
HETATM   29  C   UNL     1     -40.697  52.188 -53.164  1.00  0.00     0.035 A 
HETATM   30  C   UNL     1     -40.209  51.580 -52.002  1.00  0.00     0.036 A 
HETATM   31  C   UNL     1     -39.579  50.326 -52.051  1.00  0.00    -0.060 A 
HETATM   32  C   UNL     1     -39.147  49.645 -50.785  1.00  0.00     0.048 C 
HETATM   33  C   UNL     1     -39.434  49.682 -53.284  1.00  0.00     0.007 A 
HETATM   34  C   UNL     1     -39.907  50.285 -54.449  1.00  0.00     0.003 A 
HETATM   35  C   UNL     1     -40.544  51.527 -54.388  1.00  0.00     0.029 A 
ENDBRANCH  26  29
ENDBRANCH  24  25
ENDBRANCH   1  24
TORSDOF 4
ENDMDL
MODEL 4
REMARK VINA RESULT:      -8.7      0.869      1.500
REMARK  4 active torsions:
REMARK  status: ('A' for Active; 'I' for Inactive)
REMARK    1  A    between atoms: C_4  and  N_5 
REMARK       I    between atoms: N_5  and  C_6 
REMARK    2  A    between atoms: C_6  and  C_7 
REMARK    3  A    between atoms: C_7  and  N_8 
REMARK    4  A    between atoms: C_12  and  C_13 
ROOT
HETATM    1  N   UNL     1     -40.727  54.652 -54.483  1.00  0.00    -0.304 N 
HETATM    2  C   UNL     1     -40.927  55.714 -53.613  1.00  0.00     0.261 C 
HETATM    3  O   UNL     1     -41.012  56.884 -53.943  1.00  0.00    -0.267 OA
HETATM    4  C   UNL     1     -40.900  55.104 -52.227  1.00  0.00     0.068 C 
HETATM    5  C   UNL     1     -41.341  55.717 -51.111  1.00  0.00     0.093 C 
HETATM    6  C   UNL     1     -41.392  54.991 -49.776  1.00  0.00     0.025 C 
HETATM    7  N   UNL     1     -41.435  54.389 -48.670  1.00  0.00    -0.096 N 
HETATM    8  C   UNL     1     -40.427  53.712 -52.406  1.00  0.00     0.008 A 
HETATM    9  C   UNL     1     -40.371  53.487 -53.791  1.00  0.00     0.049 A 
HETATM   10  C   UNL     1     -40.067  52.699 -51.530  1.00  0.00     0.015 A 
HETATM   11  C   UNL     1     -39.669  51.463 -52.057  1.00  0.00     0.001 A 
HETATM   12  C   UNL     1     -39.628  51.251 -53.442  1.00  0.00     0.002 A 
HETATM   13  C   UNL     1     -39.980  52.271 -54.326  1.00  0.00     0.030 A 
ENDROOT
BRANCH   5  14
HETATM   14  C   UNL     1     -41.934  57.012 -51.124  1.00  0.00     0.149 A 
HETATM   15  N   UNL     1     -43.183  57.384 -51.316  1.00  0.00    -0.228 NA
HETATM   16  C   UNL     1     -43.212  58.744 -51.129  1.00  0.00     0.086 A 
HETATM   17  C   UNL     1     -41.955  59.219 -50.778  1.00  0.00     0.062 A 
HETATM   18  C   UNL     1     -44.281  59.644 -51.226  1.00  0.00     0.034 A 
HETATM   19  N   UNL     1     -41.158  58.104 -50.793  1.00  0.00    -0.338 N 
HETATM   20  C   UNL     1     -41.692  60.560 -50.489  1.00  0.00     0.032 A 
HETATM   21  H   UNL     1     -40.172  58.097 -50.575  1.00  0.00     0.167 HD
HETATM   22  C   UNL     1     -42.774  61.443 -50.582  1.00  0.00     0.002 A 
HETATM   23  C   UNL     1     -44.047  60.998 -50.949  1.00  0.00     0.002 A 
ENDBRANCH   5  14
BRANCH   1  24
HETATM   24  C   UNL     1     -40.994  54.728 -55.901  1.00  0.00     0.235 C 
BRANCH  24  25
HETATM   25  C   UNL     1     -42.442  55.024 -56.276  1.00  0.00     0.240 C 
HETATM   26  N   UNL     1     -42.564  55.734 -57.458  1.00  0.00    -0.326 N 
HETATM   27  H   UNL     1     -41.751  55.738 -58.076  1.00  0.00     0.169 HD
HETATM   28  O   UNL     1     -43.356  54.710 -55.516  1.00  0.00    -0.271 OA
BRANCH  26  29
HETATM   29  C   UNL     1     -43.680  56.485 -57.878  1.00  0.00     0.035 A 
HETATM   30  C   UNL     1     -44.487  56.126 -58.963  1.00  0.00     0.036 A 
HETATM   31  C   UNL     1     -45.641  56.861 -59.283  1.00  0.00    -0.060 A 
HETATM   32  C   UNL     1     -46.548  56.406 -60.388  1.00  0.00     0.048 C 
HETATM   33  C   UNL     1     -45.979  57.972 -58.504  1.00  0.00     0.007 A 
HETATM   34  C   UNL     1     -45.174  58.346 -57.429  1.00  0.00     0.003 A 
HETATM   35  C   UNL     1     -44.036  57.600 -57.112  1.00  0.00     0.029 A 
ENDBRANCH  26  29
ENDBRANCH  24  25
ENDBRANCH   1  24
TORSDOF 4
ENDMDL
MODEL 5
REMARK VINA RESULT:      -8.7      2.285      6.577
REMARK  4 active torsions:
REMARK  status: ('A' for Active; 'I' for Inactive)
REMARK    1  A    between atoms: C_4  and  N_5 
REMARK       I    between atoms: N_5  and  C_6 
REMARK    2  A    between atoms: C_6  and  C_7 
REMARK    3  A    between atoms: C_7  and  N_8 
REMARK    4  A    between atoms: C_12  and  C_13 
ROOT
HETATM    1  N   UNL     1     -42.364  56.391 -52.595  1.00  0.00    -0.304 N 
HETATM    2  C   UNL     1     -43.252  57.402 -52.256  1.00  0.00     0.261 C 
HETATM    3  O   UNL     1     -43.574  57.702 -51.120  1.00  0.00    -0.267 OA
HETATM    4  C   UNL     1     -43.776  57.929 -53.576  1.00  0.00     0.068 C 
HETATM    5  C   UNL     1     -44.430  59.098 -53.729  1.00  0.00     0.093 C 
HETATM    6  C   UNL     1     -44.817  59.615 -55.106  1.00  0.00     0.025 C 
HETATM    7  N   UNL     1     -45.137  60.043 -56.247  1.00  0.00    -0.096 N 
HETATM    8  C   UNL     1     -43.307  56.977 -54.608  1.00  0.00     0.008 A 
HETATM    9  C   UNL     1     -42.434  56.089 -53.961  1.00  0.00     0.049 A 
HETATM   10  C   UNL     1     -43.558  56.828 -55.964  1.00  0.00     0.015 A 
HETATM   11  C   UNL     1     -42.915  55.795 -56.658  1.00  0.00     0.001 A 
HETATM   12  C   UNL     1     -42.037  54.922 -56.000  1.00  0.00     0.002 A 
HETATM   13  C   UNL     1     -41.790  55.064 -54.634  1.00  0.00     0.030 A 
ENDROOT
BRANCH   5  14
HETATM   14  C   UNL     1     -44.663  60.000 -52.652  1.00  0.00     0.149 A 
HETATM   15  N   UNL     1     -45.733  60.194 -51.909  1.00  0.00    -0.228 NA
HETATM   16  C   UNL     1     -45.377  61.118 -50.957  1.00  0.00     0.086 A 
HETATM   17  C   UNL     1     -44.042  61.475 -51.094  1.00  0.00     0.062 A 
HETATM   18  C   UNL     1     -46.136  61.689 -49.927  1.00  0.00     0.034 A 
HETATM   19  N   UNL     1     -43.613  60.763 -52.183  1.00  0.00    -0.338 N 
HETATM   20  C   UNL     1     -43.394  62.370 -50.240  1.00  0.00     0.032 A 
HETATM   21  H   UNL     1     -42.675  60.788 -52.556  1.00  0.00     0.167 HD
HETATM   22  C   UNL     1     -44.165  62.924 -49.211  1.00  0.00     0.002 A 
HETATM   23  C   UNL     1     -45.515  62.595 -49.057  1.00  0.00     0.002 A 
ENDBRANCH   5  14
BRANCH   1  24
HETATM   24  C   UNL     1     -41.406  55.835 -51.667  1.00  0.00     0.235 C 
BRANCH  24  25
HETATM   25  C   UNL     1     -41.513  54.330 -51.447  1.00  0.00     0.240 C 
HETATM   26  N   UNL     1     -40.307  53.670 -51.603  1.00  0.00    -0.326 N 
HETATM   27  H   UNL     1     -39.462  54.243 -51.564  1.00  0.00     0.169 HD
HETATM   28  O   UNL     1     -42.607  53.809 -51.238  1.00  0.00    -0.271 OA
BRANCH  26  29
HETATM   29  C   UNL     1     -40.124  52.294 -51.850  1.00  0.00     0.035 A 
HETATM   30  C   UNL     1     -40.015  51.749 -53.134  1.00  0.00     0.036 A 
HETATM   31  C   UNL     1     -39.743  50.384 -53.321  1.00  0.00    -0.060 A 
HETATM   32  C   UNL     1     -39.533  49.834 -54.701  1.00  0.00     0.048 C 
HETATM   33  C   UNL     1     -39.586  49.560 -52.202  1.00  0.00     0.007 A 
HETATM   34  C   UNL     1     -39.705  50.092 -50.918  1.00  0.00     0.003 A 
HETATM   35  C   UNL     1     -39.963  51.454 -50.744  1.00  0.00     0.029 A 
ENDBRANCH  26  29
ENDBRANCH  24  25
ENDBRANCH   1  24
TORSDOF 4
ENDMDL
MODEL 6
REMARK VINA RESULT:      -8.2      2.104      6.461
REMARK  4 active torsions:
REMARK  status: ('A' for Active; 'I' for Inactive)
REMARK    1  A    between atoms: C_4  and  N_5 
REMARK       I    between atoms: N_5  and  C_6 
REMARK    2  A    between atoms: C_6  and  C_7 
REMARK    3  A    between atoms: C_7  and  N_8 
REMARK    4  A    between atoms: C_12  and  C_13 
ROOT
HETATM    1  N   UNL     1     -44.605  59.740 -53.050  1.00  0.00    -0.304 N 
HETATM    2  C   UNL     1     -43.829  58.598 -52.904  1.00  0.00     0.261 C 
HETATM    3  O   UNL     1     -44.136  57.487 -53.298  1.00  0.00    -0.267 OA
HETATM    4  C   UNL     1     -42.635  59.032 -52.081  1.00  0.00     0.068 C 
HETATM    5  C   UNL     1     -41.494  58.325 -51.952  1.00  0.00     0.093 C 
HETATM    6  C   UNL     1     -40.294  58.886 -51.208  1.00  0.00     0.025 C 
HETATM    7  N   UNL     1     -39.298  59.351 -50.590  1.00  0.00    -0.096 N 
HETATM    8  C   UNL     1     -42.950  60.395 -51.595  1.00  0.00     0.008 A 
HETATM    9  C   UNL     1     -44.136  60.781 -52.238  1.00  0.00     0.049 A 
HETATM   10  C   UNL     1     -42.337  61.264 -50.705  1.00  0.00     0.015 A 
HETATM   11  C   UNL     1     -42.917  62.520 -50.483  1.00  0.00     0.001 A 
HETATM   12  C   UNL     1     -44.097  62.895 -51.141  1.00  0.00     0.002 A 
HETATM   13  C   UNL     1     -44.721  62.019 -52.030  1.00  0.00     0.030 A 
ENDROOT
BRANCH   5  14
HETATM   14  C   UNL     1     -41.271  57.090 -52.626  1.00  0.00     0.149 A 
HETATM   15  N   UNL     1     -40.749  56.839 -53.810  1.00  0.00    -0.228 NA
HETATM   16  C   UNL     1     -40.688  55.472 -53.920  1.00  0.00     0.086 A 
HETATM   17  C   UNL     1     -41.151  54.864 -52.761  1.00  0.00     0.062 A 
HETATM   18  C   UNL     1     -40.231  54.673 -54.977  1.00  0.00     0.034 A 
HETATM   19  N   UNL     1     -41.527  55.910 -51.960  1.00  0.00    -0.338 N 
HETATM   20  C   UNL     1     -41.171  53.480 -52.573  1.00  0.00     0.032 A 
HETATM   21  H   UNL     1     -41.908  55.816 -51.029  1.00  0.00     0.167 HD
HETATM   22  C   UNL     1     -40.702  52.698 -53.635  1.00  0.00     0.002 A 
HETATM   23  C   UNL     1     -40.245  53.281 -54.820  1.00  0.00     0.002 A 
ENDBRANCH   5  14
BRANCH   1  24
HETATM   24  C   UNL     1     -45.667  59.856 -54.022  1.00  0.00     0.235 C 
BRANCH  24  25
HETATM   25  C   UNL     1     -45.243  59.674 -55.475  1.00  0.00     0.240 C 
HETATM   26  N   UNL     1     -46.074  58.825 -56.184  1.00  0.00    -0.326 N 
HETATM   27  H   UNL     1     -46.995  58.645 -55.781  1.00  0.00     0.169 HD
HETATM   28  O   UNL     1     -44.206  60.191 -55.888  1.00  0.00    -0.271 OA
BRANCH  26  29
HETATM   29  C   UNL     1     -45.768  58.152 -57.384  1.00  0.00     0.035 A 
HETATM   30  C   UNL     1     -44.513  57.598 -57.659  1.00  0.00     0.036 A 
HETATM   31  C   UNL     1     -44.289  56.859 -58.832  1.00  0.00    -0.060 A 
HETATM   32  C   UNL     1     -42.966  56.191 -59.067  1.00  0.00     0.048 C 
HETATM   33  C   UNL     1     -45.340  56.683 -59.739  1.00  0.00     0.007 A 
HETATM   34  C   UNL     1     -46.591  57.241 -59.479  1.00  0.00     0.003 A 
HETATM   35  C   UNL     1     -46.806  57.964 -58.303  1.00  0.00     0.029 A 
ENDBRANCH  26  29
ENDBRANCH  24  25
ENDBRANCH   1  24
TORSDOF 4
ENDMDL
MODEL 7
REMARK VINA RESULT:      -8.2      2.177      6.232
REMARK  4 active torsions:
REMARK  status: ('A' for Active; 'I' for Inactive)
REMARK    1  A    between atoms: C_4  and  N_5 
REMARK       I    between atoms: N_5  and  C_6 
REMARK    2  A    between atoms: C_6  and  C_7 
REMARK    3  A    between atoms: C_7  and  N_8 
REMARK    4  A    between atoms: C_12  and  C_13 
ROOT
HETATM    1  N   UNL     1     -44.756  58.387 -53.763  1.00  0.00    -0.304 N 
HETATM    2  C   UNL     1     -43.930  57.389 -53.266  1.00  0.00     0.261 C 
HETATM    3  O   UNL     1     -44.017  56.205 -53.541  1.00  0.00    -0.267 OA
HETATM    4  C   UNL     1     -43.025  58.082 -52.270  1.00  0.00     0.068 C 
HETATM    5  C   UNL     1     -41.886  57.557 -51.774  1.00  0.00     0.093 C 
HETATM    6  C   UNL     1     -40.968  58.366 -50.871  1.00  0.00     0.025 C 
HETATM    7  N   UNL     1     -40.207  59.037 -50.123  1.00  0.00    -0.096 N 
HETATM    8  C   UNL     1     -43.585  59.441 -52.088  1.00  0.00     0.008 A 
HETATM    9  C   UNL     1     -44.609  59.577 -53.039  1.00  0.00     0.049 A 
HETATM   10  C   UNL     1     -43.301  60.492 -51.229  1.00  0.00     0.015 A 
HETATM   11  C   UNL     1     -44.041  61.675 -51.346  1.00  0.00     0.001 A 
HETATM   12  C   UNL     1     -45.054  61.800 -52.307  1.00  0.00     0.002 A 
HETATM   13  C   UNL     1     -45.348  60.742 -53.166  1.00  0.00     0.030 A 
ENDROOT
BRANCH   5  14
HETATM   14  C   UNL     1     -41.381  56.288 -52.177  1.00  0.00     0.149 A 
HETATM   15  N   UNL     1     -41.240  55.165 -51.503  1.00  0.00    -0.228 NA
HETATM   16  C   UNL     1     -40.793  54.230 -52.404  1.00  0.00     0.086 A 
HETATM   17  C   UNL     1     -40.689  54.782 -53.674  1.00  0.00     0.062 A 
HETATM   18  C   UNL     1     -40.468  52.880 -52.215  1.00  0.00     0.034 A 
HETATM   19  N   UNL     1     -41.055  56.091 -53.503  1.00  0.00    -0.338 N 
HETATM   20  C   UNL     1     -40.293  54.054 -54.799  1.00  0.00     0.032 A 
HETATM   21  H   UNL     1     -41.095  56.780 -54.240  1.00  0.00     0.167 HD
HETATM   22  C   UNL     1     -39.981  52.705 -54.593  1.00  0.00     0.002 A 
HETATM   23  C   UNL     1     -40.061  52.126 -53.324  1.00  0.00     0.002 A 
ENDBRANCH   5  14
BRANCH   1  24
HETATM   24  C   UNL     1     -45.553  58.234 -54.958  1.00  0.00     0.235 C 
BRANCH  24  25
HETATM   25  C   UNL     1     -44.848  58.597 -56.261  1.00  0.00     0.240 C 
HETATM   26  N   UNL     1     -44.825  57.559 -57.176  1.00  0.00    -0.326 N 
HETATM   27  H   UNL     1     -45.490  56.798 -57.023  1.00  0.00     0.169 HD
HETATM   28  O   UNL     1     -44.302  59.692 -56.387  1.00  0.00    -0.271 OA
BRANCH  26  29
HETATM   29  C   UNL     1     -43.953  57.422 -58.275  1.00  0.00     0.035 A 
HETATM   30  C   UNL     1     -43.491  58.504 -59.032  1.00  0.00     0.036 A 
HETATM   31  C   UNL     1     -42.552  58.320 -60.060  1.00  0.00    -0.060 A 
HETATM   32  C   UNL     1     -41.994  59.502 -60.798  1.00  0.00     0.048 C 
HETATM   33  C   UNL     1     -42.079  57.032 -60.329  1.00  0.00     0.007 A 
HETATM   34  C   UNL     1     -42.542  55.946 -59.588  1.00  0.00     0.003 A 
HETATM   35  C   UNL     1     -43.467  56.142 -58.560  1.00  0.00     0.029 A 
ENDBRANCH  26  29
ENDBRANCH  24  25
ENDBRANCH   1  24
TORSDOF 4
ENDMDL
MODEL 8
REMARK VINA RESULT:      -8.2      2.343      8.280
REMARK  4 active torsions:
REMARK  status: ('A' for Active; 'I' for Inactive)
REMARK    1  A    between atoms: C_4  and  N_5 
REMARK       I    between atoms: N_5  and  C_6 
REMARK    2  A    between atoms: C_6  and  C_7 
REMARK    3  A    between atoms: C_7  and  N_8 
REMARK    4  A    between atoms: C_12  and  C_13 
ROOT
HETATM    1  N   UNL     1     -43.570  57.658 -53.410  1.00  0.00    -0.304 N 
HETATM    2  C   UNL     1     -43.656  57.537 -54.790  1.00  0.00     0.261 C 
HETATM    3  O   UNL     1     -43.607  56.486 -55.406  1.00  0.00    -0.267 OA
HETATM    4  C   UNL     1     -43.706  58.957 -55.312  1.00  0.00     0.068 C 
HETATM    5  C   UNL     1     -44.084  59.303 -56.559  1.00  0.00     0.093 C 
HETATM    6  C   UNL     1     -44.226  60.760 -56.968  1.00  0.00     0.025 C 
HETATM    7  N   UNL     1     -44.344  61.969 -57.307  1.00  0.00    -0.096 N 
HETATM    8  C   UNL     1     -43.391  59.826 -54.155  1.00  0.00     0.008 A 
HETATM    9  C   UNL     1     -43.350  58.988 -53.029  1.00  0.00     0.049 A 
HETATM   10  C   UNL     1     -43.153  61.185 -54.009  1.00  0.00     0.015 A 
HETATM   11  C   UNL     1     -42.891  61.688 -52.728  1.00  0.00     0.001 A 
HETATM   12  C   UNL     1     -42.864  60.840 -51.612  1.00  0.00     0.002 A 
HETATM   13  C   UNL     1     -43.094  59.473 -51.757  1.00  0.00     0.030 A 
ENDROOT
BRANCH   5  14
HETATM   14  C   UNL     1     -44.529  58.353 -57.522  1.00  0.00     0.149 A 
HETATM   15  N   UNL     1     -45.723  58.150 -58.042  1.00  0.00    -0.228 NA
HETATM   16  C   UNL     1     -45.566  57.169 -58.990  1.00  0.00     0.086 A 
HETATM   17  C   UNL     1     -44.235  56.783 -59.084  1.00  0.00     0.062 A 
HETATM   18  C   UNL     1     -46.514  56.566 -59.828  1.00  0.00     0.034 A 
HETATM   19  N   UNL     1     -43.599  57.539 -58.134  1.00  0.00    -0.338 N 
HETATM   20  C   UNL     1     -43.773  55.828 -59.992  1.00  0.00     0.032 A 
HETATM   21  H   UNL     1     -42.608  57.508 -57.941  1.00  0.00     0.167 HD
HETATM   22  C   UNL     1     -44.732  55.244 -60.827  1.00  0.00     0.002 A 
HETATM   23  C   UNL     1     -46.081  55.600 -60.746  1.00  0.00     0.002 A 
ENDBRANCH   5  14
BRANCH   1  24
HETATM   24  C   UNL     1     -43.815  56.562 -52.502  1.00  0.00     0.235 C 
BRANCH  24  25
HETATM   25  C   UNL     1     -42.575  55.791 -52.063  1.00  0.00     0.240 C 
HETATM   26  N   UNL     1     -42.151  54.863 -52.997  1.00  0.00    -0.326 N 
HETATM   27  H   UNL     1     -42.504  54.977 -53.949  1.00  0.00     0.169 HD
HETATM   28  O   UNL     1     -42.101  55.965 -50.941  1.00  0.00    -0.271 OA
BRANCH  26  29
HETATM   29  C   UNL     1     -41.314  53.753 -52.764  1.00  0.00     0.035 A 
HETATM   30  C   UNL     1     -41.115  52.728 -53.696  1.00  0.00     0.036 A 
HETATM   31  C   UNL     1     -40.199  51.693 -53.448  1.00  0.00    -0.060 A 
HETATM   32  C   UNL     1     -39.926  50.655 -54.497  1.00  0.00     0.048 C 
HETATM   33  C   UNL     1     -39.483  51.688 -52.247  1.00  0.00     0.007 A 
HETATM   34  C   UNL     1     -39.684  52.698 -51.307  1.00  0.00     0.003 A 
HETATM   35  C   UNL     1     -40.587  53.730 -51.569  1.00  0.00     0.029 A 
ENDBRANCH  26  29
ENDBRANCH  24  25
ENDBRANCH   1  24
TORSDOF 4
ENDMDL
MODEL 9
REMARK VINA RESULT:      -7.9      2.460      6.783
REMARK  4 active torsions:
REMARK  status: ('A' for Active; 'I' for Inactive)
REMARK    1  A    between atoms: C_4  and  N_5 
REMARK       I    between atoms: N_5  and  C_6 
REMARK    2  A    between atoms: C_6  and  C_7 
REMARK    3  A    between atoms: C_7  and  N_8 
REMARK    4  A    between atoms: C_12  and  C_13 
ROOT
HETATM    1  N   UNL     1     -42.383  57.135 -51.985  1.00  0.00    -0.304 N 
HETATM    2  C   UNL     1     -42.733  56.675 -53.246  1.00  0.00     0.261 C 
HETATM    3  O   UNL     1     -43.422  57.281 -54.047  1.00  0.00    -0.267 OA
HETATM    4  C   UNL     1     -42.175  55.270 -53.325  1.00  0.00     0.068 C 
HETATM    5  C   UNL     1     -42.028  54.566 -54.466  1.00  0.00     0.093 C 
HETATM    6  C   UNL     1     -41.347  53.208 -54.477  1.00  0.00     0.025 C 
HETATM    7  N   UNL     1     -40.781  52.081 -54.485  1.00  0.00    -0.096 N 
HETATM    8  C   UNL     1     -41.734  54.930 -51.953  1.00  0.00     0.008 A 
HETATM    9  C   UNL     1     -41.855  56.106 -51.196  1.00  0.00     0.049 A 
HETATM   10  C   UNL     1     -41.272  53.769 -51.351  1.00  0.00     0.015 A 
HETATM   11  C   UNL     1     -40.920  53.808 -49.996  1.00  0.00     0.001 A 
HETATM   12  C   UNL     1     -41.036  54.993 -49.255  1.00  0.00     0.002 A 
HETATM   13  C   UNL     1     -41.510  56.159 -49.855  1.00  0.00     0.030 A 
ENDROOT
BRANCH   5  14
HETATM   14  C   UNL     1     -42.346  55.099 -55.748  1.00  0.00     0.149 A 
HETATM   15  N   UNL     1     -43.182  54.672 -56.673  1.00  0.00    -0.228 NA
HETATM   16  C   UNL     1     -43.164  55.616 -57.671  1.00  0.00     0.086 A 
HETATM   17  C   UNL     1     -42.323  56.669 -57.337  1.00  0.00     0.062 A 
HETATM   18  C   UNL     1     -43.855  55.652 -58.889  1.00  0.00     0.034 A 
HETATM   19  N   UNL     1     -41.806  56.313 -56.119  1.00  0.00    -0.338 N 
HETATM   20  C   UNL     1     -42.136  57.791 -58.147  1.00  0.00     0.032 A 
HETATM   21  H   UNL     1     -41.153  56.868 -55.584  1.00  0.00     0.167 HD
HETATM   22  C   UNL     1     -42.841  57.814 -59.356  1.00  0.00     0.002 A 
HETATM   23  C   UNL     1     -43.683  56.762 -59.727  1.00  0.00     0.002 A 
ENDBRANCH   5  14
BRANCH   1  24
HETATM   24  C   UNL     1     -42.437  58.529 -51.607  1.00  0.00     0.235 C 
BRANCH  24  25
HETATM   25  C   UNL     1     -43.791  59.013 -51.100  1.00  0.00     0.240 C 
HETATM   26  N   UNL     1     -43.814  60.367 -50.816  1.00  0.00    -0.326 N 
HETATM   27  H   UNL     1     -43.066  60.933 -51.220  1.00  0.00     0.169 HD
HETATM   28  O   UNL     1     -44.704  58.212 -50.906  1.00  0.00    -0.271 OA
BRANCH  26  29
HETATM   29  C   UNL     1     -44.740  61.040 -49.993  1.00  0.00     0.035 A 
HETATM   30  C   UNL     1     -44.643  61.085 -48.598  1.00  0.00     0.036 A 
HETATM   31  C   UNL     1     -45.541  61.846 -47.833  1.00  0.00    -0.060 A 
HETATM   32  C   UNL     1     -45.365  61.961 -46.347  1.00  0.00     0.048 C 
HETATM   33  C   UNL     1     -46.551  62.565 -48.482  1.00  0.00     0.007 A 
HETATM   34  C   UNL     1     -46.663  62.517 -49.871  1.00  0.00     0.003 A 
HETATM   35  C   UNL     1     -45.756  61.767 -50.623  1.00  0.00     0.029 A 
ENDBRANCH  26  29
ENDBRANCH  24  25
ENDBRANCH   1  24
TORSDOF 4
ENDMDL
MODEL 10
REMARK VINA RESULT:      -7.9      2.584      8.565
REMARK  4 active torsions:
REMARK  status: ('A' for Active; 'I' for Inactive)
REMARK    1  A    between atoms: C_4  and  N_5 
REMARK       I    between atoms: N_5  and  C_6 
REMARK    2  A    between atoms: C_6  and  C_7 
REMARK    3  A    between atoms: C_7  and  N_8 
REMARK    4  A    between atoms: C_12  and  C_13 
ROOT
HETATM    1  N   UNL     1     -44.461  58.876 -53.271  1.00  0.00    -0.304 N 
HETATM    2  C   UNL     1     -44.275  58.421 -54.568  1.00  0.00     0.261 C 
HETATM    3  O   UNL     1     -44.321  57.254 -54.916  1.00  0.00    -0.267 OA
HETATM    4  C   UNL     1     -43.908  59.651 -55.371  1.00  0.00     0.068 C 
HETATM    5  C   UNL     1     -43.927  59.722 -56.718  1.00  0.00     0.093 C 
HETATM    6  C   UNL     1     -43.664  61.030 -57.446  1.00  0.00     0.025 C 
HETATM    7  N   UNL     1     -43.445  62.114 -58.050  1.00  0.00    -0.096 N 
HETATM    8  C   UNL     1     -43.668  60.726 -54.381  1.00  0.00     0.008 A 
HETATM    9  C   UNL     1     -44.049  60.207 -53.134  1.00  0.00     0.049 A 
HETATM   10  C   UNL     1     -43.182  62.022 -54.467  1.00  0.00     0.015 A 
HETATM   11  C   UNL     1     -43.099  62.788 -53.298  1.00  0.00     0.001 A 
HETATM   12  C   UNL     1     -43.493  62.260 -52.061  1.00  0.00     0.002 A 
HETATM   13  C   UNL     1     -43.973  60.954 -51.969  1.00  0.00     0.030 A 
ENDROOT
BRANCH   5  14
HETATM   14  C   UNL     1     -44.348  58.639 -57.542  1.00  0.00     0.149 A 
HETATM   15  N   UNL     1     -45.484  58.433 -58.177  1.00  0.00    -0.228 NA
HETATM   16  C   UNL     1     -45.317  57.276 -58.897  1.00  0.00     0.086 A 
HETATM   17  C   UNL     1     -44.033  56.774 -58.729  1.00  0.00     0.062 A 
HETATM   18  C   UNL     1     -46.213  56.598 -59.734  1.00  0.00     0.034 A 
HETATM   19  N   UNL     1     -43.441  57.648 -57.856  1.00  0.00    -0.338 N 
HETATM   20  C   UNL     1     -43.566  55.624 -59.371  1.00  0.00     0.032 A 
HETATM   21  H   UNL     1     -42.490  57.577 -57.523  1.00  0.00     0.167 HD
HETATM   22  C   UNL     1     -44.472  54.965 -60.210  1.00  0.00     0.002 A 
HETATM   23  C   UNL     1     -45.776  55.437 -60.386  1.00  0.00     0.002 A 
ENDBRANCH   5  14
BRANCH   1  24
HETATM   24  C   UNL     1     -45.124  58.100 -52.248  1.00  0.00     0.235 C 
BRANCH  24  25
HETATM   25  C   UNL     1     -44.241  57.091 -51.522  1.00  0.00     0.240 C 
HETATM   26  N   UNL     1     -43.027  56.879 -52.149  1.00  0.00    -0.326 N 
HETATM   27  H   UNL     1     -42.732  57.584 -52.827  1.00  0.00     0.169 HD
HETATM   28  O   UNL     1     -44.664  56.498 -50.530  1.00  0.00    -0.271 OA
BRANCH  26  29
HETATM   29  C   UNL     1     -42.171  55.772 -51.978  1.00  0.00     0.035 A 
HETATM   30  C   UNL     1     -41.298  55.631 -50.894  1.00  0.00     0.036 A 
HETATM   31  C   UNL     1     -40.535  54.464 -50.726  1.00  0.00    -0.060 A 
HETATM   32  C   UNL     1     -39.676  54.289 -49.507  1.00  0.00     0.048 C 
HETATM   33  C   UNL     1     -40.648  53.433 -51.664  1.00  0.00     0.007 A 
HETATM   34  C   UNL     1     -41.507  53.569 -52.754  1.00  0.00     0.003 A 
HETATM   35  C   UNL     1     -42.271  54.728 -52.905  1.00  0.00     0.029 A 
ENDBRANCH  26  29
ENDBRANCH  24  25
ENDBRANCH   1  24
TORSDOF 4
ENDMDL
