MODEL 1
REMARK VINA RESULT:      -8.7      0.000      0.000
REMARK  5 active torsions:
REMARK  status: ('A' for Active; 'I' for Inactive)
REMARK       I    between atoms: N_2  and  C_3 
REMARK    1  A    between atoms: C_3  and  C_4 
REMARK    2  A    between atoms: C_6  and  N_7 
REMARK    3  A    between atoms: N_7  and  C_8 
REMARK    4  A    between atoms: C_8  and  C_9 
REMARK    5  A    between atoms: C_19  and  O_20 
ROOT
HETATM    1  C   UNL     1     -43.211  56.366 -58.001  1.00  0.00     0.033 A 
HETATM    2  C   UNL     1     -42.856  55.447 -57.006  1.00  0.00     0.043 A 
HETATM    3  C   UNL     1     -42.582  55.864 -55.697  1.00  0.00     0.043 A 
HETATM    4  C   UNL     1     -42.717  57.238 -55.384  1.00  0.00     0.089 A 
HETATM    5  C   UNL     1     -43.051  58.160 -56.381  1.00  0.00     0.039 A 
HETATM    6  C   UNL     1     -43.289  57.725 -57.686  1.00  0.00     0.020 A 
ENDROOT
BRANCH   3   7
HETATM    7  N   UNL     1     -42.301  54.952 -54.657  1.00  0.00    -0.286 NA
HETATM    8  H   UNL     1     -42.314  55.470 -53.776  1.00  0.00     0.128 HD
BRANCH   7   9
HETATM    9  C   UNL     1     -41.131  54.077 -54.767  1.00  0.00     0.132 C 
BRANCH   9  10
HETATM   10  C   UNL     1     -40.710  53.511 -53.421  1.00  0.00    -0.034 A 
HETATM   11  C   UNL     1     -40.281  52.161 -53.239  1.00  0.00    -0.018 A 
HETATM   12  C   UNL     1     -39.915  51.736 -51.934  1.00  0.00    -0.025 A 
HETATM   13  C   UNL     1     -40.206  51.194 -54.273  1.00  0.00     0.013 A 
HETATM   14  C   UNL     1     -39.511  50.410 -51.705  1.00  0.00     0.012 A 
HETATM   15  C   UNL     1     -39.958  52.637 -50.861  1.00  0.00     0.012 A 
HETATM   16  C   UNL     1     -39.458  49.485 -52.745  1.00  0.00     0.001 A 
HETATM   17  C   UNL     1     -39.804  49.877 -54.029  1.00  0.00     0.001 A 
HETATM   18  C   UNL     1     -40.359  53.954 -51.048  1.00  0.00     0.002 A 
HETATM   19  C   UNL     1     -40.730  54.386 -52.316  1.00  0.00     0.009 A 
ENDBRANCH   9  10
ENDBRANCH   7   9
ENDBRANCH   3   7
BRANCH   4  20
HETATM   20  O   UNL     1     -42.451  57.564 -54.072  1.00  0.00    -0.354 OA
HETATM   21  C   UNL     1     -41.247  58.277 -53.819  1.00  0.00     0.210 C 
ENDBRANCH   4  20
BRANCH   1  22
HETATM   22  C   UNL     1     -43.484  55.939 -59.403  1.00  0.00     0.251 C 
HETATM   23  N   UNL     1     -44.717  55.373 -59.650  1.00  0.00    -0.361 N 
HETATM   24  C   UNL     1     -45.094  54.980 -60.984  1.00  0.00     0.149 C 
HETATM   25  H   UNL     1     -45.447  55.432 -58.952  1.00  0.00     0.162 HD
HETATM   26  O   UNL     1     -42.639  56.119 -60.273  1.00  0.00    -0.268 OA
ENDBRANCH   1  22
TORSDOF 5
ENDMDL
MODEL 2
REMARK VINA RESULT:      -8.7      1.944      5.008
REMARK  5 active torsions:
REMARK  status: ('A' for Active; 'I' for Inactive)
REMARK       I    between atoms: N_2  and  C_3 
REMARK    1  A    between atoms: C_3  and  C_4 
REMARK    2  A    between atoms: C_6  and  N_7 
REMARK    3  A    between atoms: N_7  and  C_8 
REMARK    4  A    between atoms: C_8  and  C_9 
REMARK    5  A    between atoms: C_19  and  O_20 
ROOT
HETATM    1  C   UNL     1     -41.169  58.149 -53.921  1.00  0.00     0.033 A 
HETATM    2  C   UNL     1     -40.999  56.781 -54.167  1.00  0.00     0.043 A 
HETATM    3  C   UNL     1     -41.659  56.147 -55.228  1.00  0.00     0.043 A 
HETATM    4  C   UNL     1     -42.474  56.929 -56.081  1.00  0.00     0.089 A 
HETATM    5  C   UNL     1     -42.662  58.291 -55.825  1.00  0.00     0.039 A 
HETATM    6  C   UNL     1     -42.017  58.896 -54.743  1.00  0.00     0.020 A 
ENDROOT
BRANCH   3   7
HETATM    7  N   UNL     1     -41.443  54.789 -55.548  1.00  0.00    -0.286 NA
HETATM    8  H   UNL     1     -41.589  54.679 -56.552  1.00  0.00     0.128 HD
BRANCH   7   9
HETATM    9  C   UNL     1     -42.129  53.752 -54.772  1.00  0.00     0.132 C 
BRANCH   9  10
HETATM   10  C   UNL     1     -41.209  53.090 -53.761  1.00  0.00    -0.034 A 
HETATM   11  C   UNL     1     -41.216  53.410 -52.369  1.00  0.00    -0.018 A 
HETATM   12  C   UNL     1     -40.307  52.732 -51.513  1.00  0.00    -0.025 A 
HETATM   13  C   UNL     1     -42.060  54.378 -51.770  1.00  0.00     0.013 A 
HETATM   14  C   UNL     1     -40.262  53.035 -50.142  1.00  0.00     0.012 A 
HETATM   15  C   UNL     1     -39.443  51.757 -52.032  1.00  0.00     0.012 A 
HETATM   16  C   UNL     1     -41.102  53.999 -49.590  1.00  0.00     0.001 A 
HETATM   17  C   UNL     1     -42.002  54.670 -50.404  1.00  0.00     0.001 A 
HETATM   18  C   UNL     1     -39.455  51.437 -53.383  1.00  0.00     0.002 A 
HETATM   19  C   UNL     1     -40.330  52.096 -54.238  1.00  0.00     0.009 A 
ENDBRANCH   9  10
ENDBRANCH   7   9
ENDBRANCH   3   7
BRANCH   4  20
HETATM   20  O   UNL     1     -43.070  56.237 -57.111  1.00  0.00    -0.354 OA
HETATM   21  C   UNL     1     -43.169  56.905 -58.362  1.00  0.00     0.210 C 
ENDBRANCH   4  20
BRANCH   1  22
HETATM   22  C   UNL     1     -40.490  58.833 -52.784  1.00  0.00     0.251 C 
HETATM   23  N   UNL     1     -41.232  59.010 -51.634  1.00  0.00    -0.361 N 
HETATM   24  C   UNL     1     -40.645  59.611 -50.464  1.00  0.00     0.149 C 
HETATM   25  H   UNL     1     -42.113  58.525 -51.524  1.00  0.00     0.162 HD
HETATM   26  O   UNL     1     -39.322  59.187 -52.892  1.00  0.00    -0.268 OA
ENDBRANCH   1  22
TORSDOF 5
ENDMDL
MODEL 3
REMARK VINA RESULT:      -8.4      1.090      2.563
REMARK  5 active torsions:
REMARK  status: ('A' for Active; 'I' for Inactive)
REMARK       I    between atoms: N_2  and  C_3 
REMARK    1  A    between atoms: C_3  and  C_4 
REMARK    2  A    between atoms: C_6  and  N_7 
REMARK    3  A    between atoms: N_7  and  C_8 
REMARK    4  A    between atoms: C_8  and  C_9 
REMARK    5  A    between atoms: C_19  and  O_20 
ROOT
HETATM    1  C   UNL     1     -43.718  56.591 -58.206  1.00  0.00     0.033 A 
HETATM    2  C   UNL     1     -42.909  55.648 -57.559  1.00  0.00     0.043 A 
HETATM    3  C   UNL     1     -42.237  55.960 -56.370  1.00  0.00     0.043 A 
HETATM    4  C   UNL     1     -42.427  57.244 -55.805  1.00  0.00     0.089 A 
HETATM    5  C   UNL     1     -43.217  58.195 -56.460  1.00  0.00     0.039 A 
HETATM    6  C   UNL     1     -43.853  57.870 -57.660  1.00  0.00     0.020 A 
ENDROOT
BRANCH   3   7
HETATM    7  N   UNL     1     -41.482  55.006 -55.656  1.00  0.00    -0.286 NA
HETATM    8  H   UNL     1     -40.789  54.613 -56.296  1.00  0.00     0.128 HD
BRANCH   7   9
HETATM    9  C   UNL     1     -42.177  53.968 -54.890  1.00  0.00     0.132 C 
BRANCH   9  10
HETATM   10  C   UNL     1     -41.261  53.281 -53.892  1.00  0.00    -0.034 A 
HETATM   11  C   UNL     1     -41.005  53.792 -52.583  1.00  0.00    -0.018 A 
HETATM   12  C   UNL     1     -40.125  53.069 -51.734  1.00  0.00    -0.025 A 
HETATM   13  C   UNL     1     -41.557  54.990 -52.066  1.00  0.00     0.013 A 
HETATM   14  C   UNL     1     -39.825  53.550 -50.448  1.00  0.00     0.012 A 
HETATM   15  C   UNL     1     -39.544  51.872 -52.174  1.00  0.00     0.012 A 
HETATM   16  C   UNL     1     -40.380  54.737 -49.976  1.00  0.00     0.001 A 
HETATM   17  C   UNL     1     -41.247  55.456 -50.784  1.00  0.00     0.001 A 
HETATM   18  C   UNL     1     -39.812  51.371 -53.441  1.00  0.00     0.002 A 
HETATM   19  C   UNL     1     -40.663  52.067 -54.291  1.00  0.00     0.009 A 
ENDBRANCH   9  10
ENDBRANCH   7   9
ENDBRANCH   3   7
BRANCH   4  20
HETATM   20  O   UNL     1     -41.749  57.466 -54.627  1.00  0.00    -0.354 OA
HETATM   21  C   UNL     1     -42.378  58.315 -53.674  1.00  0.00     0.210 C 
ENDBRANCH   4  20
BRANCH   1  22
HETATM   22  C   UNL     1     -44.422  56.279 -59.482  1.00  0.00     0.251 C 
HETATM   23  N   UNL     1     -45.801  56.268 -59.443  1.00  0.00    -0.361 N 
HETATM   24  C   UNL     1     -46.570  56.032 -60.638  1.00  0.00     0.149 C 
HETATM   25  H   UNL     1     -46.284  56.644 -58.637  1.00  0.00     0.162 HD
HETATM   26  O   UNL     1     -43.776  56.069 -60.502  1.00  0.00    -0.268 OA
ENDBRANCH   1  22
TORSDOF 5
ENDMDL
MODEL 4
REMARK VINA RESULT:      -8.3      2.345      4.323
REMARK  5 active torsions:
REMARK  status: ('A' for Active; 'I' for Inactive)
REMARK       I    between atoms: N_2  and  C_3 
REMARK    1  A    between atoms: C_3  and  C_4 
REMARK    2  A    between atoms: C_6  and  N_7 
REMARK    3  A    between atoms: N_7  and  C_8 
REMARK    4  A    between atoms: C_8  and  C_9 
REMARK    5  A    between atoms: C_19  and  O_20 
ROOT
HETATM    1  C   UNL     1     -44.293  57.405 -53.285  1.00  0.00     0.033 A 
HETATM    2  C   UNL     1     -43.732  56.129 -53.420  1.00  0.00     0.043 A 
HETATM    3  C   UNL     1     -43.241  55.678 -54.652  1.00  0.00     0.043 A 
HETATM    4  C   UNL     1     -43.281  56.560 -55.758  1.00  0.00     0.089 A 
HETATM    5  C   UNL     1     -43.859  57.827 -55.632  1.00  0.00     0.039 A 
HETATM    6  C   UNL     1     -44.370  58.244 -54.400  1.00  0.00     0.020 A 
ENDROOT
BRANCH   3   7
HETATM    7  N   UNL     1     -42.599  54.429 -54.797  1.00  0.00    -0.286 NA
HETATM    8  H   UNL     1     -43.082  53.758 -54.198  1.00  0.00     0.128 HD
BRANCH   7   9
HETATM    9  C   UNL     1     -41.143  54.351 -54.654  1.00  0.00     0.132 C 
BRANCH   9  10
HETATM   10  C   UNL     1     -40.730  53.668 -53.361  1.00  0.00    -0.034 A 
HETATM   11  C   UNL     1     -40.322  52.301 -53.293  1.00  0.00    -0.018 A 
HETATM   12  C   UNL     1     -39.962  51.764 -52.028  1.00  0.00    -0.025 A 
HETATM   13  C   UNL     1     -40.264  51.423 -54.404  1.00  0.00     0.013 A 
HETATM   14  C   UNL     1     -39.580  50.417 -51.912  1.00  0.00     0.012 A 
HETATM   15  C   UNL     1     -39.989  52.573 -50.884  1.00  0.00     0.012 A 
HETATM   16  C   UNL     1     -39.543  49.580 -53.025  1.00  0.00     0.001 A 
HETATM   17  C   UNL     1     -39.884  50.084 -54.271  1.00  0.00     0.001 A 
HETATM   18  C   UNL     1     -40.369  53.907 -50.961  1.00  0.00     0.002 A 
HETATM   19  C   UNL     1     -40.734  54.449 -52.187  1.00  0.00     0.009 A 
ENDBRANCH   9  10
ENDBRANCH   7   9
ENDBRANCH   3   7
BRANCH   4  20
HETATM   20  O   UNL     1     -42.761  56.049 -56.927  1.00  0.00    -0.354 OA
HETATM   21  C   UNL     1     -43.502  56.287 -58.117  1.00  0.00     0.210 C 
ENDBRANCH   4  20
BRANCH   1  22
HETATM   22  C   UNL     1     -44.838  57.891 -51.986  1.00  0.00     0.251 C 
HETATM   23  N   UNL     1     -45.246  59.208 -51.938  1.00  0.00    -0.361 N 
HETATM   24  C   UNL     1     -45.838  59.753 -50.742  1.00  0.00     0.149 C 
HETATM   25  H   UNL     1     -45.343  59.736 -52.795  1.00  0.00     0.162 HD
HETATM   26  O   UNL     1     -44.926  57.124 -51.034  1.00  0.00    -0.268 OA
ENDBRANCH   1  22
TORSDOF 5
ENDMDL
MODEL 5
REMARK VINA RESULT:      -8.2      1.174      1.245
REMARK  5 active torsions:
REMARK  status: ('A' for Active; 'I' for Inactive)
REMARK       I    between atoms: N_2  and  C_3 
REMARK    1  A    between atoms: C_3  and  C_4 
REMARK    2  A    between atoms: C_6  and  N_7 
REMARK    3  A    between atoms: N_7  and  C_8 
REMARK    4  A    between atoms: C_8  and  C_9 
REMARK    5  A    between atoms: C_19  and  O_20 
ROOT
HETATM    1  C   UNL     1     -43.602  56.965 -57.031  1.00  0.00     0.033 A 
HETATM    2  C   UNL     1     -42.478  56.308 -56.515  1.00  0.00     0.043 A 
HETATM    3  C   UNL     1     -42.153  56.383 -55.155  1.00  0.00     0.043 A 
HETATM    4  C   UNL     1     -43.014  57.105 -54.294  1.00  0.00     0.089 A 
HETATM    5  C   UNL     1     -44.125  57.780 -54.809  1.00  0.00     0.039 A 
HETATM    6  C   UNL     1     -44.413  57.715 -56.174  1.00  0.00     0.020 A 
ENDROOT
BRANCH   3   7
HETATM    7  N   UNL     1     -41.074  55.665 -54.596  1.00  0.00    -0.286 NA
HETATM    8  H   UNL     1     -40.209  56.090 -54.933  1.00  0.00     0.128 HD
BRANCH   7   9
HETATM    9  C   UNL     1     -41.052  54.204 -54.703  1.00  0.00     0.132 C 
BRANCH   9  10
HETATM   10  C   UNL     1     -40.673  53.539 -53.390  1.00  0.00    -0.034 A 
HETATM   11  C   UNL     1     -40.264  52.174 -53.294  1.00  0.00    -0.018 A 
HETATM   12  C   UNL     1     -39.937  51.653 -52.013  1.00  0.00    -0.025 A 
HETATM   13  C   UNL     1     -40.173  51.282 -54.391  1.00  0.00     0.013 A 
HETATM   14  C   UNL     1     -39.555  50.309 -51.869  1.00  0.00     0.012 A 
HETATM   15  C   UNL     1     -39.998  52.477 -50.880  1.00  0.00     0.012 A 
HETATM   16  C   UNL     1     -39.485  49.459 -52.970  1.00  0.00     0.001 A 
HETATM   17  C   UNL     1     -39.793  49.946 -54.232  1.00  0.00     0.001 A 
HETATM   18  C   UNL     1     -40.378  53.809 -50.984  1.00  0.00     0.002 A 
HETATM   19  C   UNL     1     -40.711  54.334 -52.226  1.00  0.00     0.009 A 
ENDBRANCH   9  10
ENDBRANCH   7   9
ENDBRANCH   3   7
BRANCH   4  20
HETATM   20  O   UNL     1     -42.637  57.113 -52.970  1.00  0.00    -0.354 OA
HETATM   21  C   UNL     1     -43.605  56.677 -52.023  1.00  0.00     0.210 C 
ENDBRANCH   4  20
BRANCH   1  22
HETATM   22  C   UNL     1     -43.949  56.911 -58.479  1.00  0.00     0.251 C 
HETATM   23  N   UNL     1     -45.247  56.567 -58.795  1.00  0.00    -0.361 N 
HETATM   24  C   UNL     1     -45.691  56.543 -60.165  1.00  0.00     0.149 C 
HETATM   25  H   UNL     1     -45.952  56.548 -58.070  1.00  0.00     0.162 HD
HETATM   26  O   UNL     1     -43.102  57.188 -59.322  1.00  0.00    -0.268 OA
ENDBRANCH   1  22
TORSDOF 5
ENDMDL
MODEL 6
REMARK VINA RESULT:      -8.0      2.561      5.071
REMARK  5 active torsions:
REMARK  status: ('A' for Active; 'I' for Inactive)
REMARK       I    between atoms: N_2  and  C_3 
REMARK    1  A    between atoms: C_3  and  C_4 
REMARK    2  A    between atoms: C_6  and  N_7 
REMARK    3  A    between atoms: N_7  and  C_8 
REMARK    4  A    between atoms: C_8  and  C_9 
REMARK    5  A    between atoms: C_19  and  O_20 
ROOT
HETATM    1  C   UNL     1     -44.492  57.640 -53.095  1.00  0.00     0.033 A 
HETATM    2  C   UNL     1     -43.721  56.500 -53.355  1.00  0.00     0.043 A 
HETATM    3  C   UNL     1     -43.361  56.150 -54.663  1.00  0.00     0.043 A 
HETATM    4  C   UNL     1     -43.756  57.001 -55.723  1.00  0.00     0.089 A 
HETATM    5  C   UNL     1     -44.544  58.128 -55.468  1.00  0.00     0.039 A 
HETATM    6  C   UNL     1     -44.916  58.441 -54.159  1.00  0.00     0.020 A 
ENDROOT
BRANCH   3   7
HETATM    7  N   UNL     1     -42.518  55.053 -54.946  1.00  0.00    -0.286 NA
HETATM    8  H   UNL     1     -42.961  54.214 -54.568  1.00  0.00     0.128 HD
BRANCH   7   9
HETATM    9  C   UNL     1     -41.097  55.133 -54.600  1.00  0.00     0.132 C 
BRANCH   9  10
HETATM   10  C   UNL     1     -40.634  53.928 -53.798  1.00  0.00    -0.034 A 
HETATM   11  C   UNL     1     -40.682  53.872 -52.371  1.00  0.00    -0.018 A 
HETATM   12  C   UNL     1     -40.217  52.696 -51.723  1.00  0.00    -0.025 A 
HETATM   13  C   UNL     1     -41.149  54.921 -51.540  1.00  0.00     0.013 A 
HETATM   14  C   UNL     1     -40.222  52.609 -50.321  1.00  0.00     0.012 A 
HETATM   15  C   UNL     1     -39.746  51.614 -52.479  1.00  0.00     0.012 A 
HETATM   16  C   UNL     1     -40.680  53.664 -49.536  1.00  0.00     0.001 A 
HETATM   17  C   UNL     1     -41.145  54.820 -50.146  1.00  0.00     0.001 A 
HETATM   18  C   UNL     1     -39.720  51.668 -53.867  1.00  0.00     0.002 A 
HETATM   19  C   UNL     1     -40.161  52.813 -54.519  1.00  0.00     0.009 A 
ENDBRANCH   9  10
ENDBRANCH   7   9
ENDBRANCH   3   7
BRANCH   4  20
HETATM   20  O   UNL     1     -43.345  56.599 -56.974  1.00  0.00    -0.354 OA
HETATM   21  C   UNL     1     -43.975  57.221 -58.088  1.00  0.00     0.210 C 
ENDBRANCH   4  20
BRANCH   1  22
HETATM   22  C   UNL     1     -44.901  58.013 -51.711  1.00  0.00     0.251 C 
HETATM   23  N   UNL     1     -45.080  59.357 -51.458  1.00  0.00    -0.361 N 
HETATM   24  C   UNL     1     -45.528  59.811 -50.167  1.00  0.00     0.149 C 
HETATM   25  H   UNL     1     -45.118  60.013 -52.228  1.00  0.00     0.162 HD
HETATM   26  O   UNL     1     -45.082  57.140 -50.870  1.00  0.00    -0.268 OA
ENDBRANCH   1  22
TORSDOF 5
ENDMDL
MODEL 7
REMARK VINA RESULT:      -7.9      2.179      3.610
REMARK  5 active torsions:
REMARK  status: ('A' for Active; 'I' for Inactive)
REMARK       I    between atoms: N_2  and  C_3 
REMARK    1  A    between atoms: C_3  and  C_4 
REMARK    2  A    between atoms: C_6  and  N_7 
REMARK    3  A    between atoms: N_7  and  C_8 
REMARK    4  A    between atoms: C_8  and  C_9 
REMARK    5  A    between atoms: C_19  and  O_20 
ROOT
HETATM    1  C   UNL     1     -42.413  58.048 -54.515  1.00  0.00     0.033 A 
HETATM    2  C   UNL     1     -42.870  57.334 -53.400  1.00  0.00     0.043 A 
HETATM    3  C   UNL     1     -42.672  57.813 -52.099  1.00  0.00     0.043 A 
HETATM    4  C   UNL     1     -42.036  59.067 -51.931  1.00  0.00     0.089 A 
HETATM    5  C   UNL     1     -41.560  59.772 -53.042  1.00  0.00     0.039 A 
HETATM    6  C   UNL     1     -41.743  59.259 -54.328  1.00  0.00     0.020 A 
ENDROOT
BRANCH   3   7
HETATM    7  N   UNL     1     -43.192  57.155 -50.964  1.00  0.00    -0.286 NA
HETATM    8  H   UNL     1     -42.600  57.395 -50.167  1.00  0.00     0.128 HD
BRANCH   7   9
HETATM    9  C   UNL     1     -43.471  55.719 -51.033  1.00  0.00     0.132 C 
BRANCH   9  10
HETATM   10  C   UNL     1     -42.219  54.881 -50.840  1.00  0.00    -0.034 A 
HETATM   11  C   UNL     1     -41.662  54.058 -51.866  1.00  0.00    -0.018 A 
HETATM   12  C   UNL     1     -40.489  53.311 -51.574  1.00  0.00    -0.025 A 
HETATM   13  C   UNL     1     -42.207  53.913 -53.166  1.00  0.00     0.013 A 
HETATM   14  C   UNL     1     -39.923  52.469 -52.546  1.00  0.00     0.012 A 
HETATM   15  C   UNL     1     -39.888  53.406 -50.311  1.00  0.00     0.012 A 
HETATM   16  C   UNL     1     -40.492  52.346 -53.811  1.00  0.00     0.001 A 
HETATM   17  C   UNL     1     -41.634  53.069 -54.122  1.00  0.00     0.001 A 
HETATM   18  C   UNL     1     -40.425  54.224 -49.324  1.00  0.00     0.002 A 
HETATM   19  C   UNL     1     -41.577  54.954 -49.587  1.00  0.00     0.009 A 
ENDBRANCH   9  10
ENDBRANCH   7   9
ENDBRANCH   3   7
BRANCH   4  20
HETATM   20  O   UNL     1     -41.898  59.478 -50.624  1.00  0.00    -0.354 OA
HETATM   21  C   UNL     1     -40.572  59.565 -50.115  1.00  0.00     0.210 C 
ENDBRANCH   4  20
BRANCH   1  22
HETATM   22  C   UNL     1     -42.598  57.539 -55.903  1.00  0.00     0.251 C 
HETATM   23  N   UNL     1     -42.743  56.175 -56.051  1.00  0.00    -0.361 N 
HETATM   24  C   UNL     1     -42.982  55.595 -57.348  1.00  0.00     0.149 C 
HETATM   25  H   UNL     1     -42.907  55.596 -55.237  1.00  0.00     0.162 HD
HETATM   26  O   UNL     1     -42.637  58.325 -56.844  1.00  0.00    -0.268 OA
ENDBRANCH   1  22
TORSDOF 5
ENDMDL
MODEL 8
REMARK VINA RESULT:      -7.9      2.414      4.202
REMARK  5 active torsions:
REMARK  status: ('A' for Active; 'I' for Inactive)
REMARK       I    between atoms: N_2  and  C_3 
REMARK    1  A    between atoms: C_3  and  C_4 
REMARK    2  A    between atoms: C_6  and  N_7 
REMARK    3  A    between atoms: N_7  and  C_8 
REMARK    4  A    between atoms: C_8  and  C_9 
REMARK    5  A    between atoms: C_19  and  O_20 
ROOT
HETATM    1  C   UNL     1     -42.142  58.734 -58.290  1.00  0.00     0.033 A 
HETATM    2  C   UNL     1     -42.539  57.783 -57.343  1.00  0.00     0.043 A 
HETATM    3  C   UNL     1     -43.084  56.553 -57.732  1.00  0.00     0.043 A 
HETATM    4  C   UNL     1     -43.186  56.267 -59.114  1.00  0.00     0.089 A 
HETATM    5  C   UNL     1     -42.811  57.223 -60.063  1.00  0.00     0.039 A 
HETATM    6  C   UNL     1     -42.297  58.455 -59.651  1.00  0.00     0.020 A 
ENDROOT
BRANCH   3   7
HETATM    7  N   UNL     1     -43.417  55.546 -56.801  1.00  0.00    -0.286 NA
HETATM    8  H   UNL     1     -44.011  55.967 -56.085  1.00  0.00     0.128 HD
BRANCH   7   9
HETATM    9  C   UNL     1     -42.351  54.723 -56.222  1.00  0.00     0.132 C 
BRANCH   9  10
HETATM   10  C   UNL     1     -42.379  54.736 -54.703  1.00  0.00    -0.034 A 
HETATM   11  C   UNL     1     -41.549  53.898 -53.897  1.00  0.00    -0.018 A 
HETATM   12  C   UNL     1     -41.662  53.989 -52.484  1.00  0.00    -0.025 A 
HETATM   13  C   UNL     1     -40.619  52.958 -54.408  1.00  0.00     0.013 A 
HETATM   14  C   UNL     1     -40.883  53.165 -51.655  1.00  0.00     0.012 A 
HETATM   15  C   UNL     1     -42.556  54.900 -51.905  1.00  0.00     0.012 A 
HETATM   16  C   UNL     1     -39.985  52.246 -52.193  1.00  0.00     0.001 A 
HETATM   17  C   UNL     1     -39.852  52.143 -53.569  1.00  0.00     0.001 A 
HETATM   18  C   UNL     1     -43.347  55.725 -52.694  1.00  0.00     0.002 A 
HETATM   19  C   UNL     1     -43.258  55.645 -54.078  1.00  0.00     0.009 A 
ENDBRANCH   9  10
ENDBRANCH   7   9
ENDBRANCH   3   7
BRANCH   4  20
HETATM   20  O   UNL     1     -43.712  55.030 -59.415  1.00  0.00    -0.354 OA
HETATM   21  C   UNL     1     -44.895  55.010 -60.205  1.00  0.00     0.210 C 
ENDBRANCH   4  20
BRANCH   1  22
HETATM   22  C   UNL     1     -41.580  60.055 -57.890  1.00  0.00     0.251 C 
HETATM   23  N   UNL     1     -41.247  60.922 -58.911  1.00  0.00    -0.361 N 
HETATM   24  C   UNL     1     -40.749  62.243 -58.622  1.00  0.00     0.149 C 
HETATM   25  H   UNL     1     -41.556  60.730 -59.855  1.00  0.00     0.162 HD
HETATM   26  O   UNL     1     -41.455  60.334 -56.703  1.00  0.00    -0.268 OA
ENDBRANCH   1  22
TORSDOF 5
ENDMDL
MODEL 9
REMARK VINA RESULT:      -7.7      2.197      7.694
REMARK  5 active torsions:
REMARK  status: ('A' for Active; 'I' for Inactive)
REMARK       I    between atoms: N_2  and  C_3 
REMARK    1  A    between atoms: C_3  and  C_4 
REMARK    2  A    between atoms: C_6  and  N_7 
REMARK    3  A    between atoms: N_7  and  C_8 
REMARK    4  A    between atoms: C_8  and  C_9 
REMARK    5  A    between atoms: C_19  and  O_20 
ROOT
HETATM    1  C   UNL     1     -40.332  53.012 -52.750  1.00  0.00     0.033 A 
HETATM    2  C   UNL     1     -40.565  53.518 -54.034  1.00  0.00     0.043 A 
HETATM    3  C   UNL     1     -41.102  54.798 -54.224  1.00  0.00     0.043 A 
HETATM    4  C   UNL     1     -41.365  55.596 -53.085  1.00  0.00     0.089 A 
HETATM    5  C   UNL     1     -41.153  55.085 -51.800  1.00  0.00     0.039 A 
HETATM    6  C   UNL     1     -40.645  53.794 -51.635  1.00  0.00     0.020 A 
ENDROOT
BRANCH   3   7
HETATM    7  N   UNL     1     -41.271  55.364 -55.506  1.00  0.00    -0.286 NA
HETATM    8  H   UNL     1     -41.129  56.372 -55.424  1.00  0.00     0.128 HD
BRANCH   7   9
HETATM    9  C   UNL     1     -42.471  55.037 -56.282  1.00  0.00     0.132 C 
BRANCH   9  10
HETATM   10  C   UNL     1     -42.804  56.112 -57.302  1.00  0.00    -0.034 A 
HETATM   11  C   UNL     1     -43.543  55.855 -58.497  1.00  0.00    -0.018 A 
HETATM   12  C   UNL     1     -43.793  56.936 -59.385  1.00  0.00    -0.025 A 
HETATM   13  C   UNL     1     -44.040  54.584 -58.878  1.00  0.00     0.013 A 
HETATM   14  C   UNL     1     -44.494  56.722 -60.584  1.00  0.00     0.012 A 
HETATM   15  C   UNL     1     -43.338  58.224 -59.074  1.00  0.00     0.012 A 
HETATM   16  C   UNL     1     -44.960  55.456 -60.930  1.00  0.00     0.001 A 
HETATM   17  C   UNL     1     -44.734  54.387 -60.076  1.00  0.00     0.001 A 
HETATM   18  C   UNL     1     -42.636  58.471 -57.901  1.00  0.00     0.002 A 
HETATM   19  C   UNL     1     -42.373  57.425 -57.024  1.00  0.00     0.009 A 
ENDBRANCH   9  10
ENDBRANCH   7   9
ENDBRANCH   3   7
BRANCH   4  20
HETATM   20  O   UNL     1     -41.871  56.847 -53.356  1.00  0.00    -0.354 OA
HETATM   21  C   UNL     1     -43.266  57.034 -53.152  1.00  0.00     0.210 C 
ENDBRANCH   4  20
BRANCH   1  22
HETATM   22  C   UNL     1     -39.782  51.644 -52.533  1.00  0.00     0.251 C 
HETATM   23  N   UNL     1     -39.802  51.165 -51.239  1.00  0.00    -0.361 N 
HETATM   24  C   UNL     1     -39.343  49.833 -50.939  1.00  0.00     0.149 C 
HETATM   25  H   UNL     1     -40.340  51.650 -50.532  1.00  0.00     0.162 HD
HETATM   26  O   UNL     1     -39.360  50.995 -53.483  1.00  0.00    -0.268 OA
ENDBRANCH   1  22
TORSDOF 5
ENDMDL
MODEL 10
REMARK VINA RESULT:      -7.6      3.215      6.984
REMARK  5 active torsions:
REMARK  status: ('A' for Active; 'I' for Inactive)
REMARK       I    between atoms: N_2  and  C_3 
REMARK    1  A    between atoms: C_3  and  C_4 
REMARK    2  A    between atoms: C_6  and  N_7 
REMARK    3  A    between atoms: N_7  and  C_8 
REMARK    4  A    between atoms: C_8  and  C_9 
REMARK    5  A    between atoms: C_19  and  O_20 
ROOT
HETATM    1  C   UNL     1     -40.671  52.983 -53.680  1.00  0.00     0.033 A 
HETATM    2  C   UNL     1     -41.799  53.482 -53.017  1.00  0.00     0.043 A 
HETATM    3  C   UNL     1     -42.424  54.663 -53.436  1.00  0.00     0.043 A 
HETATM    4  C   UNL     1     -41.918  55.326 -54.580  1.00  0.00     0.089 A 
HETATM    5  C   UNL     1     -40.779  54.842 -55.231  1.00  0.00     0.039 A 
HETATM    6  C   UNL     1     -40.154  53.678 -54.776  1.00  0.00     0.020 A 
ENDROOT
BRANCH   3   7
HETATM    7  N   UNL     1     -43.609  55.144 -52.837  1.00  0.00    -0.286 NA
HETATM    8  H   UNL     1     -43.997  55.864 -53.449  1.00  0.00     0.128 HD
BRANCH   7   9
HETATM    9  C   UNL     1     -43.583  55.567 -51.435  1.00  0.00     0.132 C 
BRANCH   9  10
HETATM   10  C   UNL     1     -43.708  57.074 -51.288  1.00  0.00    -0.034 A 
HETATM   11  C   UNL     1     -42.588  57.937 -51.089  1.00  0.00    -0.018 A 
HETATM   12  C   UNL     1     -42.822  59.332 -50.958  1.00  0.00    -0.025 A 
HETATM   13  C   UNL     1     -41.243  57.500 -50.994  1.00  0.00     0.013 A 
HETATM   14  C   UNL     1     -41.752  60.214 -50.735  1.00  0.00     0.012 A 
HETATM   15  C   UNL     1     -44.126  59.840 -51.046  1.00  0.00     0.012 A 
HETATM   16  C   UNL     1     -40.443  59.748 -50.639  1.00  0.00     0.001 A 
HETATM   17  C   UNL     1     -40.188  58.391 -50.770  1.00  0.00     0.001 A 
HETATM   18  C   UNL     1     -45.209  58.996 -51.259  1.00  0.00     0.002 A 
HETATM   19  C   UNL     1     -45.002  57.628 -51.379  1.00  0.00     0.009 A 
ENDBRANCH   9  10
ENDBRANCH   7   9
ENDBRANCH   3   7
BRANCH   4  20
HETATM   20  O   UNL     1     -42.600  56.467 -54.939  1.00  0.00    -0.354 OA
HETATM   21  C   UNL     1     -41.943  57.707 -54.708  1.00  0.00     0.210 C 
ENDBRANCH   4  20
BRANCH   1  22
HETATM   22  C   UNL     1     -39.983  51.739 -53.232  1.00  0.00     0.251 C 
HETATM   23  N   UNL     1     -39.918  51.521 -51.872  1.00  0.00    -0.361 N 
HETATM   24  C   UNL     1     -39.321  50.319 -51.345  1.00  0.00     0.149 C 
HETATM   25  H   UNL     1     -40.479  52.083 -51.245  1.00  0.00     0.162 HD
HETATM   26  O   UNL     1     -39.529  50.958 -54.061  1.00  0.00    -0.268 OA
ENDBRANCH   1  22
TORSDOF 5
ENDMDL
