MODEL 1
REMARK VINA RESULT:      -8.9      0.000      0.000
REMARK  6 active torsions:
REMARK  status: ('A' for Active; 'I' for Inactive)
REMARK    1  A    between atoms: C_5  and  C_6 
REMARK    2  A    between atoms: C_11  and  C_12 
REMARK       I    between atoms: C_12  and  N_13 
REMARK    3  A    between atoms: N_13  and  C_14 
REMARK    4  A    between atoms: C_16  and  C_17 
REMARK    5  A    between atoms: C_17  and  O_18 
REMARK    6  A    between atoms: C_25  and  C_26 
ROOT
HETATM    1  C   UNL     1     -43.517  55.625 -53.517  1.00  0.00     0.118 C 
HETATM    2  N   UNL     1     -44.239  56.229 -52.404  1.00  0.00    -0.366 N 
HETATM    3  C   UNL     1     -44.031  57.498 -52.001  1.00  0.00     0.123 A 
HETATM    4  N   UNL     1     -43.146  58.322 -52.636  1.00  0.00    -0.240 N 
HETATM    5  N   UNL     1     -43.109  59.574 -52.138  1.00  0.00    -0.165 NA
HETATM    6  C   UNL     1     -43.981  59.526 -51.104  1.00  0.00     0.148 A 
HETATM    7  C   UNL     1     -44.573  58.240 -50.987  1.00  0.00     0.089 A 
HETATM    8  C   UNL     1     -42.352  57.931 -53.785  1.00  0.00     0.221 C 
HETATM    9  C   UNL     1     -42.970  56.700 -54.473  1.00  0.00     0.066 C 
HETATM   10  H   UNL     1     -44.812  55.589 -51.856  1.00  0.00     0.161 HD
ENDROOT
BRANCH   6  11
HETATM   11  C   UNL     1     -44.251  60.692 -50.242  1.00  0.00     0.276 C 
HETATM   12  N   UNL     1     -44.965  60.348 -49.111  1.00  0.00    -0.322 N 
HETATM   13  H   UNL     1     -45.206  59.360 -49.068  1.00  0.00     0.169 HD
HETATM   14  O   UNL     1     -43.870  61.815 -50.557  1.00  0.00    -0.266 OA
BRANCH  12  15
HETATM   15  C   UNL     1     -45.396  61.182 -48.065  1.00  0.00     0.035 A 
HETATM   16  C   UNL     1     -46.389  62.155 -48.209  1.00  0.00     0.039 A 
HETATM   17  C   UNL     1     -46.780  62.966 -47.126  1.00  0.00    -0.028 A 
HETATM   18  C   UNL     1     -46.162  62.773 -45.884  1.00  0.00     0.010 A 
HETATM   19  C   UNL     1     -45.167  61.808 -45.732  1.00  0.00     0.003 A 
HETATM   20  C   UNL     1     -44.784  61.019 -46.819  1.00  0.00     0.029 A 
BRANCH  17  21
HETATM   21  C   UNL     1     -47.870  63.997 -47.329  1.00  0.00     0.147 C 
HETATM   22  C   UNL     1     -48.623  63.766 -48.634  1.00  0.00     0.044 C 
BRANCH  21  23
HETATM   23  O   UNL     1     -48.799  63.968 -46.247  1.00  0.00    -0.391 OA
HETATM   24  H   UNL     1     -48.997  63.033 -46.072  1.00  0.00     0.210 HD
ENDBRANCH  21  23
ENDBRANCH  17  21
ENDBRANCH  12  15
ENDBRANCH   6  11
BRANCH   8  25
HETATM   25  C   UNL     1     -40.905  57.758 -53.388  1.00  0.00     0.409 C 
HETATM   26  F   UNL     1     -40.165  58.875 -53.505  1.00  0.00    -0.169 F 
HETATM   27  F   UNL     1     -40.821  57.353 -52.094  1.00  0.00    -0.169 F 
HETATM   28  F   UNL     1     -40.297  56.794 -54.121  1.00  0.00    -0.169 F 
ENDBRANCH   8  25
BRANCH   1  29
HETATM   29  C   UNL     1     -42.505  54.588 -53.066  1.00  0.00    -0.035 A 
HETATM   30  C   UNL     1     -42.285  54.403 -51.690  1.00  0.00     0.010 A 
HETATM   31  C   UNL     1     -41.342  53.482 -51.225  1.00  0.00     0.007 A 
HETATM   32  C   UNL     1     -40.588  52.724 -52.126  1.00  0.00    -0.062 A 
HETATM   33  C   UNL     1     -39.595  51.712 -51.640  1.00  0.00     0.048 C 
HETATM   34  C   UNL     1     -40.809  52.890 -53.496  1.00  0.00     0.007 A 
HETATM   35  C   UNL     1     -41.748  53.818 -53.960  1.00  0.00     0.010 A 
ENDBRANCH   1  29
TORSDOF 6
ENDMDL
MODEL 2
REMARK VINA RESULT:      -8.8     19.213     21.392
REMARK  6 active torsions:
REMARK  status: ('A' for Active; 'I' for Inactive)
REMARK    1  A    between atoms: C_5  and  C_6 
REMARK    2  A    between atoms: C_11  and  C_12 
REMARK       I    between atoms: C_12  and  N_13 
REMARK    3  A    between atoms: N_13  and  C_14 
REMARK    4  A    between atoms: C_16  and  C_17 
REMARK    5  A    between atoms: C_17  and  O_18 
REMARK    6  A    between atoms: C_25  and  C_26 
ROOT
HETATM    1  C   UNL     1     -36.878  42.349 -56.239  1.00  0.00     0.118 C 
HETATM    2  N   UNL     1     -37.359  41.971 -54.916  1.00  0.00    -0.366 N 
HETATM    3  C   UNL     1     -36.543  41.517 -53.944  1.00  0.00     0.123 A 
HETATM    4  N   UNL     1     -35.193  41.412 -54.124  1.00  0.00    -0.240 N 
HETATM    5  N   UNL     1     -34.524  40.998 -53.029  1.00  0.00    -0.165 NA
HETATM    6  C   UNL     1     -35.507  40.783 -52.124  1.00  0.00     0.148 A 
HETATM    7  C   UNL     1     -36.784  41.094 -52.665  1.00  0.00     0.089 A 
HETATM    8  C   UNL     1     -34.507  41.769 -55.351  1.00  0.00     0.221 C 
HETATM    9  C   UNL     1     -35.381  42.706 -56.205  1.00  0.00     0.066 C 
HETATM   10  H   UNL     1     -38.372  41.935 -54.813  1.00  0.00     0.161 HD
ENDROOT
BRANCH   6  11
HETATM   11  C   UNL     1     -35.234  40.295 -50.760  1.00  0.00     0.276 C 
HETATM   12  N   UNL     1     -33.941  39.828 -50.625  1.00  0.00    -0.322 N 
HETATM   13  H   UNL     1     -33.400  39.874 -51.486  1.00  0.00     0.169 HD
HETATM   14  O   UNL     1     -36.101  40.316 -49.893  1.00  0.00    -0.266 OA
BRANCH  12  15
HETATM   15  C   UNL     1     -33.321  39.297 -49.481  1.00  0.00     0.035 A 
HETATM   16  C   UNL     1     -32.218  39.884 -48.854  1.00  0.00     0.039 A 
HETATM   17  C   UNL     1     -31.635  39.306 -47.710  1.00  0.00    -0.028 A 
HETATM   18  C   UNL     1     -32.189  38.128 -47.195  1.00  0.00     0.010 A 
HETATM   19  C   UNL     1     -33.287  37.532 -47.816  1.00  0.00     0.003 A 
HETATM   20  C   UNL     1     -33.847  38.113 -48.955  1.00  0.00     0.029 A 
BRANCH  17  21
HETATM   21  C   UNL     1     -30.450  39.988 -47.060  1.00  0.00     0.147 C 
HETATM   22  C   UNL     1     -30.370  39.672 -45.571  1.00  0.00     0.044 C 
BRANCH  21  23
HETATM   23  O   UNL     1     -29.232  39.586 -47.685  1.00  0.00    -0.391 OA
HETATM   24  H   UNL     1     -29.433  39.443 -48.624  1.00  0.00     0.210 HD
ENDBRANCH  21  23
ENDBRANCH  17  21
ENDBRANCH  12  15
ENDBRANCH   6  11
BRANCH   8  25
HETATM   25  C   UNL     1     -34.044  40.525 -56.073  1.00  0.00     0.409 C 
HETATM   26  F   UNL     1     -34.792  39.435 -55.825  1.00  0.00    -0.169 F 
HETATM   27  F   UNL     1     -34.063  40.730 -57.416  1.00  0.00    -0.169 F 
HETATM   28  F   UNL     1     -32.762  40.213 -55.761  1.00  0.00    -0.169 F 
ENDBRANCH   8  25
BRANCH   1  29
HETATM   29  C   UNL     1     -37.280  41.357 -57.315  1.00  0.00    -0.035 A 
HETATM   30  C   UNL     1     -37.082  41.698 -58.664  1.00  0.00     0.010 A 
HETATM   31  C   UNL     1     -37.463  40.832 -59.693  1.00  0.00     0.007 A 
HETATM   32  C   UNL     1     -38.058  39.602 -59.399  1.00  0.00    -0.062 A 
HETATM   33  C   UNL     1     -38.445  38.651 -60.492  1.00  0.00     0.048 C 
HETATM   34  C   UNL     1     -38.246  39.247 -58.061  1.00  0.00     0.007 A 
HETATM   35  C   UNL     1     -37.871  40.118 -57.033  1.00  0.00     0.010 A 
ENDBRANCH   1  29
TORSDOF 6
ENDMDL
MODEL 3
REMARK VINA RESULT:      -8.8      1.380      1.830
REMARK  6 active torsions:
REMARK  status: ('A' for Active; 'I' for Inactive)
REMARK    1  A    between atoms: C_5  and  C_6 
REMARK    2  A    between atoms: C_11  and  C_12 
REMARK       I    between atoms: C_12  and  N_13 
REMARK    3  A    between atoms: N_13  and  C_14 
REMARK    4  A    between atoms: C_16  and  C_17 
REMARK    5  A    between atoms: C_17  and  O_18 
REMARK    6  A    between atoms: C_25  and  C_26 
ROOT
HETATM    1  C   UNL     1     -43.033  55.669 -54.580  1.00  0.00     0.118 C 
HETATM    2  N   UNL     1     -44.082  55.899 -53.593  1.00  0.00    -0.366 N 
HETATM    3  C   UNL     1     -44.128  57.002 -52.820  1.00  0.00     0.123 A 
HETATM    4  N   UNL     1     -43.207  58.004 -52.933  1.00  0.00    -0.240 N 
HETATM    5  N   UNL     1     -43.440  59.057 -52.125  1.00  0.00    -0.165 NA
HETATM    6  C   UNL     1     -44.539  58.681 -51.430  1.00  0.00     0.148 A 
HETATM    7  C   UNL     1     -44.994  57.398 -51.837  1.00  0.00     0.089 A 
HETATM    8  C   UNL     1     -42.104  57.990 -53.875  1.00  0.00     0.221 C 
HETATM    9  C   UNL     1     -42.381  56.994 -55.016  1.00  0.00     0.066 C 
HETATM   10  H   UNL     1     -44.701  55.108 -53.422  1.00  0.00     0.161 HD
ENDROOT
BRANCH   6  11
HETATM   11  C   UNL     1     -45.151  59.536 -50.396  1.00  0.00     0.276 C 
HETATM   12  N   UNL     1     -44.366  60.631 -50.095  1.00  0.00    -0.322 N 
HETATM   13  H   UNL     1     -43.490  60.658 -50.614  1.00  0.00     0.169 HD
HETATM   14  O   UNL     1     -46.230  59.245 -49.890  1.00  0.00    -0.266 OA
BRANCH  12  15
HETATM   15  C   UNL     1     -44.622  61.661 -49.174  1.00  0.00     0.035 A 
HETATM   16  C   UNL     1     -45.504  61.535 -48.097  1.00  0.00     0.039 A 
HETATM   17  C   UNL     1     -45.725  62.603 -47.205  1.00  0.00    -0.028 A 
HETATM   18  C   UNL     1     -45.031  63.803 -47.407  1.00  0.00     0.010 A 
HETATM   19  C   UNL     1     -44.153  63.939 -48.482  1.00  0.00     0.003 A 
HETATM   20  C   UNL     1     -43.952  62.874 -49.362  1.00  0.00     0.029 A 
BRANCH  17  21
HETATM   21  C   UNL     1     -46.680  62.413 -46.046  1.00  0.00     0.147 C 
HETATM   22  C   UNL     1     -47.315  63.732 -45.621  1.00  0.00     0.044 C 
BRANCH  21  23
HETATM   23  O   UNL     1     -47.714  61.491 -46.391  1.00  0.00    -0.391 OA
HETATM   24  H   UNL     1     -48.557  61.921 -46.173  1.00  0.00     0.210 HD
ENDBRANCH  21  23
ENDBRANCH  17  21
ENDBRANCH  12  15
ENDBRANCH   6  11
BRANCH   8  25
HETATM   25  C   UNL     1     -40.799  57.756 -53.151  1.00  0.00     0.409 C 
HETATM   26  F   UNL     1     -40.935  57.162 -51.952  1.00  0.00    -0.169 F 
HETATM   27  F   UNL     1     -39.984  56.970 -53.901  1.00  0.00    -0.169 F 
HETATM   28  F   UNL     1     -40.123  58.913 -52.953  1.00  0.00    -0.169 F 
ENDBRANCH   8  25
BRANCH   1  29
HETATM   29  C   UNL     1     -42.063  54.580 -54.162  1.00  0.00    -0.035 A 
HETATM   30  C   UNL     1     -42.082  54.122 -52.833  1.00  0.00     0.010 A 
HETATM   31  C   UNL     1     -41.188  53.142 -52.393  1.00  0.00     0.007 A 
HETATM   32  C   UNL     1     -40.246  52.597 -53.269  1.00  0.00    -0.062 A 
HETATM   33  C   UNL     1     -39.302  51.524 -52.817  1.00  0.00     0.048 C 
HETATM   34  C   UNL     1     -40.228  53.034 -54.596  1.00  0.00     0.007 A 
HETATM   35  C   UNL     1     -41.118  54.021 -55.034  1.00  0.00     0.010 A 
ENDBRANCH   1  29
TORSDOF 6
ENDMDL
MODEL 4
REMARK VINA RESULT:      -8.6      7.331     10.753
REMARK  6 active torsions:
REMARK  status: ('A' for Active; 'I' for Inactive)
REMARK    1  A    between atoms: C_5  and  C_6 
REMARK    2  A    between atoms: C_11  and  C_12 
REMARK       I    between atoms: C_12  and  N_13 
REMARK    3  A    between atoms: N_13  and  C_14 
REMARK    4  A    between atoms: C_16  and  C_17 
REMARK    5  A    between atoms: C_17  and  O_18 
REMARK    6  A    between atoms: C_25  and  C_26 
ROOT
HETATM    1  C   UNL     1     -43.551  58.917 -59.483  1.00  0.00     0.118 C 
HETATM    2  N   UNL     1     -43.437  58.755 -58.039  1.00  0.00    -0.366 N 
HETATM    3  C   UNL     1     -43.248  57.556 -57.451  1.00  0.00     0.123 A 
HETATM    4  N   UNL     1     -43.115  56.407 -58.178  1.00  0.00    -0.240 N 
HETATM    5  N   UNL     1     -42.873  55.312 -57.431  1.00  0.00    -0.165 NA
HETATM    6  C   UNL     1     -42.902  55.784 -56.163  1.00  0.00     0.148 A 
HETATM    7  C   UNL     1     -43.139  57.185 -56.139  1.00  0.00     0.089 A 
HETATM    8  C   UNL     1     -43.162  56.352 -59.626  1.00  0.00     0.221 C 
HETATM    9  C   UNL     1     -42.889  57.743 -60.228  1.00  0.00     0.066 C 
HETATM   10  H   UNL     1     -43.650  59.584 -57.488  1.00  0.00     0.161 HD
ENDROOT
BRANCH   6  11
HETATM   11  C   UNL     1     -42.700  54.913 -54.990  1.00  0.00     0.276 C 
HETATM   12  N   UNL     1     -41.414  54.412 -54.930  1.00  0.00    -0.322 N 
HETATM   13  H   UNL     1     -40.828  54.704 -55.709  1.00  0.00     0.169 HD
HETATM   14  O   UNL     1     -43.613  54.688 -54.203  1.00  0.00    -0.266 OA
BRANCH  12  15
HETATM   15  C   UNL     1     -40.855  53.562 -53.961  1.00  0.00     0.035 A 
HETATM   16  C   UNL     1     -40.443  52.252 -54.224  1.00  0.00     0.039 A 
HETATM   17  C   UNL     1     -39.891  51.443 -53.213  1.00  0.00    -0.028 A 
HETATM   18  C   UNL     1     -39.745  51.978 -51.927  1.00  0.00     0.010 A 
HETATM   19  C   UNL     1     -40.157  53.282 -51.654  1.00  0.00     0.003 A 
HETATM   20  C   UNL     1     -40.712  54.068 -52.666  1.00  0.00     0.029 A 
BRANCH  17  21
HETATM   21  C   UNL     1     -39.448  50.035 -53.552  1.00  0.00     0.147 C 
HETATM   22  C   UNL     1     -39.523  49.117 -52.337  1.00  0.00     0.044 C 
BRANCH  21  23
HETATM   23  O   UNL     1     -40.255  49.490 -54.595  1.00  0.00    -0.391 OA
HETATM   24  H   UNL     1     -39.648  49.092 -55.240  1.00  0.00     0.210 HD
ENDBRANCH  21  23
ENDBRANCH  17  21
ENDBRANCH  12  15
ENDBRANCH   6  11
BRANCH   8  25
HETATM   25  C   UNL     1     -44.456  55.722 -60.085  1.00  0.00     0.409 C 
HETATM   26  F   UNL     1     -44.891  56.168 -61.278  1.00  0.00    -0.169 F 
HETATM   27  F   UNL     1     -44.310  54.376 -60.187  1.00  0.00    -0.169 F 
HETATM   28  F   UNL     1     -45.455  55.924 -59.192  1.00  0.00    -0.169 F 
ENDBRANCH   8  25
BRANCH   1  29
HETATM   29  C   UNL     1     -44.963  59.247 -59.927  1.00  0.00    -0.035 A 
HETATM   30  C   UNL     1     -46.033  58.970 -59.059  1.00  0.00     0.010 A 
HETATM   31  C   UNL     1     -47.355  59.228 -59.434  1.00  0.00     0.007 A 
HETATM   32  C   UNL     1     -47.642  59.767 -60.691  1.00  0.00    -0.062 A 
HETATM   33  C   UNL     1     -49.053  60.076 -61.094  1.00  0.00     0.048 C 
HETATM   34  C   UNL     1     -46.585  60.060 -61.557  1.00  0.00     0.007 A 
HETATM   35  C   UNL     1     -45.263  59.794 -61.183  1.00  0.00     0.010 A 
ENDBRANCH   1  29
TORSDOF 6
ENDMDL
MODEL 5
REMARK VINA RESULT:      -8.5      3.562      9.813
REMARK  6 active torsions:
REMARK  status: ('A' for Active; 'I' for Inactive)
REMARK    1  A    between atoms: C_5  and  C_6 
REMARK    2  A    between atoms: C_11  and  C_12 
REMARK       I    between atoms: C_12  and  N_13 
REMARK    3  A    between atoms: N_13  and  C_14 
REMARK    4  A    between atoms: C_16  and  C_17 
REMARK    5  A    between atoms: C_17  and  O_18 
REMARK    6  A    between atoms: C_25  and  C_26 
ROOT
HETATM    1  C   UNL     1     -42.586  61.087 -50.726  1.00  0.00     0.118 C 
HETATM    2  N   UNL     1     -42.113  59.764 -50.335  1.00  0.00    -0.366 N 
HETATM    3  C   UNL     1     -42.346  58.658 -51.070  1.00  0.00     0.123 A 
HETATM    4  N   UNL     1     -43.016  58.709 -52.259  1.00  0.00    -0.240 N 
HETATM    5  N   UNL     1     -43.105  57.520 -52.889  1.00  0.00    -0.165 NA
HETATM    6  C   UNL     1     -42.502  56.665 -52.031  1.00  0.00     0.148 A 
HETATM    7  C   UNL     1     -42.018  57.344 -50.880  1.00  0.00     0.089 A 
HETATM    8  C   UNL     1     -43.539  59.927 -52.846  1.00  0.00     0.221 C 
HETATM    9  C   UNL     1     -42.840  61.160 -52.242  1.00  0.00     0.066 C 
HETATM   10  H   UNL     1     -41.717  59.701 -49.399  1.00  0.00     0.161 HD
ENDROOT
BRANCH   6  11
HETATM   11  C   UNL     1     -42.382  55.221 -52.306  1.00  0.00     0.276 C 
HETATM   12  N   UNL     1     -41.086  54.858 -52.618  1.00  0.00    -0.322 N 
HETATM   13  H   UNL     1     -40.436  55.641 -52.629  1.00  0.00     0.169 HD
HETATM   14  O   UNL     1     -43.360  54.484 -52.261  1.00  0.00    -0.266 OA
BRANCH  12  15
HETATM   15  C   UNL     1     -40.590  53.580 -52.929  1.00  0.00     0.035 A 
HETATM   16  C   UNL     1     -40.232  52.633 -51.966  1.00  0.00     0.039 A 
HETATM   17  C   UNL     1     -39.737  51.367 -52.335  1.00  0.00    -0.028 A 
HETATM   18  C   UNL     1     -39.619  51.062 -53.697  1.00  0.00     0.010 A 
HETATM   19  C   UNL     1     -39.970  52.003 -54.665  1.00  0.00     0.003 A 
HETATM   20  C   UNL     1     -40.450  53.257 -54.282  1.00  0.00     0.029 A 
BRANCH  17  21
HETATM   21  C   UNL     1     -39.375  50.370 -51.255  1.00  0.00     0.147 C 
HETATM   22  C   UNL     1     -40.279  50.513 -50.036  1.00  0.00     0.044 C 
BRANCH  21  23
HETATM   23  O   UNL     1     -39.472  49.035 -51.749  1.00  0.00    -0.391 OA
HETATM   24  H   UNL     1     -38.721  48.903 -52.350  1.00  0.00     0.210 HD
ENDBRANCH  21  23
ENDBRANCH  17  21
ENDBRANCH  12  15
ENDBRANCH   6  11
BRANCH   8  25
HETATM   25  C   UNL     1     -45.046  59.956 -52.740  1.00  0.00     0.409 C 
HETATM   26  F   UNL     1     -45.539  59.212 -51.734  1.00  0.00    -0.169 F 
HETATM   27  F   UNL     1     -45.476  61.230 -52.549  1.00  0.00    -0.169 F 
HETATM   28  F   UNL     1     -45.636  59.529 -53.883  1.00  0.00    -0.169 F 
ENDBRANCH   8  25
BRANCH   1  29
HETATM   29  C   UNL     1     -43.726  61.583 -49.856  1.00  0.00    -0.035 A 
HETATM   30  C   UNL     1     -44.440  60.659 -49.074  1.00  0.00     0.010 A 
HETATM   31  C   UNL     1     -45.517  61.062 -48.280  1.00  0.00     0.007 A 
HETATM   32  C   UNL     1     -45.912  62.402 -48.251  1.00  0.00    -0.062 A 
HETATM   33  C   UNL     1     -47.047  62.852 -47.381  1.00  0.00     0.048 C 
HETATM   34  C   UNL     1     -45.201  63.332 -49.013  1.00  0.00     0.007 A 
HETATM   35  C   UNL     1     -44.128  62.925 -49.814  1.00  0.00     0.010 A 
ENDBRANCH   1  29
TORSDOF 6
ENDMDL
MODEL 6
REMARK VINA RESULT:      -8.3      3.758      9.763
REMARK  6 active torsions:
REMARK  status: ('A' for Active; 'I' for Inactive)
REMARK    1  A    between atoms: C_5  and  C_6 
REMARK    2  A    between atoms: C_11  and  C_12 
REMARK       I    between atoms: C_12  and  N_13 
REMARK    3  A    between atoms: N_13  and  C_14 
REMARK    4  A    between atoms: C_16  and  C_17 
REMARK    5  A    between atoms: C_17  and  O_18 
REMARK    6  A    between atoms: C_25  and  C_26 
ROOT
HETATM    1  C   UNL     1     -44.267  60.530 -50.468  1.00  0.00     0.118 C 
HETATM    2  N   UNL     1     -44.591  59.110 -50.527  1.00  0.00    -0.366 N 
HETATM    3  C   UNL     1     -43.888  58.230 -51.270  1.00  0.00     0.123 A 
HETATM    4  N   UNL     1     -42.796  58.608 -51.996  1.00  0.00    -0.240 N 
HETATM    5  N   UNL     1     -42.180  57.590 -52.630  1.00  0.00    -0.165 NA
HETATM    6  C   UNL     1     -42.952  56.520 -52.327  1.00  0.00     0.148 A 
HETATM    7  C   UNL     1     -44.032  56.886 -51.480  1.00  0.00     0.089 A 
HETATM    8  C   UNL     1     -42.284  59.964 -52.048  1.00  0.00     0.221 C 
HETATM    9  C   UNL     1     -42.795  60.780 -50.846  1.00  0.00     0.066 C 
HETATM   10  H   UNL     1     -45.468  58.843 -50.084  1.00  0.00     0.161 HD
ENDROOT
BRANCH   6  11
HETATM   11  C   UNL     1     -42.659  55.166 -52.832  1.00  0.00     0.276 C 
HETATM   12  N   UNL     1     -41.361  54.779 -52.561  1.00  0.00    -0.322 N 
HETATM   13  H   UNL     1     -40.816  55.494 -52.082  1.00  0.00     0.169 HD
HETATM   14  O   UNL     1     -43.510  54.514 -53.428  1.00  0.00    -0.266 OA
BRANCH  12  15
HETATM   15  C   UNL     1     -40.729  53.565 -52.879  1.00  0.00     0.035 A 
HETATM   16  C   UNL     1     -40.373  52.605 -51.928  1.00  0.00     0.039 A 
HETATM   17  C   UNL     1     -39.739  51.405 -52.304  1.00  0.00    -0.028 A 
HETATM   18  C   UNL     1     -39.477  51.179 -53.661  1.00  0.00     0.010 A 
HETATM   19  C   UNL     1     -39.824  52.134 -54.616  1.00  0.00     0.003 A 
HETATM   20  C   UNL     1     -40.444  53.322 -54.226  1.00  0.00     0.029 A 
BRANCH  17  21
HETATM   21  C   UNL     1     -39.385  50.390 -51.238  1.00  0.00     0.147 C 
HETATM   22  C   UNL     1     -40.292  50.518 -50.019  1.00  0.00     0.044 C 
BRANCH  21  23
HETATM   23  O   UNL     1     -39.487  49.063 -51.753  1.00  0.00    -0.391 OA
HETATM   24  H   UNL     1     -39.916  48.527 -51.066  1.00  0.00     0.210 HD
ENDBRANCH  21  23
ENDBRANCH  17  21
ENDBRANCH  12  15
ENDBRANCH   6  11
BRANCH   8  25
HETATM   25  C   UNL     1     -42.582  60.587 -53.392  1.00  0.00     0.409 C 
HETATM   26  F   UNL     1     -41.679  60.295 -54.345  1.00  0.00    -0.169 F 
HETATM   27  F   UNL     1     -43.793  60.167 -53.842  1.00  0.00    -0.169 F 
HETATM   28  F   UNL     1     -42.660  61.937 -53.311  1.00  0.00    -0.169 F 
ENDBRANCH   8  25
BRANCH   1  29
HETATM   29  C   UNL     1     -45.276  61.393 -51.201  1.00  0.00    -0.035 A 
HETATM   30  C   UNL     1     -45.088  62.786 -51.232  1.00  0.00     0.010 A 
HETATM   31  C   UNL     1     -46.006  63.626 -51.869  1.00  0.00     0.007 A 
HETATM   32  C   UNL     1     -47.141  63.095 -52.487  1.00  0.00    -0.062 A 
HETATM   33  C   UNL     1     -48.118  63.983 -53.198  1.00  0.00     0.048 C 
HETATM   34  C   UNL     1     -47.331  61.711 -52.475  1.00  0.00     0.007 A 
HETATM   35  C   UNL     1     -46.416  60.872 -51.830  1.00  0.00     0.010 A 
ENDBRANCH   1  29
TORSDOF 6
ENDMDL
MODEL 7
REMARK VINA RESULT:      -8.3      7.145     10.045
REMARK  6 active torsions:
REMARK  status: ('A' for Active; 'I' for Inactive)
REMARK    1  A    between atoms: C_5  and  C_6 
REMARK    2  A    between atoms: C_11  and  C_12 
REMARK       I    between atoms: C_12  and  N_13 
REMARK    3  A    between atoms: N_13  and  C_14 
REMARK    4  A    between atoms: C_16  and  C_17 
REMARK    5  A    between atoms: C_17  and  O_18 
REMARK    6  A    between atoms: C_25  and  C_26 
ROOT
HETATM    1  C   UNL     1     -43.533  58.822 -59.301  1.00  0.00     0.118 C 
HETATM    2  N   UNL     1     -43.447  58.628 -57.859  1.00  0.00    -0.366 N 
HETATM    3  C   UNL     1     -43.269  57.416 -57.295  1.00  0.00     0.123 A 
HETATM    4  N   UNL     1     -43.122  56.284 -58.045  1.00  0.00    -0.240 N 
HETATM    5  N   UNL     1     -42.893  55.172 -57.318  1.00  0.00    -0.165 NA
HETATM    6  C   UNL     1     -42.946  55.615 -56.041  1.00  0.00     0.148 A 
HETATM    7  C   UNL     1     -43.184  57.015 -55.989  1.00  0.00     0.089 A 
HETATM    8  C   UNL     1     -43.141  56.262 -59.495  1.00  0.00     0.221 C 
HETATM    9  C   UNL     1     -42.857  57.666 -60.059  1.00  0.00     0.066 C 
HETATM   10  H   UNL     1     -43.671  59.445 -57.293  1.00  0.00     0.161 HD
ENDROOT
BRANCH   6  11
HETATM   11  C   UNL     1     -42.766  54.718 -54.884  1.00  0.00     0.276 C 
HETATM   12  N   UNL     1     -41.437  54.405 -54.672  1.00  0.00    -0.322 N 
HETATM   13  H   UNL     1     -40.808  54.820 -55.355  1.00  0.00     0.169 HD
HETATM   14  O   UNL     1     -43.727  54.321 -54.234  1.00  0.00    -0.266 OA
BRANCH  12  15
HETATM   15  C   UNL     1     -40.884  53.590 -53.669  1.00  0.00     0.035 A 
HETATM   16  C   UNL     1     -40.953  53.886 -52.305  1.00  0.00     0.039 A 
HETATM   17  C   UNL     1     -40.378  53.034 -51.343  1.00  0.00    -0.028 A 
HETATM   18  C   UNL     1     -39.737  51.866 -51.776  1.00  0.00     0.010 A 
HETATM   19  C   UNL     1     -39.659  51.565 -53.135  1.00  0.00     0.003 A 
HETATM   20  C   UNL     1     -40.227  52.425 -54.077  1.00  0.00     0.029 A 
BRANCH  17  21
HETATM   21  C   UNL     1     -40.491  53.391 -49.876  1.00  0.00     0.147 C 
HETATM   22  C   UNL     1     -39.335  54.276 -49.424  1.00  0.00     0.044 C 
BRANCH  21  23
HETATM   23  O   UNL     1     -41.721  54.067 -49.616  1.00  0.00    -0.391 OA
HETATM   24  H   UNL     1     -41.953  54.548 -50.426  1.00  0.00     0.210 HD
ENDBRANCH  21  23
ENDBRANCH  17  21
ENDBRANCH  12  15
ENDBRANCH   6  11
BRANCH   8  25
HETATM   25  C   UNL     1     -44.426  55.642 -59.992  1.00  0.00     0.409 C 
HETATM   26  F   UNL     1     -45.490  55.877 -59.204  1.00  0.00    -0.169 F 
HETATM   27  F   UNL     1     -44.726  56.119 -61.228  1.00  0.00    -0.169 F 
HETATM   28  F   UNL     1     -44.314  54.299 -60.127  1.00  0.00    -0.169 F 
ENDBRANCH   8  25
BRANCH   1  29
HETATM   29  C   UNL     1     -44.938  59.163 -59.764  1.00  0.00    -0.035 A 
HETATM   30  C   UNL     1     -45.118  59.715 -61.044  1.00  0.00     0.010 A 
HETATM   31  C   UNL     1     -46.388  60.073 -61.505  1.00  0.00     0.007 A 
HETATM   32  C   UNL     1     -47.513  59.893 -60.694  1.00  0.00    -0.062 A 
HETATM   33  C   UNL     1     -48.884  60.246 -61.188  1.00  0.00     0.048 C 
HETATM   34  C   UNL     1     -47.346  59.332 -59.426  1.00  0.00     0.007 A 
HETATM   35  C   UNL     1     -46.073  58.981 -58.963  1.00  0.00     0.010 A 
ENDBRANCH   1  29
TORSDOF 6
ENDMDL
MODEL 8
REMARK VINA RESULT:      -8.3      1.168      2.162
REMARK  6 active torsions:
REMARK  status: ('A' for Active; 'I' for Inactive)
REMARK    1  A    between atoms: C_5  and  C_6 
REMARK    2  A    between atoms: C_11  and  C_12 
REMARK       I    between atoms: C_12  and  N_13 
REMARK    3  A    between atoms: N_13  and  C_14 
REMARK    4  A    between atoms: C_16  and  C_17 
REMARK    5  A    between atoms: C_17  and  O_18 
REMARK    6  A    between atoms: C_25  and  C_26 
ROOT
HETATM    1  C   UNL     1     -43.495  55.761 -53.412  1.00  0.00     0.118 C 
HETATM    2  N   UNL     1     -44.282  56.389 -52.357  1.00  0.00    -0.366 N 
HETATM    3  C   UNL     1     -44.113  57.674 -51.985  1.00  0.00     0.123 A 
HETATM    4  N   UNL     1     -43.208  58.491 -52.602  1.00  0.00    -0.240 N 
HETATM    5  N   UNL     1     -43.215  59.759 -52.144  1.00  0.00    -0.165 NA
HETATM    6  C   UNL     1     -44.137  59.730 -51.153  1.00  0.00     0.148 A 
HETATM    7  C   UNL     1     -44.716  58.439 -51.025  1.00  0.00     0.089 A 
HETATM    8  C   UNL     1     -42.352  58.076 -53.696  1.00  0.00     0.221 C 
HETATM    9  C   UNL     1     -42.916  56.814 -54.374  1.00  0.00     0.066 C 
HETATM   10  H   UNL     1     -44.872  55.758 -51.817  1.00  0.00     0.161 HD
ENDROOT
BRANCH   6  11
HETATM   11  C   UNL     1     -44.467  60.918 -50.345  1.00  0.00     0.276 C 
HETATM   12  N   UNL     1     -45.067  60.581 -49.147  1.00  0.00    -0.322 N 
HETATM   13  H   UNL     1     -45.203  59.580 -49.029  1.00  0.00     0.169 HD
HETATM   14  O   UNL     1     -44.223  62.049 -50.752  1.00  0.00    -0.266 OA
BRANCH  12  15
HETATM   15  C   UNL     1     -45.511  61.437 -48.124  1.00  0.00     0.035 A 
HETATM   16  C   UNL     1     -44.799  61.668 -46.944  1.00  0.00     0.039 A 
HETATM   17  C   UNL     1     -45.293  62.534 -45.951  1.00  0.00    -0.028 A 
HETATM   18  C   UNL     1     -46.518  63.179 -46.169  1.00  0.00     0.010 A 
HETATM   19  C   UNL     1     -47.237  62.951 -47.341  1.00  0.00     0.003 A 
HETATM   20  C   UNL     1     -46.737  62.081 -48.312  1.00  0.00     0.029 A 
BRANCH  17  21
HETATM   21  C   UNL     1     -44.478  62.763 -44.695  1.00  0.00     0.147 C 
HETATM   22  C   UNL     1     -45.154  63.760 -43.762  1.00  0.00     0.044 C 
BRANCH  21  23
HETATM   23  O   UNL     1     -44.277  61.536 -43.995  1.00  0.00    -0.391 OA
HETATM   24  H   UNL     1     -44.402  61.728 -43.051  1.00  0.00     0.210 HD
ENDBRANCH  21  23
ENDBRANCH  17  21
ENDBRANCH  12  15
ENDBRANCH   6  11
BRANCH   8  25
HETATM   25  C   UNL     1     -40.924  57.938 -53.221  1.00  0.00     0.409 C 
HETATM   26  F   UNL     1     -40.807  57.589 -51.928  1.00  0.00    -0.169 F 
HETATM   27  F   UNL     1     -40.277  56.996 -53.954  1.00  0.00    -0.169 F 
HETATM   28  F   UNL     1     -40.227  59.088 -53.392  1.00  0.00    -0.169 F 
ENDBRANCH   8  25
BRANCH   1  29
HETATM   29  C   UNL     1     -42.493  54.756 -52.877  1.00  0.00    -0.035 A 
HETATM   30  C   UNL     1     -41.703  54.031 -53.786  1.00  0.00     0.010 A 
HETATM   31  C   UNL     1     -40.786  53.072 -53.345  1.00  0.00     0.007 A 
HETATM   32  C   UNL     1     -40.639  52.809 -51.980  1.00  0.00    -0.062 A 
HETATM   33  C   UNL     1     -39.639  51.804 -51.493  1.00  0.00     0.048 C 
HETATM   34  C   UNL     1     -41.409  53.534 -51.067  1.00  0.00     0.007 A 
HETATM   35  C   UNL     1     -42.331  54.487 -51.511  1.00  0.00     0.010 A 
ENDBRANCH   1  29
TORSDOF 6
ENDMDL
MODEL 9
REMARK VINA RESULT:      -8.1      5.641      8.287
REMARK  6 active torsions:
REMARK  status: ('A' for Active; 'I' for Inactive)
REMARK    1  A    between atoms: C_5  and  C_6 
REMARK    2  A    between atoms: C_11  and  C_12 
REMARK       I    between atoms: C_12  and  N_13 
REMARK    3  A    between atoms: N_13  and  C_14 
REMARK    4  A    between atoms: C_16  and  C_17 
REMARK    5  A    between atoms: C_17  and  O_18 
REMARK    6  A    between atoms: C_25  and  C_26 
ROOT
HETATM    1  C   UNL     1     -40.456  55.192 -52.616  1.00  0.00     0.118 C 
HETATM    2  N   UNL     1     -40.825  55.825 -53.876  1.00  0.00    -0.366 N 
HETATM    3  C   UNL     1     -42.061  56.306 -54.119  1.00  0.00     0.123 A 
HETATM    4  N   UNL     1     -43.050  56.264 -53.178  1.00  0.00    -0.240 N 
HETATM    5  N   UNL     1     -44.202  56.843 -53.568  1.00  0.00    -0.165 NA
HETATM    6  C   UNL     1     -43.944  57.229 -54.840  1.00  0.00     0.148 A 
HETATM    7  C   UNL     1     -42.613  56.905 -55.218  1.00  0.00     0.089 A 
HETATM    8  C   UNL     1     -42.883  55.709 -51.848  1.00  0.00     0.221 C 
HETATM    9  C   UNL     1     -41.391  55.638 -51.477  1.00  0.00     0.066 C 
HETATM   10  H   UNL     1     -40.131  55.756 -54.620  1.00  0.00     0.161 HD
ENDROOT
BRANCH   6  11
HETATM   11  C   UNL     1     -44.950  57.905 -55.681  1.00  0.00     0.276 C 
HETATM   12  N   UNL     1     -44.921  57.455 -56.987  1.00  0.00    -0.322 N 
HETATM   13  H   UNL     1     -44.203  56.755 -57.159  1.00  0.00     0.169 HD
HETATM   14  O   UNL     1     -45.687  58.768 -55.218  1.00  0.00    -0.266 OA
BRANCH  12  15
HETATM   15  C   UNL     1     -45.729  57.856 -58.064  1.00  0.00     0.035 A 
HETATM   16  C   UNL     1     -46.180  56.986 -59.061  1.00  0.00     0.039 A 
HETATM   17  C   UNL     1     -46.986  57.445 -60.120  1.00  0.00    -0.028 A 
HETATM   18  C   UNL     1     -47.344  58.799 -60.156  1.00  0.00     0.010 A 
HETATM   19  C   UNL     1     -46.895  59.675 -59.169  1.00  0.00     0.003 A 
HETATM   20  C   UNL     1     -46.089  59.206 -58.130  1.00  0.00     0.029 A 
BRANCH  17  21
HETATM   21  C   UNL     1     -47.461  56.460 -61.168  1.00  0.00     0.147 C 
HETATM   22  C   UNL     1     -48.359  57.131 -62.201  1.00  0.00     0.044 C 
BRANCH  21  23
HETATM   23  O   UNL     1     -46.351  55.863 -61.837  1.00  0.00    -0.391 OA
HETATM   24  H   UNL     1     -46.009  56.525 -62.459  1.00  0.00     0.210 HD
ENDBRANCH  21  23
ENDBRANCH  17  21
ENDBRANCH  12  15
ENDBRANCH   6  11
BRANCH   8  25
HETATM   25  C   UNL     1     -43.614  54.392 -51.734  1.00  0.00     0.409 C 
HETATM   26  F   UNL     1     -43.928  53.834 -52.917  1.00  0.00    -0.169 F 
HETATM   27  F   UNL     1     -42.854  53.494 -51.055  1.00  0.00    -0.169 F 
HETATM   28  F   UNL     1     -44.764  54.517 -51.030  1.00  0.00    -0.169 F 
ENDBRANCH   8  25
BRANCH   1  29
HETATM   29  C   UNL     1     -40.267  53.692 -52.745  1.00  0.00    -0.035 A 
HETATM   30  C   UNL     1     -39.827  52.962 -51.628  1.00  0.00     0.010 A 
HETATM   31  C   UNL     1     -39.610  51.583 -51.705  1.00  0.00     0.007 A 
HETATM   32  C   UNL     1     -39.822  50.899 -52.905  1.00  0.00    -0.062 A 
HETATM   33  C   UNL     1     -39.620  49.416 -52.993  1.00  0.00     0.048 C 
HETATM   34  C   UNL     1     -40.273  51.613 -54.018  1.00  0.00     0.007 A 
HETATM   35  C   UNL     1     -40.483  52.994 -53.941  1.00  0.00     0.010 A 
ENDBRANCH   1  29
TORSDOF 6
ENDMDL
MODEL 10
REMARK VINA RESULT:      -8.1     19.328     21.382
REMARK  6 active torsions:
REMARK  status: ('A' for Active; 'I' for Inactive)
REMARK    1  A    between atoms: C_5  and  C_6 
REMARK    2  A    between atoms: C_11  and  C_12 
REMARK       I    between atoms: C_12  and  N_13 
REMARK    3  A    between atoms: N_13  and  C_14 
REMARK    4  A    between atoms: C_16  and  C_17 
REMARK    5  A    between atoms: C_17  and  O_18 
REMARK    6  A    between atoms: C_25  and  C_26 
ROOT
HETATM    1  C   UNL     1     -37.050  42.263 -55.935  1.00  0.00     0.118 C 
HETATM    2  N   UNL     1     -37.592  41.480 -54.832  1.00  0.00    -0.366 N 
HETATM    3  C   UNL     1     -36.813  40.816 -53.954  1.00  0.00     0.123 A 
HETATM    4  N   UNL     1     -35.449  40.862 -54.021  1.00  0.00    -0.240 N 
HETATM    5  N   UNL     1     -34.830  40.190 -53.030  1.00  0.00    -0.165 NA
HETATM    6  C   UNL     1     -35.854  39.652 -52.328  1.00  0.00     0.148 A 
HETATM    7  C   UNL     1     -37.110  40.021 -52.881  1.00  0.00     0.089 A 
HETATM    8  C   UNL     1     -34.709  41.610 -55.018  1.00  0.00     0.221 C 
HETATM    9  C   UNL     1     -35.600  42.695 -55.650  1.00  0.00     0.066 C 
HETATM   10  H   UNL     1     -38.602  41.346 -54.845  1.00  0.00     0.161 HD
ENDROOT
BRANCH   6  11
HETATM   11  C   UNL     1     -35.640  38.803 -51.141  1.00  0.00     0.276 C 
HETATM   12  N   UNL     1     -34.681  39.325 -50.295  1.00  0.00    -0.322 N 
HETATM   13  H   UNL     1     -34.265  40.189 -50.637  1.00  0.00     0.169 HD
HETATM   14  O   UNL     1     -36.264  37.759 -50.987  1.00  0.00    -0.266 OA
BRANCH  12  15
HETATM   15  C   UNL     1     -34.219  38.804 -49.075  1.00  0.00     0.035 A 
HETATM   16  C   UNL     1     -35.062  38.327 -48.067  1.00  0.00     0.039 A 
HETATM   17  C   UNL     1     -34.543  37.817 -46.861  1.00  0.00    -0.028 A 
HETATM   18  C   UNL     1     -33.154  37.783 -46.687  1.00  0.00     0.010 A 
HETATM   19  C   UNL     1     -32.305  38.262 -47.685  1.00  0.00     0.003 A 
HETATM   20  C   UNL     1     -32.836  38.772 -48.871  1.00  0.00     0.029 A 
BRANCH  17  21
HETATM   21  C   UNL     1     -35.497  37.300 -45.806  1.00  0.00     0.147 C 
HETATM   22  C   UNL     1     -34.819  37.184 -44.445  1.00  0.00     0.044 C 
BRANCH  21  23
HETATM   23  O   UNL     1     -36.631  38.159 -45.686  1.00  0.00    -0.391 OA
HETATM   24  H   UNL     1     -36.456  38.752 -44.938  1.00  0.00     0.210 HD
ENDBRANCH  21  23
ENDBRANCH  17  21
ENDBRANCH  12  15
ENDBRANCH   6  11
BRANCH   8  25
HETATM   25  C   UNL     1     -34.076  40.669 -56.017  1.00  0.00     0.409 C 
HETATM   26  F   UNL     1     -34.798  39.559 -56.259  1.00  0.00    -0.169 F 
HETATM   27  F   UNL     1     -33.898  41.301 -57.206  1.00  0.00    -0.169 F 
HETATM   28  F   UNL     1     -32.845  40.269 -55.617  1.00  0.00    -0.169 F 
ENDBRANCH   8  25
BRANCH   1  29
HETATM   29  C   UNL     1     -37.273  41.607 -57.285  1.00  0.00    -0.035 A 
HETATM   30  C   UNL     1     -37.875  40.338 -57.336  1.00  0.00     0.010 A 
HETATM   31  C   UNL     1     -38.075  39.680 -58.553  1.00  0.00     0.007 A 
HETATM   32  C   UNL     1     -37.672  40.273 -59.753  1.00  0.00    -0.062 A 
HETATM   33  C   UNL     1     -37.908  39.590 -61.067  1.00  0.00     0.048 C 
HETATM   34  C   UNL     1     -37.086  41.540 -59.715  1.00  0.00     0.007 A 
HETATM   35  C   UNL     1     -36.880  42.194 -58.496  1.00  0.00     0.010 A 
ENDBRANCH   1  29
TORSDOF 6
ENDMDL
