MODEL 1
REMARK VINA RESULT:      -9.2      0.000      0.000
REMARK  9 active torsions:
REMARK  status: ('A' for Active; 'I' for Inactive)
REMARK    1  A    between atoms: C_7  and  C_8 
REMARK    2  A    between atoms: C_9  and  O_10 
REMARK    3  A    between atoms: C_13  and  N_14 
REMARK    4  A    between atoms: N_14  and  C_15 
REMARK    5  A    between atoms: C_15  and  N_16 
REMARK       I    between atoms: N_16  and  C_17 
REMARK    6  A    between atoms: C_17  and  C_18 
REMARK    7  A    between atoms: C_20  and  O_21 
REMARK    8  A    between atoms: O_21  and  C_22 
REMARK    9  A    between atoms: C_22  and  C_23 
ROOT
HETATM    1  C   UNL     1     -41.599  57.540 -52.612  1.00  0.00     0.052 A 
HETATM    2  C   UNL     1     -41.872  58.037 -51.330  1.00  0.00     0.080 A 
HETATM    3  C   UNL     1     -42.212  59.380 -51.139  1.00  0.00     0.040 A 
HETATM    4  C   UNL     1     -42.284  60.248 -52.232  1.00  0.00     0.032 A 
HETATM    5  C   UNL     1     -42.090  59.762 -53.523  1.00  0.00     0.035 A 
HETATM    6  C   UNL     1     -41.751  58.419 -53.702  1.00  0.00     0.048 A 
ENDROOT
BRANCH   5   7
HETATM    7  N   UNL     1     -42.106  60.669 -54.600  1.00  0.00    -0.333 N 
HETATM    8  H   UNL     1     -41.226  61.144 -54.800  1.00  0.00     0.168 HD
BRANCH   7   9
HETATM    9  C   UNL     1     -43.121  60.904 -55.490  1.00  0.00     0.179 C 
HETATM   10  S   UNL     1     -44.177  62.206 -55.494  1.00  0.00    -0.040 SA
BRANCH   9  11
HETATM   11  N   UNL     1     -43.288  59.968 -56.481  1.00  0.00    -0.299 N 
HETATM   12  C   UNL     1     -42.302  59.425 -57.293  1.00  0.00     0.257 C 
HETATM   13  O   UNL     1     -41.259  59.986 -57.603  1.00  0.00    -0.267 OA
HETATM   14  H   UNL     1     -44.131  59.428 -56.339  1.00  0.00     0.171 HD
BRANCH  12  15
HETATM   15  C   UNL     1     -42.605  58.057 -57.781  1.00  0.00     0.035 A 
HETATM   16  C   UNL     1     -43.096  57.849 -59.077  1.00  0.00     0.053 A 
HETATM   17  C   UNL     1     -43.506  56.574 -59.466  1.00  0.00     0.069 A 
HETATM   18  C   UNL     1     -43.393  55.513 -58.561  1.00  0.00     0.037 A 
HETATM   19  C   UNL     1     -42.870  55.714 -57.281  1.00  0.00     0.004 A 
HETATM   20  C   UNL     1     -42.472  56.990 -56.888  1.00  0.00     0.017 A 
BRANCH  17  21
HETATM   21  O   UNL     1     -44.051  56.241 -60.674  1.00  0.00    -0.351 OA
BRANCH  21  22
HETATM   22  C   UNL     1     -45.371  55.694 -60.672  1.00  0.00     0.179 C 
BRANCH  22  23
HETATM   23  C   UNL     1     -46.410  56.824 -60.597  1.00  0.00     0.002 C 
HETATM   24  C   UNL     1     -47.635  56.521 -61.458  1.00  0.00     0.011 C 
HETATM   25  C   UNL     1     -46.835  57.082 -59.150  1.00  0.00     0.011 C 
ENDBRANCH  22  23
ENDBRANCH  21  22
ENDBRANCH  17  21
ENDBRANCH  12  15
ENDBRANCH   9  11
ENDBRANCH   7   9
ENDBRANCH   5   7
BRANCH   1  26
HETATM   26  C   UNL     1     -41.059  56.200 -52.850  1.00  0.00     0.183 A 
HETATM   27  O   UNL     1     -40.863  55.432 -51.723  1.00  0.00    -0.288 OA
HETATM   28  C   UNL     1     -40.566  54.191 -52.202  1.00  0.00     0.112 A 
HETATM   29  C   UNL     1     -40.568  54.268 -53.583  1.00  0.00     0.094 A 
HETATM   30  C   UNL     1     -40.338  53.034 -51.458  1.00  0.00    -0.025 A 
HETATM   31  C   UNL     1     -40.330  53.107 -54.328  1.00  0.00     0.041 A 
HETATM   32  N   UNL     1     -40.862  55.547 -53.982  1.00  0.00    -0.221 NA
HETATM   33  C   UNL     1     -40.106  51.900 -53.639  1.00  0.00    -0.059 A 
HETATM   34  C   UNL     1     -39.927  50.622 -54.406  1.00  0.00     0.048 C 
HETATM   35  C   UNL     1     -40.123  51.877 -52.231  1.00  0.00     0.016 A 
HETATM   36  C   UNL     1     -40.384  52.976 -49.966  1.00  0.00     0.051 C 
ENDBRANCH   1  26
BRANCH   2  37
HETATM   37  O   UNL     1     -41.806  57.209 -50.245  1.00  0.00    -0.360 OA
HETATM   38  H   UNL     1     -42.678  56.821 -50.072  1.00  0.00     0.217 HD
ENDBRANCH   2  37
TORSDOF 9
ENDMDL
MODEL 2
REMARK VINA RESULT:      -8.9      1.623      2.236
REMARK  9 active torsions:
REMARK  status: ('A' for Active; 'I' for Inactive)
REMARK    1  A    between atoms: C_7  and  C_8 
REMARK    2  A    between atoms: C_9  and  O_10 
REMARK    3  A    between atoms: C_13  and  N_14 
REMARK    4  A    between atoms: N_14  and  C_15 
REMARK    5  A    between atoms: C_15  and  N_16 
REMARK       I    between atoms: N_16  and  C_17 
REMARK    6  A    between atoms: C_17  and  C_18 
REMARK    7  A    between atoms: C_20  and  O_21 
REMARK    8  A    between atoms: O_21  and  C_22 
REMARK    9  A    between atoms: C_22  and  C_23 
ROOT
HETATM    1  C   UNL     1     -43.065  56.521 -52.783  1.00  0.00     0.052 A 
HETATM    2  C   UNL     1     -43.994  56.559 -51.735  1.00  0.00     0.080 A 
HETATM    3  C   UNL     1     -44.708  57.729 -51.452  1.00  0.00     0.040 A 
HETATM    4  C   UNL     1     -44.501  58.879 -52.217  1.00  0.00     0.032 A 
HETATM    5  C   UNL     1     -43.638  58.845 -53.310  1.00  0.00     0.035 A 
HETATM    6  C   UNL     1     -42.930  57.672 -53.583  1.00  0.00     0.048 A 
ENDROOT
BRANCH   5   7
HETATM    7  N   UNL     1     -43.400  60.035 -54.025  1.00  0.00    -0.333 N 
HETATM    8  H   UNL     1     -42.499  60.484 -53.862  1.00  0.00     0.168 HD
BRANCH   7   9
HETATM    9  C   UNL     1     -44.175  60.601 -55.003  1.00  0.00     0.179 C 
HETATM   10  S   UNL     1     -45.709  61.251 -54.824  1.00  0.00    -0.040 SA
BRANCH   9  11
HETATM   11  N   UNL     1     -43.631  60.635 -56.264  1.00  0.00    -0.299 N 
HETATM   12  C   UNL     1     -42.392  60.148 -56.654  1.00  0.00     0.257 C 
HETATM   13  O   UNL     1     -41.413  60.051 -55.925  1.00  0.00    -0.267 OA
HETATM   14  H   UNL     1     -44.350  60.716 -56.972  1.00  0.00     0.171 HD
BRANCH  12  15
HETATM   15  C   UNL     1     -42.325  59.730 -58.076  1.00  0.00     0.035 A 
HETATM   16  C   UNL     1     -42.439  58.381 -58.435  1.00  0.00     0.053 A 
HETATM   17  C   UNL     1     -42.232  57.997 -59.760  1.00  0.00     0.069 A 
HETATM   18  C   UNL     1     -41.943  58.973 -60.718  1.00  0.00     0.037 A 
HETATM   19  C   UNL     1     -41.865  60.323 -60.367  1.00  0.00     0.004 A 
HETATM   20  C   UNL     1     -42.059  60.706 -59.041  1.00  0.00     0.017 A 
BRANCH  17  21
HETATM   21  O   UNL     1     -42.259  56.716 -60.236  1.00  0.00    -0.351 OA
BRANCH  21  22
HETATM   22  C   UNL     1     -42.946  55.737 -59.455  1.00  0.00     0.179 C 
BRANCH  22  23
HETATM   23  C   UNL     1     -44.288  55.382 -60.114  1.00  0.00     0.002 C 
HETATM   24  C   UNL     1     -44.739  53.969 -59.748  1.00  0.00     0.011 C 
HETATM   25  C   UNL     1     -45.370  56.394 -59.736  1.00  0.00     0.011 C 
ENDBRANCH  22  23
ENDBRANCH  21  22
ENDBRANCH  17  21
ENDBRANCH  12  15
ENDBRANCH   9  11
ENDBRANCH   7   9
ENDBRANCH   5   7
BRANCH   1  26
HETATM   26  C   UNL     1     -42.159  55.392 -53.005  1.00  0.00     0.183 A 
HETATM   27  O   UNL     1     -41.573  54.873 -51.871  1.00  0.00    -0.288 OA
HETATM   28  C   UNL     1     -40.960  53.732 -52.295  1.00  0.00     0.112 A 
HETATM   29  C   UNL     1     -41.176  53.627 -53.658  1.00  0.00     0.094 A 
HETATM   30  C   UNL     1     -40.271  52.805 -51.514  1.00  0.00    -0.025 A 
HETATM   31  C   UNL     1     -40.680  52.509 -54.340  1.00  0.00     0.041 A 
HETATM   32  N   UNL     1     -41.919  54.692 -54.100  1.00  0.00    -0.221 NA
HETATM   33  C   UNL     1     -39.986  51.528 -53.608  1.00  0.00    -0.059 A 
HETATM   34  C   UNL     1     -39.510  50.279 -54.291  1.00  0.00     0.048 C 
HETATM   35  C   UNL     1     -39.802  51.681 -52.220  1.00  0.00     0.016 A 
HETATM   36  C   UNL     1     -40.091  52.928 -50.036  1.00  0.00     0.051 C 
ENDBRANCH   1  26
BRANCH   2  37
HETATM   37  O   UNL     1     -44.213  55.448 -50.971  1.00  0.00    -0.360 OA
HETATM   38  H   UNL     1     -45.150  55.200 -51.010  1.00  0.00     0.217 HD
ENDBRANCH   2  37
TORSDOF 9
ENDMDL
MODEL 3
REMARK VINA RESULT:      -8.8      4.071      8.047
REMARK  9 active torsions:
REMARK  status: ('A' for Active; 'I' for Inactive)
REMARK    1  A    between atoms: C_7  and  C_8 
REMARK    2  A    between atoms: C_9  and  O_10 
REMARK    3  A    between atoms: C_13  and  N_14 
REMARK    4  A    between atoms: N_14  and  C_15 
REMARK    5  A    between atoms: C_15  and  N_16 
REMARK       I    between atoms: N_16  and  C_17 
REMARK    6  A    between atoms: C_17  and  C_18 
REMARK    7  A    between atoms: C_20  and  O_21 
REMARK    8  A    between atoms: O_21  and  C_22 
REMARK    9  A    between atoms: C_22  and  C_23 
ROOT
HETATM    1  C   UNL     1     -42.525  56.451 -53.666  1.00  0.00     0.052 A 
HETATM    2  C   UNL     1     -43.902  56.448 -53.919  1.00  0.00     0.080 A 
HETATM    3  C   UNL     1     -44.674  57.595 -53.702  1.00  0.00     0.040 A 
HETATM    4  C   UNL     1     -44.073  58.765 -53.228  1.00  0.00     0.032 A 
HETATM    5  C   UNL     1     -42.694  58.814 -53.040  1.00  0.00     0.035 A 
HETATM    6  C   UNL     1     -41.934  57.663 -53.259  1.00  0.00     0.048 A 
ENDROOT
BRANCH   5   7
HETATM    7  N   UNL     1     -42.124  59.984 -52.501  1.00  0.00    -0.333 N 
HETATM    8  H   UNL     1     -42.029  60.773 -53.139  1.00  0.00     0.168 HD
BRANCH   7   9
HETATM    9  C   UNL     1     -41.792  60.236 -51.195  1.00  0.00     0.179 C 
HETATM   10  S   UNL     1     -40.542  59.543 -50.320  1.00  0.00    -0.040 SA
BRANCH   9  11
HETATM   11  N   UNL     1     -42.573  61.155 -50.538  1.00  0.00    -0.299 N 
HETATM   12  C   UNL     1     -43.404  62.108 -51.109  1.00  0.00     0.257 C 
HETATM   13  O   UNL     1     -43.241  62.611 -52.213  1.00  0.00    -0.267 OA
HETATM   14  H   UNL     1     -42.782  60.852 -49.595  1.00  0.00     0.171 HD
BRANCH  12  15
HETATM   15  C   UNL     1     -44.556  62.496 -50.259  1.00  0.00     0.035 A 
HETATM   16  C   UNL     1     -44.986  61.671 -49.211  1.00  0.00     0.053 A 
HETATM   17  C   UNL     1     -46.154  61.984 -48.517  1.00  0.00     0.069 A 
HETATM   18  C   UNL     1     -46.866  63.138 -48.861  1.00  0.00     0.037 A 
HETATM   19  C   UNL     1     -46.419  63.979 -49.883  1.00  0.00     0.004 A 
HETATM   20  C   UNL     1     -45.258  63.660 -50.584  1.00  0.00     0.017 A 
BRANCH  17  21
HETATM   21  O   UNL     1     -46.714  61.244 -47.515  1.00  0.00    -0.351 OA
BRANCH  21  22
HETATM   22  C   UNL     1     -46.671  61.785 -46.193  1.00  0.00     0.179 C 
BRANCH  22  23
HETATM   23  C   UNL     1     -45.221  62.116 -45.806  1.00  0.00     0.002 C 
HETATM   24  C   UNL     1     -45.132  63.429 -45.029  1.00  0.00     0.011 C 
HETATM   25  C   UNL     1     -44.597  60.980 -44.993  1.00  0.00     0.011 C 
ENDBRANCH  22  23
ENDBRANCH  21  22
ENDBRANCH  17  21
ENDBRANCH  12  15
ENDBRANCH   9  11
ENDBRANCH   7   9
ENDBRANCH   5   7
BRANCH   1  26
HETATM   26  C   UNL     1     -41.706  55.237 -53.694  1.00  0.00     0.183 A 
HETATM   27  O   UNL     1     -41.195  54.840 -52.477  1.00  0.00    -0.288 OA
HETATM   28  C   UNL     1     -40.664  53.607 -52.715  1.00  0.00     0.112 A 
HETATM   29  C   UNL     1     -40.851  53.327 -54.057  1.00  0.00     0.094 A 
HETATM   30  C   UNL     1     -40.074  52.751 -51.786  1.00  0.00    -0.025 A 
HETATM   31  C   UNL     1     -40.428  52.089 -54.558  1.00  0.00     0.041 A 
HETATM   32  N   UNL     1     -41.493  54.372 -54.671  1.00  0.00    -0.221 NA
HETATM   33  C   UNL     1     -39.835  51.172 -53.670  1.00  0.00    -0.059 A 
HETATM   34  C   UNL     1     -39.443  49.806 -54.155  1.00  0.00     0.048 C 
HETATM   35  C   UNL     1     -39.677  51.506 -52.311  1.00  0.00     0.016 A 
HETATM   36  C   UNL     1     -39.925  53.068 -50.334  1.00  0.00     0.051 C 
ENDBRANCH   1  26
BRANCH   2  37
HETATM   37  O   UNL     1     -44.513  55.317 -54.381  1.00  0.00    -0.360 OA
HETATM   38  H   UNL     1     -44.563  54.655 -53.673  1.00  0.00     0.217 HD
ENDBRANCH   2  37
TORSDOF 9
ENDMDL
MODEL 4
REMARK VINA RESULT:      -8.7      2.806      5.356
REMARK  9 active torsions:
REMARK  status: ('A' for Active; 'I' for Inactive)
REMARK    1  A    between atoms: C_7  and  C_8 
REMARK    2  A    between atoms: C_9  and  O_10 
REMARK    3  A    between atoms: C_13  and  N_14 
REMARK    4  A    between atoms: N_14  and  C_15 
REMARK    5  A    between atoms: C_15  and  N_16 
REMARK       I    between atoms: N_16  and  C_17 
REMARK    6  A    between atoms: C_17  and  C_18 
REMARK    7  A    between atoms: C_20  and  O_21 
REMARK    8  A    between atoms: O_21  and  C_22 
REMARK    9  A    between atoms: C_22  and  C_23 
ROOT
HETATM    1  C   UNL     1     -44.304  59.120 -52.306  1.00  0.00     0.052 A 
HETATM    2  C   UNL     1     -44.581  60.386 -51.774  1.00  0.00     0.080 A 
HETATM    3  C   UNL     1     -45.190  61.374 -52.555  1.00  0.00     0.040 A 
HETATM    4  C   UNL     1     -45.532  61.107 -53.883  1.00  0.00     0.032 A 
HETATM    5  C   UNL     1     -45.335  59.833 -54.411  1.00  0.00     0.035 A 
HETATM    6  C   UNL     1     -44.726  58.854 -53.623  1.00  0.00     0.048 A 
ENDROOT
BRANCH   5   7
HETATM    7  N   UNL     1     -45.630  59.609 -55.770  1.00  0.00    -0.333 N 
HETATM    8  H   UNL     1     -45.622  60.431 -56.373  1.00  0.00     0.168 HD
BRANCH   7   9
HETATM    9  C   UNL     1     -45.805  58.408 -56.408  1.00  0.00     0.179 C 
HETATM   10  S   UNL     1     -46.962  58.039 -57.563  1.00  0.00    -0.040 SA
BRANCH   9  11
HETATM   11  N   UNL     1     -44.937  57.402 -56.057  1.00  0.00    -0.299 N 
HETATM   12  C   UNL     1     -43.801  57.000 -56.744  1.00  0.00     0.257 C 
HETATM   13  O   UNL     1     -43.634  57.111 -57.951  1.00  0.00    -0.267 OA
HETATM   14  H   UNL     1     -44.981  57.210 -55.064  1.00  0.00     0.171 HD
BRANCH  12  15
HETATM   15  C   UNL     1     -42.753  56.401 -55.882  1.00  0.00     0.035 A 
HETATM   16  C   UNL     1     -42.631  55.010 -55.760  1.00  0.00     0.053 A 
HETATM   17  C   UNL     1     -41.733  54.472 -54.839  1.00  0.00     0.069 A 
HETATM   18  C   UNL     1     -40.945  55.333 -54.068  1.00  0.00     0.037 A 
HETATM   19  C   UNL     1     -41.041  56.718 -54.215  1.00  0.00     0.004 A 
HETATM   20  C   UNL     1     -41.946  57.257 -55.127  1.00  0.00     0.017 A 
BRANCH  17  21
HETATM   21  O   UNL     1     -41.552  53.142 -54.579  1.00  0.00    -0.351 OA
BRANCH  21  22
HETATM   22  C   UNL     1     -40.215  52.693 -54.351  1.00  0.00     0.179 C 
BRANCH  22  23
HETATM   23  C   UNL     1     -40.229  51.387 -53.540  1.00  0.00     0.002 C 
HETATM   24  C   UNL     1     -39.742  50.202 -54.373  1.00  0.00     0.011 C 
HETATM   25  C   UNL     1     -39.386  51.520 -52.271  1.00  0.00     0.011 C 
ENDBRANCH  22  23
ENDBRANCH  21  22
ENDBRANCH  17  21
ENDBRANCH  12  15
ENDBRANCH   9  11
ENDBRANCH   7   9
ENDBRANCH   5   7
BRANCH   1  26
HETATM   26  C   UNL     1     -43.504  58.116 -51.601  1.00  0.00     0.183 A 
HETATM   27  O   UNL     1     -44.009  56.834 -51.623  1.00  0.00    -0.288 OA
HETATM   28  C   UNL     1     -43.012  56.064 -51.103  1.00  0.00     0.112 A 
HETATM   29  C   UNL     1     -41.969  56.909 -50.766  1.00  0.00     0.094 A 
HETATM   30  C   UNL     1     -43.005  54.677 -50.962  1.00  0.00    -0.025 A 
HETATM   31  C   UNL     1     -40.792  56.359 -50.243  1.00  0.00     0.041 A 
HETATM   32  N   UNL     1     -42.298  58.205 -51.067  1.00  0.00    -0.221 NA
HETATM   33  C   UNL     1     -40.714  54.962 -50.087  1.00  0.00    -0.059 A 
HETATM   34  C   UNL     1     -39.439  54.332 -49.604  1.00  0.00     0.048 C 
HETATM   35  C   UNL     1     -41.803  54.148 -50.454  1.00  0.00     0.016 A 
HETATM   36  C   UNL     1     -44.134  53.790 -51.375  1.00  0.00     0.051 C 
ENDBRANCH   1  26
BRANCH   2  37
HETATM   37  O   UNL     1     -44.254  60.672 -50.478  1.00  0.00    -0.360 OA
HETATM   38  H   UNL     1     -44.873  61.327 -50.118  1.00  0.00     0.217 HD
ENDBRANCH   2  37
TORSDOF 9
ENDMDL
MODEL 5
REMARK VINA RESULT:      -8.6      2.786      8.710
REMARK  9 active torsions:
REMARK  status: ('A' for Active; 'I' for Inactive)
REMARK    1  A    between atoms: C_7  and  C_8 
REMARK    2  A    between atoms: C_9  and  O_10 
REMARK    3  A    between atoms: C_13  and  N_14 
REMARK    4  A    between atoms: N_14  and  C_15 
REMARK    5  A    between atoms: C_15  and  N_16 
REMARK       I    between atoms: N_16  and  C_17 
REMARK    6  A    between atoms: C_17  and  C_18 
REMARK    7  A    between atoms: C_20  and  O_21 
REMARK    8  A    between atoms: O_21  and  C_22 
REMARK    9  A    between atoms: C_22  and  C_23 
ROOT
HETATM    1  C   UNL     1     -43.647  57.106 -56.544  1.00  0.00     0.052 A 
HETATM    2  C   UNL     1     -43.007  55.861 -56.594  1.00  0.00     0.080 A 
HETATM    3  C   UNL     1     -42.924  55.050 -55.457  1.00  0.00     0.040 A 
HETATM    4  C   UNL     1     -43.484  55.476 -54.250  1.00  0.00     0.032 A 
HETATM    5  C   UNL     1     -44.190  56.676 -54.193  1.00  0.00     0.035 A 
HETATM    6  C   UNL     1     -44.265  57.478 -55.334  1.00  0.00     0.048 A 
ENDROOT
BRANCH   5   7
HETATM    7  N   UNL     1     -44.689  57.112 -52.950  1.00  0.00    -0.333 N 
HETATM    8  H   UNL     1     -45.632  56.808 -52.712  1.00  0.00     0.168 HD
BRANCH   7   9
HETATM    9  C   UNL     1     -44.021  57.794 -51.966  1.00  0.00     0.179 C 
HETATM   10  S   UNL     1     -44.117  59.433 -51.630  1.00  0.00    -0.040 SA
BRANCH   9  11
HETATM   11  N   UNL     1     -43.183  57.047 -51.173  1.00  0.00    -0.299 N 
HETATM   12  C   UNL     1     -43.433  55.790 -50.642  1.00  0.00     0.257 C 
HETATM   13  O   UNL     1     -44.544  55.347 -50.378  1.00  0.00    -0.267 OA
HETATM   14  H   UNL     1     -42.217  57.322 -51.300  1.00  0.00     0.171 HD
BRANCH  12  15
HETATM   15  C   UNL     1     -42.214  54.979 -50.405  1.00  0.00     0.035 A 
HETATM   16  C   UNL     1     -41.953  53.834 -51.169  1.00  0.00     0.053 A 
HETATM   17  C   UNL     1     -40.878  53.010 -50.836  1.00  0.00     0.069 A 
HETATM   18  C   UNL     1     -40.057  53.357 -49.758  1.00  0.00     0.037 A 
HETATM   19  C   UNL     1     -40.297  54.517 -49.019  1.00  0.00     0.004 A 
HETATM   20  C   UNL     1     -41.378  55.335 -49.343  1.00  0.00     0.017 A 
BRANCH  17  21
HETATM   21  O   UNL     1     -40.542  51.840 -51.459  1.00  0.00    -0.351 OA
BRANCH  21  22
HETATM   22  C   UNL     1     -39.247  51.761 -52.056  1.00  0.00     0.179 C 
BRANCH  22  23
HETATM   23  C   UNL     1     -39.374  51.391 -53.543  1.00  0.00     0.002 C 
HETATM   24  C   UNL     1     -39.886  49.963 -53.726  1.00  0.00     0.011 C 
HETATM   25  C   UNL     1     -40.284  52.375 -54.278  1.00  0.00     0.011 C 
ENDBRANCH  22  23
ENDBRANCH  21  22
ENDBRANCH  17  21
ENDBRANCH  12  15
ENDBRANCH   9  11
ENDBRANCH   7   9
ENDBRANCH   5   7
BRANCH   1  26
HETATM   26  C   UNL     1     -43.600  58.072 -57.643  1.00  0.00     0.183 A 
HETATM   27  O   UNL     1     -42.764  59.150 -57.448  1.00  0.00    -0.288 OA
HETATM   28  C   UNL     1     -42.726  59.777 -58.657  1.00  0.00     0.112 A 
HETATM   29  C   UNL     1     -43.554  59.074 -59.515  1.00  0.00     0.094 A 
HETATM   30  C   UNL     1     -41.971  60.898 -59.001  1.00  0.00    -0.025 A 
HETATM   31  C   UNL     1     -43.661  59.491 -60.848  1.00  0.00     0.041 A 
HETATM   32  N   UNL     1     -44.115  58.009 -58.859  1.00  0.00    -0.221 NA
HETATM   33  C   UNL     1     -42.914  60.608 -61.265  1.00  0.00    -0.059 A 
HETATM   34  C   UNL     1     -42.944  61.034 -62.704  1.00  0.00     0.048 C 
HETATM   35  C   UNL     1     -42.081  61.282 -60.352  1.00  0.00     0.016 A 
HETATM   36  C   UNL     1     -41.055  61.610 -58.060  1.00  0.00     0.051 C 
ENDBRANCH   1  26
BRANCH   2  37
HETATM   37  O   UNL     1     -42.450  55.422 -57.762  1.00  0.00    -0.360 OA
HETATM   38  H   UNL     1     -43.121  55.402 -58.462  1.00  0.00     0.217 HD
ENDBRANCH   2  37
TORSDOF 9
ENDMDL
MODEL 6
REMARK VINA RESULT:      -8.6      1.470      2.140
REMARK  9 active torsions:
REMARK  status: ('A' for Active; 'I' for Inactive)
REMARK    1  A    between atoms: C_7  and  C_8 
REMARK    2  A    between atoms: C_9  and  O_10 
REMARK    3  A    between atoms: C_13  and  N_14 
REMARK    4  A    between atoms: N_14  and  C_15 
REMARK    5  A    between atoms: C_15  and  N_16 
REMARK       I    between atoms: N_16  and  C_17 
REMARK    6  A    between atoms: C_17  and  C_18 
REMARK    7  A    between atoms: C_20  and  O_21 
REMARK    8  A    between atoms: O_21  and  C_22 
REMARK    9  A    between atoms: C_22  and  C_23 
ROOT
HETATM    1  C   UNL     1     -42.487  56.877 -53.372  1.00  0.00     0.052 A 
HETATM    2  C   UNL     1     -43.607  57.003 -52.541  1.00  0.00     0.080 A 
HETATM    3  C   UNL     1     -44.235  58.241 -52.366  1.00  0.00     0.040 A 
HETATM    4  C   UNL     1     -43.749  59.373 -53.026  1.00  0.00     0.032 A 
HETATM    5  C   UNL     1     -42.683  59.259 -53.915  1.00  0.00     0.035 A 
HETATM    6  C   UNL     1     -42.063  58.018 -54.081  1.00  0.00     0.048 A 
ENDROOT
BRANCH   5   7
HETATM    7  N   UNL     1     -42.172  60.425 -54.516  1.00  0.00    -0.333 N 
HETATM    8  H   UNL     1     -41.157  60.490 -54.581  1.00  0.00     0.168 HD
BRANCH   7   9
HETATM    9  C   UNL     1     -42.870  61.430 -55.136  1.00  0.00     0.179 C 
HETATM   10  S   UNL     1     -43.467  62.827 -54.430  1.00  0.00    -0.040 SA
BRANCH   9  11
HETATM   11  N   UNL     1     -43.103  61.266 -56.480  1.00  0.00    -0.299 N 
HETATM   12  C   UNL     1     -42.244  60.710 -57.416  1.00  0.00     0.257 C 
HETATM   13  O   UNL     1     -41.022  60.711 -57.338  1.00  0.00    -0.267 OA
HETATM   14  H   UNL     1     -44.095  61.249 -56.681  1.00  0.00     0.171 HD
BRANCH  12  15
HETATM   15  C   UNL     1     -42.931  60.082 -58.571  1.00  0.00     0.035 A 
HETATM   16  C   UNL     1     -42.696  58.742 -58.906  1.00  0.00     0.053 A 
HETATM   17  C   UNL     1     -43.242  58.213 -60.075  1.00  0.00     0.069 A 
HETATM   18  C   UNL     1     -44.043  59.026 -60.884  1.00  0.00     0.037 A 
HETATM   19  C   UNL     1     -44.307  60.352 -60.533  1.00  0.00     0.004 A 
HETATM   20  C   UNL     1     -43.751  60.884 -59.370  1.00  0.00     0.017 A 
BRANCH  17  21
HETATM   21  O   UNL     1     -43.052  56.945 -60.548  1.00  0.00    -0.351 OA
BRANCH  21  22
HETATM   22  C   UNL     1     -43.414  55.862 -59.690  1.00  0.00     0.179 C 
BRANCH  22  23
HETATM   23  C   UNL     1     -44.560  55.053 -60.318  1.00  0.00     0.002 C 
HETATM   24  C   UNL     1     -44.749  53.707 -59.620  1.00  0.00     0.011 C 
HETATM   25  C   UNL     1     -45.868  55.846 -60.296  1.00  0.00     0.011 C 
ENDBRANCH  22  23
ENDBRANCH  21  22
ENDBRANCH  17  21
ENDBRANCH  12  15
ENDBRANCH   9  11
ENDBRANCH   7   9
ENDBRANCH   5   7
BRANCH   1  26
HETATM   26  C   UNL     1     -41.680  55.657 -53.444  1.00  0.00     0.183 A 
HETATM   27  O   UNL     1     -41.216  55.182 -52.237  1.00  0.00    -0.288 OA
HETATM   28  C   UNL     1     -40.690  53.959 -52.530  1.00  0.00     0.112 A 
HETATM   29  C   UNL     1     -40.832  53.762 -53.892  1.00  0.00     0.094 A 
HETATM   30  C   UNL     1     -40.141  53.042 -51.634  1.00  0.00    -0.025 A 
HETATM   31  C   UNL     1     -40.405  52.551 -54.451  1.00  0.00     0.041 A 
HETATM   32  N   UNL     1     -41.442  54.849 -54.464  1.00  0.00    -0.221 NA
HETATM   33  C   UNL     1     -39.853  51.575 -53.600  1.00  0.00    -0.059 A 
HETATM   34  C   UNL     1     -39.458  50.236 -54.152  1.00  0.00     0.048 C 
HETATM   35  C   UNL     1     -39.739  51.825 -52.218  1.00  0.00     0.016 A 
HETATM   36  C   UNL     1     -40.041  53.270 -50.161  1.00  0.00     0.051 C 
ENDBRANCH   1  26
BRANCH   2  37
HETATM   37  O   UNL     1     -44.101  55.911 -51.884  1.00  0.00    -0.360 OA
HETATM   38  H   UNL     1     -44.682  55.406 -52.473  1.00  0.00     0.217 HD
ENDBRANCH   2  37
TORSDOF 9
ENDMDL
MODEL 7
REMARK VINA RESULT:      -8.5      1.643      2.097
REMARK  9 active torsions:
REMARK  status: ('A' for Active; 'I' for Inactive)
REMARK    1  A    between atoms: C_7  and  C_8 
REMARK    2  A    between atoms: C_9  and  O_10 
REMARK    3  A    between atoms: C_13  and  N_14 
REMARK    4  A    between atoms: N_14  and  C_15 
REMARK    5  A    between atoms: C_15  and  N_16 
REMARK       I    between atoms: N_16  and  C_17 
REMARK    6  A    between atoms: C_17  and  C_18 
REMARK    7  A    between atoms: C_20  and  O_21 
REMARK    8  A    between atoms: O_21  and  C_22 
REMARK    9  A    between atoms: C_22  and  C_23 
ROOT
HETATM    1  C   UNL     1     -42.494  56.384 -53.945  1.00  0.00     0.052 A 
HETATM    2  C   UNL     1     -43.562  56.650 -53.078  1.00  0.00     0.080 A 
HETATM    3  C   UNL     1     -44.205  57.893 -53.093  1.00  0.00     0.040 A 
HETATM    4  C   UNL     1     -43.785  58.889 -53.979  1.00  0.00     0.032 A 
HETATM    5  C   UNL     1     -42.775  58.623 -54.900  1.00  0.00     0.035 A 
HETATM    6  C   UNL     1     -42.140  57.379 -54.876  1.00  0.00     0.048 A 
ENDROOT
BRANCH   5   7
HETATM    7  N   UNL     1     -42.328  59.663 -55.737  1.00  0.00    -0.333 N 
HETATM    8  H   UNL     1     -41.338  59.897 -55.675  1.00  0.00     0.168 HD
BRANCH   7   9
HETATM    9  C   UNL     1     -43.031  60.320 -56.714  1.00  0.00     0.179 C 
HETATM   10  S   UNL     1     -43.444  61.944 -56.740  1.00  0.00    -0.040 SA
BRANCH   9  11
HETATM   11  N   UNL     1     -43.439  59.560 -57.783  1.00  0.00    -0.299 N 
HETATM   12  C   UNL     1     -42.740  58.525 -58.389  1.00  0.00     0.257 C 
HETATM   13  O   UNL     1     -41.521  58.421 -58.415  1.00  0.00    -0.267 OA
HETATM   14  H   UNL     1     -44.446  59.565 -57.874  1.00  0.00     0.171 HD
BRANCH  12  15
HETATM   15  C   UNL     1     -43.605  57.505 -59.031  1.00  0.00     0.035 A 
HETATM   16  C   UNL     1     -44.953  57.774 -59.306  1.00  0.00     0.053 A 
HETATM   17  C   UNL     1     -45.780  56.756 -59.779  1.00  0.00     0.069 A 
HETATM   18  C   UNL     1     -45.242  55.484 -60.000  1.00  0.00     0.037 A 
HETATM   19  C   UNL     1     -43.890  55.225 -59.760  1.00  0.00     0.004 A 
HETATM   20  C   UNL     1     -43.066  56.239 -59.276  1.00  0.00     0.017 A 
BRANCH  17  21
HETATM   21  O   UNL     1     -47.117  56.865 -60.036  1.00  0.00    -0.351 OA
BRANCH  21  22
HETATM   22  C   UNL     1     -47.576  56.456 -61.325  1.00  0.00     0.179 C 
BRANCH  22  23
HETATM   23  C   UNL     1     -48.437  57.562 -61.955  1.00  0.00     0.002 C 
HETATM   24  C   UNL     1     -47.818  58.944 -61.750  1.00  0.00     0.011 C 
HETATM   25  C   UNL     1     -48.661  57.301 -63.445  1.00  0.00     0.011 C 
ENDBRANCH  22  23
ENDBRANCH  21  22
ENDBRANCH  17  21
ENDBRANCH  12  15
ENDBRANCH   9  11
ENDBRANCH   7   9
ENDBRANCH   5   7
BRANCH   1  26
HETATM   26  C   UNL     1     -41.668  55.179 -53.845  1.00  0.00     0.183 A 
HETATM   27  O   UNL     1     -41.152  54.917 -52.595  1.00  0.00    -0.288 OA
HETATM   28  C   UNL     1     -40.614  53.669 -52.701  1.00  0.00     0.112 A 
HETATM   29  C   UNL     1     -40.801  53.246 -54.005  1.00  0.00     0.094 A 
HETATM   30  C   UNL     1     -40.015  52.921 -51.688  1.00  0.00    -0.025 A 
HETATM   31  C   UNL     1     -40.372  51.965 -54.372  1.00  0.00     0.041 A 
HETATM   32  N   UNL     1     -41.451  54.216 -54.725  1.00  0.00    -0.221 NA
HETATM   33  C   UNL     1     -39.771  51.152 -53.393  1.00  0.00    -0.059 A 
HETATM   34  C   UNL     1     -39.371  49.744 -53.731  1.00  0.00     0.048 C 
HETATM   35  C   UNL     1     -39.612  51.629 -52.078  1.00  0.00     0.016 A 
HETATM   36  C   UNL     1     -39.866  53.391 -50.278  1.00  0.00     0.051 C 
ENDBRANCH   1  26
BRANCH   2  37
HETATM   37  O   UNL     1     -43.990  55.693 -52.201  1.00  0.00    -0.360 OA
HETATM   38  H   UNL     1     -43.659  54.824 -52.473  1.00  0.00     0.217 HD
ENDBRANCH   2  37
TORSDOF 9
ENDMDL
MODEL 8
REMARK VINA RESULT:      -8.5      2.228      3.180
REMARK  9 active torsions:
REMARK  status: ('A' for Active; 'I' for Inactive)
REMARK    1  A    between atoms: C_7  and  C_8 
REMARK    2  A    between atoms: C_9  and  O_10 
REMARK    3  A    between atoms: C_13  and  N_14 
REMARK    4  A    between atoms: N_14  and  C_15 
REMARK    5  A    between atoms: C_15  and  N_16 
REMARK       I    between atoms: N_16  and  C_17 
REMARK    6  A    between atoms: C_17  and  C_18 
REMARK    7  A    between atoms: C_20  and  O_21 
REMARK    8  A    between atoms: O_21  and  C_22 
REMARK    9  A    between atoms: C_22  and  C_23 
ROOT
HETATM    1  C   UNL     1     -42.540  57.709 -51.281  1.00  0.00     0.052 A 
HETATM    2  C   UNL     1     -41.597  58.674 -50.905  1.00  0.00     0.080 A 
HETATM    3  C   UNL     1     -41.979  60.001 -50.678  1.00  0.00     0.040 A 
HETATM    4  C   UNL     1     -43.316  60.380 -50.825  1.00  0.00     0.032 A 
HETATM    5  C   UNL     1     -44.284  59.424 -51.125  1.00  0.00     0.035 A 
HETATM    6  C   UNL     1     -43.890  58.102 -51.350  1.00  0.00     0.048 A 
ENDROOT
BRANCH   5   7
HETATM    7  N   UNL     1     -45.612  59.843 -51.330  1.00  0.00    -0.333 N 
HETATM    8  H   UNL     1     -46.229  59.794 -50.520  1.00  0.00     0.168 HD
BRANCH   7   9
HETATM    9  C   UNL     1     -46.150  60.424 -52.450  1.00  0.00     0.179 C 
HETATM   10  S   UNL     1     -47.370  61.571 -52.503  1.00  0.00    -0.040 SA
BRANCH   9  11
HETATM   11  N   UNL     1     -45.630  60.016 -53.654  1.00  0.00    -0.299 N 
HETATM   12  C   UNL     1     -44.665  60.664 -54.411  1.00  0.00     0.257 C 
HETATM   13  O   UNL     1     -44.464  61.872 -54.409  1.00  0.00    -0.267 OA
HETATM   14  H   UNL     1     -45.735  59.017 -53.780  1.00  0.00     0.171 HD
BRANCH  12  15
HETATM   15  C   UNL     1     -43.852  59.760 -55.260  1.00  0.00     0.035 A 
HETATM   16  C   UNL     1     -44.242  59.463 -56.573  1.00  0.00     0.053 A 
HETATM   17  C   UNL     1     -43.542  58.503 -57.304  1.00  0.00     0.069 A 
HETATM   18  C   UNL     1     -42.439  57.869 -56.721  1.00  0.00     0.037 A 
HETATM   19  C   UNL     1     -42.029  58.191 -55.425  1.00  0.00     0.004 A 
HETATM   20  C   UNL     1     -42.736  59.141 -54.690  1.00  0.00     0.017 A 
BRANCH  17  21
HETATM   21  O   UNL     1     -43.844  58.080 -58.567  1.00  0.00    -0.351 OA
BRANCH  21  22
HETATM   22  C   UNL     1     -44.629  56.893 -58.694  1.00  0.00     0.179 C 
BRANCH  22  23
HETATM   23  C   UNL     1     -43.734  55.709 -59.092  1.00  0.00     0.002 C 
HETATM   24  C   UNL     1     -44.525  54.624 -59.820  1.00  0.00     0.011 C 
HETATM   25  C   UNL     1     -42.560  56.174 -59.956  1.00  0.00     0.011 C 
ENDBRANCH  22  23
ENDBRANCH  21  22
ENDBRANCH  17  21
ENDBRANCH  12  15
ENDBRANCH   9  11
ENDBRANCH   7   9
ENDBRANCH   5   7
BRANCH   1  26
HETATM   26  C   UNL     1     -42.171  56.359 -51.712  1.00  0.00     0.183 A 
HETATM   27  O   UNL     1     -42.706  55.955 -52.916  1.00  0.00    -0.288 OA
HETATM   28  C   UNL     1     -42.067  54.785 -53.199  1.00  0.00     0.112 A 
HETATM   29  C   UNL     1     -41.202  54.521 -52.151  1.00  0.00     0.094 A 
HETATM   30  C   UNL     1     -42.211  54.002 -54.344  1.00  0.00    -0.025 A 
HETATM   31  C   UNL     1     -40.386  53.384 -52.215  1.00  0.00     0.041 A 
HETATM   32  N   UNL     1     -41.290  55.512 -51.207  1.00  0.00    -0.221 NA
HETATM   33  C   UNL     1     -40.473  52.557 -53.350  1.00  0.00    -0.059 A 
HETATM   34  C   UNL     1     -39.556  51.376 -53.488  1.00  0.00     0.048 C 
HETATM   35  C   UNL     1     -41.364  52.878 -54.392  1.00  0.00     0.016 A 
HETATM   36  C   UNL     1     -43.125  54.339 -55.476  1.00  0.00     0.051 C 
ENDBRANCH   1  26
BRANCH   2  37
HETATM   37  O   UNL     1     -40.283  58.329 -50.756  1.00  0.00    -0.360 OA
HETATM   38  H   UNL     1     -39.892  58.135 -51.622  1.00  0.00     0.217 HD
ENDBRANCH   2  37
TORSDOF 9
ENDMDL
MODEL 9
REMARK VINA RESULT:      -8.4      2.411      8.850
REMARK  9 active torsions:
REMARK  status: ('A' for Active; 'I' for Inactive)
REMARK    1  A    between atoms: C_7  and  C_8 
REMARK    2  A    between atoms: C_9  and  O_10 
REMARK    3  A    between atoms: C_13  and  N_14 
REMARK    4  A    between atoms: N_14  and  C_15 
REMARK    5  A    between atoms: C_15  and  N_16 
REMARK       I    between atoms: N_16  and  C_17 
REMARK    6  A    between atoms: C_17  and  C_18 
REMARK    7  A    between atoms: C_20  and  O_21 
REMARK    8  A    between atoms: O_21  and  C_22 
REMARK    9  A    between atoms: C_22  and  C_23 
ROOT
HETATM    1  C   UNL     1     -42.612  57.131 -56.757  1.00  0.00     0.052 A 
HETATM    2  C   UNL     1     -42.965  55.789 -56.570  1.00  0.00     0.080 A 
HETATM    3  C   UNL     1     -42.711  55.143 -55.355  1.00  0.00     0.040 A 
HETATM    4  C   UNL     1     -42.099  55.836 -54.307  1.00  0.00     0.032 A 
HETATM    5  C   UNL     1     -41.806  57.191 -54.443  1.00  0.00     0.035 A 
HETATM    6  C   UNL     1     -42.063  57.825 -55.661  1.00  0.00     0.048 A 
ENDROOT
BRANCH   5   7
HETATM    7  N   UNL     1     -41.132  57.848 -53.396  1.00  0.00    -0.333 N 
HETATM    8  H   UNL     1     -40.212  58.224 -53.621  1.00  0.00     0.168 HD
BRANCH   7   9
HETATM    9  C   UNL     1     -41.608  58.153 -52.147  1.00  0.00     0.179 C 
HETATM   10  S   UNL     1     -42.452  59.529 -51.698  1.00  0.00    -0.040 SA
BRANCH   9  11
HETATM   11  N   UNL     1     -41.360  57.229 -51.162  1.00  0.00    -0.299 N 
HETATM   12  C   UNL     1     -42.173  56.169 -50.786  1.00  0.00     0.257 C 
HETATM   13  O   UNL     1     -43.391  56.142 -50.902  1.00  0.00    -0.267 OA
HETATM   14  H   UNL     1     -40.370  57.155 -50.967  1.00  0.00     0.171 HD
BRANCH  12  15
HETATM   15  C   UNL     1     -41.437  55.016 -50.210  1.00  0.00     0.035 A 
HETATM   16  C   UNL     1     -41.117  53.902 -50.997  1.00  0.00     0.053 A 
HETATM   17  C   UNL     1     -40.553  52.774 -50.404  1.00  0.00     0.069 A 
HETATM   18  C   UNL     1     -40.287  52.783 -49.030  1.00  0.00     0.037 A 
HETATM   19  C   UNL     1     -40.574  53.907 -48.252  1.00  0.00     0.004 A 
HETATM   20  C   UNL     1     -41.150  55.030 -48.843  1.00  0.00     0.017 A 
BRANCH  17  21
HETATM   21  O   UNL     1     -40.241  51.605 -51.039  1.00  0.00    -0.351 OA
BRANCH  21  22
HETATM   22  C   UNL     1     -39.361  51.679 -52.162  1.00  0.00     0.179 C 
BRANCH  22  23
HETATM   23  C   UNL     1     -40.128  51.364 -53.456  1.00  0.00     0.002 C 
HETATM   24  C   UNL     1     -40.169  52.569 -54.394  1.00  0.00     0.011 C 
HETATM   25  C   UNL     1     -39.520  50.158 -54.173  1.00  0.00     0.011 C 
ENDBRANCH  22  23
ENDBRANCH  21  22
ENDBRANCH  17  21
ENDBRANCH  12  15
ENDBRANCH   9  11
ENDBRANCH   7   9
ENDBRANCH   5   7
BRANCH   1  26
HETATM   26  C   UNL     1     -42.680  57.800 -58.058  1.00  0.00     0.183 A 
HETATM   27  O   UNL     1     -43.949  57.988 -58.562  1.00  0.00    -0.288 OA
HETATM   28  C   UNL     1     -43.771  58.796 -59.644  1.00  0.00     0.112 A 
HETATM   29  C   UNL     1     -42.414  59.038 -59.764  1.00  0.00     0.094 A 
HETATM   30  C   UNL     1     -44.761  59.327 -60.470  1.00  0.00    -0.025 A 
HETATM   31  C   UNL     1     -41.962  59.884 -60.783  1.00  0.00     0.041 A 
HETATM   32  N   UNL     1     -41.731  58.388 -58.767  1.00  0.00    -0.221 NA
HETATM   33  C   UNL     1     -42.911  60.464 -61.646  1.00  0.00    -0.059 A 
HETATM   34  C   UNL     1     -42.470  61.439 -62.699  1.00  0.00     0.048 C 
HETATM   35  C   UNL     1     -44.282  60.191 -61.474  1.00  0.00     0.016 A 
HETATM   36  C   UNL     1     -46.223  59.079 -60.289  1.00  0.00     0.051 C 
ENDBRANCH   1  26
BRANCH   2  37
HETATM   37  O   UNL     1     -43.563  55.089 -57.580  1.00  0.00    -0.360 OA
HETATM   38  H   UNL     1     -44.432  54.770 -57.291  1.00  0.00     0.217 HD
ENDBRANCH   2  37
TORSDOF 9
ENDMDL
MODEL 10
REMARK VINA RESULT:      -8.4      1.470      2.497
REMARK  9 active torsions:
REMARK  status: ('A' for Active; 'I' for Inactive)
REMARK    1  A    between atoms: C_7  and  C_8 
REMARK    2  A    between atoms: C_9  and  O_10 
REMARK    3  A    between atoms: C_13  and  N_14 
REMARK    4  A    between atoms: N_14  and  C_15 
REMARK    5  A    between atoms: C_15  and  N_16 
REMARK       I    between atoms: N_16  and  C_17 
REMARK    6  A    between atoms: C_17  and  C_18 
REMARK    7  A    between atoms: C_20  and  O_21 
REMARK    8  A    between atoms: O_21  and  C_22 
REMARK    9  A    between atoms: C_22  and  C_23 
ROOT
HETATM    1  C   UNL     1     -42.100  57.632 -51.780  1.00  0.00     0.052 A 
HETATM    2  C   UNL     1     -41.644  58.460 -50.747  1.00  0.00     0.080 A 
HETATM    3  C   UNL     1     -41.839  59.845 -50.798  1.00  0.00     0.040 A 
HETATM    4  C   UNL     1     -42.495  60.420 -51.890  1.00  0.00     0.032 A 
HETATM    5  C   UNL     1     -43.022  59.611 -52.893  1.00  0.00     0.035 A 
HETATM    6  C   UNL     1     -42.821  58.230 -52.832  1.00  0.00     0.048 A 
ENDROOT
BRANCH   5   7
HETATM    7  N   UNL     1     -43.622  60.220 -54.012  1.00  0.00    -0.333 N 
HETATM    8  H   UNL     1     -44.526  59.845 -54.298  1.00  0.00     0.168 HD
BRANCH   7   9
HETATM    9  C   UNL     1     -43.202  61.334 -54.692  1.00  0.00     0.179 C 
HETATM   10  S   UNL     1     -43.298  62.926 -54.178  1.00  0.00    -0.040 SA
BRANCH   9  11
HETATM   11  N   UNL     1     -42.644  61.115 -55.929  1.00  0.00    -0.299 N 
HETATM   12  C   UNL     1     -42.001  59.966 -56.365  1.00  0.00     0.257 C 
HETATM   13  O   UNL     1     -41.410  59.174 -55.642  1.00  0.00    -0.267 OA
HETATM   14  H   UNL     1     -43.054  61.720 -56.629  1.00  0.00     0.171 HD
BRANCH  12  15
HETATM   15  C   UNL     1     -42.081  59.746 -57.830  1.00  0.00     0.035 A 
HETATM   16  C   UNL     1     -42.225  58.455 -58.356  1.00  0.00     0.053 A 
HETATM   17  C   UNL     1     -42.155  58.257 -59.735  1.00  0.00     0.069 A 
HETATM   18  C   UNL     1     -41.971  59.360 -60.576  1.00  0.00     0.037 A 
HETATM   19  C   UNL     1     -41.863  60.650 -60.053  1.00  0.00     0.004 A 
HETATM   20  C   UNL     1     -41.920  60.847 -58.675  1.00  0.00     0.017 A 
BRANCH  17  21
HETATM   21  O   UNL     1     -42.226  57.053 -60.376  1.00  0.00    -0.351 OA
BRANCH  21  22
HETATM   22  C   UNL     1     -42.841  55.969 -59.677  1.00  0.00     0.179 C 
BRANCH  22  23
HETATM   23  C   UNL     1     -44.239  55.695 -60.254  1.00  0.00     0.002 C 
HETATM   24  C   UNL     1     -44.720  54.284 -59.917  1.00  0.00     0.011 C 
HETATM   25  C   UNL     1     -45.250  56.729 -59.756  1.00  0.00     0.011 C 
ENDBRANCH  22  23
ENDBRANCH  21  22
ENDBRANCH  17  21
ENDBRANCH  12  15
ENDBRANCH   9  11
ENDBRANCH   7   9
ENDBRANCH   5   7
BRANCH   1  26
HETATM   26  C   UNL     1     -41.761  56.210 -51.871  1.00  0.00     0.183 A 
HETATM   27  O   UNL     1     -41.427  55.760 -53.130  1.00  0.00    -0.288 OA
HETATM   28  C   UNL     1     -40.958  54.497 -52.929  1.00  0.00     0.112 A 
HETATM   29  C   UNL     1     -41.053  54.230 -51.575  1.00  0.00     0.094 A 
HETATM   30  C   UNL     1     -40.437  53.630 -53.889  1.00  0.00    -0.025 A 
HETATM   31  C   UNL     1     -40.592  52.999 -51.092  1.00  0.00     0.041 A 
HETATM   32  N   UNL     1     -41.579  55.312 -50.918  1.00  0.00    -0.221 NA
HETATM   33  C   UNL     1     -40.041  52.081 -52.006  1.00  0.00    -0.059 A 
HETATM   34  C   UNL     1     -39.465  50.786 -51.513  1.00  0.00     0.048 C 
HETATM   35  C   UNL     1     -39.961  52.408 -53.374  1.00  0.00     0.016 A 
HETATM   36  C   UNL     1     -40.311  53.966 -55.339  1.00  0.00     0.051 C 
ENDBRANCH   1  26
BRANCH   2  37
HETATM   37  O   UNL     1     -40.998  57.922 -49.670  1.00  0.00    -0.360 OA
HETATM   38  H   UNL     1     -40.755  57.002 -49.856  1.00  0.00     0.217 HD
ENDBRANCH   2  37
TORSDOF 9
ENDMDL
