MODEL 1
REMARK VINA RESULT:      -9.0      0.000      0.000
REMARK  3 active torsions:
REMARK  status: ('A' for Active; 'I' for Inactive)
REMARK    1  A    between atoms: C_4  and  C_5 
REMARK    2  A    between atoms: C_9  and  C_10 
REMARK       I    between atoms: C_10  and  N_11 
REMARK    3  A    between atoms: N_11  and  N_12 
ROOT
HETATM    1  C   UNL     1     -42.885  56.000 -55.382  1.00  0.00     0.289 C 
HETATM    2  N   UNL     1     -42.532  56.750 -56.493  1.00  0.00    -0.241 N 
HETATM    3  O   UNL     1     -43.922  56.138 -54.743  1.00  0.00    -0.264 OA
HETATM    4  H   UNL     1     -41.603  56.657 -56.875  1.00  0.00     0.192 HD
ENDROOT
BRANCH   1   5
HETATM    5  C   UNL     1     -41.930  54.969 -55.053  1.00  0.00     0.121 A 
HETATM    6  N   UNL     1     -40.614  55.072 -55.408  1.00  0.00    -0.272 N 
HETATM    7  N   UNL     1     -39.843  54.072 -54.951  1.00  0.00    -0.174 NA
HETATM    8  H   UNL     1     -40.184  55.827 -55.935  1.00  0.00     0.189 HD
HETATM    9  C   UNL     1     -40.692  53.252 -54.313  1.00  0.00     0.089 A 
HETATM   10  C   UNL     1     -42.015  53.771 -54.368  1.00  0.00     0.071 A 
BRANCH   9  11
HETATM   11  C   UNL     1     -40.242  52.032 -53.639  1.00  0.00    -0.006 A 
HETATM   12  C   UNL     1     -39.915  52.055 -52.276  1.00  0.00     0.014 A 
HETATM   13  C   UNL     1     -39.528  50.886 -51.615  1.00  0.00     0.001 A 
HETATM   14  C   UNL     1     -39.456  49.683 -52.313  1.00  0.00     0.000 A 
HETATM   15  C   UNL     1     -39.765  49.647 -53.672  1.00  0.00     0.001 A 
HETATM   16  C   UNL     1     -40.157  50.815 -54.332  1.00  0.00     0.014 A 
ENDBRANCH   9  11
ENDBRANCH   1   5
BRANCH   2  17
HETATM   17  N   UNL     1     -43.288  57.800 -56.913  1.00  0.00    -0.165 NA
HETATM   18  C   UNL     1     -43.975  57.665 -58.004  1.00  0.00     0.157 A 
HETATM   19  C   UNL     1     -44.685  58.866 -58.663  1.00  0.00     0.277 A 
HETATM   20  C   UNL     1     -44.260  56.511 -58.874  1.00  0.00     0.027 A 
HETATM   21  O   UNL     1     -44.739  59.998 -58.241  1.00  0.00    -0.266 OA
HETATM   22  N   UNL     1     -45.211  58.377 -59.838  1.00  0.00    -0.321 N 
HETATM   23  C   UNL     1     -44.977  57.014 -59.962  1.00  0.00     0.048 A 
HETATM   24  H   UNL     1     -45.738  58.953 -60.477  1.00  0.00     0.169 HD
HETATM   25  C   UNL     1     -45.411  56.201 -60.991  1.00  0.00     0.030 A 
HETATM   26  C   UNL     1     -45.125  54.836 -60.900  1.00  0.00     0.002 A 
HETATM   27  C   UNL     1     -44.439  54.316 -59.787  1.00  0.00     0.001 A 
HETATM   28  C   UNL     1     -44.010  55.155 -58.753  1.00  0.00     0.016 A 
ENDBRANCH   2  17
TORSDOF 3
ENDMDL
MODEL 2
REMARK VINA RESULT:      -8.8      2.390      8.183
REMARK  3 active torsions:
REMARK  status: ('A' for Active; 'I' for Inactive)
REMARK    1  A    between atoms: C_4  and  C_5 
REMARK    2  A    between atoms: C_9  and  C_10 
REMARK       I    between atoms: C_10  and  N_11 
REMARK    3  A    between atoms: N_11  and  N_12 
ROOT
HETATM    1  C   UNL     1     -41.596  56.998 -53.886  1.00  0.00     0.289 C 
HETATM    2  N   UNL     1     -42.150  56.021 -53.073  1.00  0.00    -0.241 N 
HETATM    3  O   UNL     1     -40.613  57.673 -53.603  1.00  0.00    -0.264 OA
HETATM    4  H   UNL     1     -43.034  55.609 -53.331  1.00  0.00     0.192 HD
ENDROOT
BRANCH   1   5
HETATM    5  C   UNL     1     -42.254  57.128 -55.164  1.00  0.00     0.121 A 
HETATM    6  N   UNL     1     -42.303  58.323 -55.826  1.00  0.00    -0.272 N 
HETATM    7  N   UNL     1     -42.875  58.255 -57.039  1.00  0.00    -0.174 NA
HETATM    8  H   UNL     1     -41.928  59.212 -55.505  1.00  0.00     0.189 HD
HETATM    9  C   UNL     1     -43.262  56.977 -57.162  1.00  0.00     0.089 A 
HETATM   10  C   UNL     1     -42.906  56.240 -55.999  1.00  0.00     0.071 A 
BRANCH   9  11
HETATM   11  C   UNL     1     -43.917  56.471 -58.370  1.00  0.00    -0.006 A 
HETATM   12  C   UNL     1     -43.648  55.174 -58.832  1.00  0.00     0.014 A 
HETATM   13  C   UNL     1     -44.301  54.668 -59.958  1.00  0.00     0.001 A 
HETATM   14  C   UNL     1     -45.226  55.457 -60.640  1.00  0.00     0.000 A 
HETATM   15  C   UNL     1     -45.493  56.752 -60.201  1.00  0.00     0.001 A 
HETATM   16  C   UNL     1     -44.843  57.257 -59.072  1.00  0.00     0.014 A 
ENDBRANCH   9  11
ENDBRANCH   1   5
BRANCH   2  17
HETATM   17  N   UNL     1     -41.691  55.801 -51.812  1.00  0.00    -0.165 NA
HETATM   18  C   UNL     1     -41.093  54.677 -51.564  1.00  0.00     0.157 A 
HETATM   19  C   UNL     1     -40.735  54.256 -50.123  1.00  0.00     0.277 A 
HETATM   20  C   UNL     1     -40.637  53.571 -52.423  1.00  0.00     0.027 A 
HETATM   21  O   UNL     1     -40.897  54.906 -49.116  1.00  0.00    -0.266 OA
HETATM   22  N   UNL     1     -40.221  52.983 -50.233  1.00  0.00    -0.321 N 
HETATM   23  C   UNL     1     -40.154  52.584 -51.562  1.00  0.00     0.048 A 
HETATM   24  H   UNL     1     -39.898  52.458 -49.435  1.00  0.00     0.169 HD
HETATM   25  C   UNL     1     -39.644  51.389 -52.030  1.00  0.00     0.030 A 
HETATM   26  C   UNL     1     -39.607  51.202 -53.414  1.00  0.00     0.002 A 
HETATM   27  C   UNL     1     -40.054  52.208 -54.290  1.00  0.00     0.001 A 
HETATM   28  C   UNL     1     -40.564  53.413 -53.797  1.00  0.00     0.016 A 
ENDBRANCH   2  17
TORSDOF 3
ENDMDL
MODEL 3
REMARK VINA RESULT:      -8.6      3.460      5.556
REMARK  3 active torsions:
REMARK  status: ('A' for Active; 'I' for Inactive)
REMARK    1  A    between atoms: C_4  and  C_5 
REMARK    2  A    between atoms: C_9  and  C_10 
REMARK       I    between atoms: C_10  and  N_11 
REMARK    3  A    between atoms: N_11  and  N_12 
ROOT
HETATM    1  C   UNL     1     -42.653  56.393 -54.722  1.00  0.00     0.289 C 
HETATM    2  N   UNL     1     -41.908  57.551 -54.889  1.00  0.00    -0.241 N 
HETATM    3  O   UNL     1     -43.877  56.345 -54.681  1.00  0.00    -0.264 OA
HETATM    4  H   UNL     1     -40.906  57.512 -54.778  1.00  0.00     0.192 HD
ENDROOT
BRANCH   1   5
HETATM    5  C   UNL     1     -41.851  55.195 -54.651  1.00  0.00     0.121 A 
HETATM    6  N   UNL     1     -40.825  54.967 -55.526  1.00  0.00    -0.272 N 
HETATM    7  N   UNL     1     -40.124  53.851 -55.271  1.00  0.00    -0.174 NA
HETATM    8  H   UNL     1     -40.540  55.565 -56.298  1.00  0.00     0.189 HD
HETATM    9  C   UNL     1     -40.741  53.295 -54.217  1.00  0.00     0.089 A 
HETATM   10  C   UNL     1     -41.841  54.100 -53.809  1.00  0.00     0.071 A 
BRANCH   9  11
HETATM   11  C   UNL     1     -40.269  52.054 -53.599  1.00  0.00    -0.006 A 
HETATM   12  C   UNL     1     -39.917  52.027 -52.242  1.00  0.00     0.014 A 
HETATM   13  C   UNL     1     -39.508  50.838 -51.635  1.00  0.00     0.001 A 
HETATM   14  C   UNL     1     -39.438  49.663 -52.380  1.00  0.00     0.000 A 
HETATM   15  C   UNL     1     -39.772  49.677 -53.733  1.00  0.00     0.001 A 
HETATM   16  C   UNL     1     -40.186  50.866 -54.340  1.00  0.00     0.014 A 
ENDBRANCH   9  11
ENDBRANCH   1   5
BRANCH   2  17
HETATM   17  N   UNL     1     -42.497  58.777 -54.920  1.00  0.00    -0.165 NA
HETATM   18  C   UNL     1     -42.495  59.487 -53.836  1.00  0.00     0.157 A 
HETATM   19  C   UNL     1     -43.321  60.786 -53.722  1.00  0.00     0.277 A 
HETATM   20  C   UNL     1     -41.832  59.325 -52.531  1.00  0.00     0.027 A 
HETATM   21  O   UNL     1     -43.980  61.305 -54.593  1.00  0.00    -0.266 OA
HETATM   22  N   UNL     1     -43.165  61.202 -52.418  1.00  0.00    -0.321 N 
HETATM   23  C   UNL     1     -42.298  60.367 -51.726  1.00  0.00     0.048 A 
HETATM   24  H   UNL     1     -43.600  62.040 -52.062  1.00  0.00     0.169 HD
HETATM   25  C   UNL     1     -41.884  60.524 -50.419  1.00  0.00     0.030 A 
HETATM   26  C   UNL     1     -40.954  59.607 -49.921  1.00  0.00     0.002 A 
HETATM   27  C   UNL     1     -40.448  58.579 -50.738  1.00  0.00     0.001 A 
HETATM   28  C   UNL     1     -40.878  58.438 -52.062  1.00  0.00     0.016 A 
ENDBRANCH   2  17
TORSDOF 3
ENDMDL
MODEL 4
REMARK VINA RESULT:      -8.6      2.618      8.401
REMARK  3 active torsions:
REMARK  status: ('A' for Active; 'I' for Inactive)
REMARK    1  A    between atoms: C_4  and  C_5 
REMARK    2  A    between atoms: C_9  and  C_10 
REMARK       I    between atoms: C_10  and  N_11 
REMARK    3  A    between atoms: N_11  and  N_12 
ROOT
HETATM    1  C   UNL     1     -42.819  54.833 -52.916  1.00  0.00     0.289 C 
HETATM    2  N   UNL     1     -41.500  54.974 -52.514  1.00  0.00    -0.241 N 
HETATM    3  O   UNL     1     -43.697  54.283 -52.263  1.00  0.00    -0.264 OA
HETATM    4  H   UNL     1     -40.819  55.323 -53.171  1.00  0.00     0.192 HD
ENDROOT
BRANCH   1   5
HETATM    5  C   UNL     1     -43.105  55.454 -54.188  1.00  0.00     0.121 A 
HETATM    6  N   UNL     1     -44.213  56.233 -54.372  1.00  0.00    -0.272 N 
HETATM    7  N   UNL     1     -44.287  56.805 -55.584  1.00  0.00    -0.174 NA
HETATM    8  H   UNL     1     -44.936  56.433 -53.685  1.00  0.00     0.189 HD
HETATM    9  C   UNL     1     -43.211  56.347 -56.243  1.00  0.00     0.089 A 
HETATM   10  C   UNL     1     -42.452  55.482 -55.406  1.00  0.00     0.071 A 
BRANCH   9  11
HETATM   11  C   UNL     1     -42.902  56.755 -57.614  1.00  0.00    -0.006 A 
HETATM   12  C   UNL     1     -43.203  55.909 -58.691  1.00  0.00     0.014 A 
HETATM   13  C   UNL     1     -42.952  56.310 -60.005  1.00  0.00     0.001 A 
HETATM   14  C   UNL     1     -42.388  57.559 -60.257  1.00  0.00     0.000 A 
HETATM   15  C   UNL     1     -42.070  58.405 -59.197  1.00  0.00     0.001 A 
HETATM   16  C   UNL     1     -42.326  58.006 -57.882  1.00  0.00     0.014 A 
ENDBRANCH   9  11
ENDBRANCH   1   5
BRANCH   2  17
HETATM   17  N   UNL     1     -41.041  54.405 -51.367  1.00  0.00    -0.165 NA
HETATM   18  C   UNL     1     -40.566  53.200 -51.427  1.00  0.00     0.157 A 
HETATM   19  C   UNL     1     -40.227  52.403 -50.149  1.00  0.00     0.277 A 
HETATM   20  C   UNL     1     -40.254  52.299 -52.549  1.00  0.00     0.027 A 
HETATM   21  O   UNL     1     -40.296  52.798 -49.008  1.00  0.00    -0.266 OA
HETATM   22  N   UNL     1     -39.860  51.151 -50.589  1.00  0.00    -0.321 N 
HETATM   23  C   UNL     1     -39.864  51.086 -51.976  1.00  0.00     0.048 A 
HETATM   24  H   UNL     1     -39.580  50.415 -49.957  1.00  0.00     0.169 HD
HETATM   25  C   UNL     1     -39.499  49.998 -52.743  1.00  0.00     0.030 A 
HETATM   26  C   UNL     1     -39.512  50.153 -54.132  1.00  0.00     0.002 A 
HETATM   27  C   UNL     1     -39.863  51.384 -54.716  1.00  0.00     0.001 A 
HETATM   28  C   UNL     1     -40.227  52.477 -53.921  1.00  0.00     0.016 A 
ENDBRANCH   2  17
TORSDOF 3
ENDMDL
MODEL 5
REMARK VINA RESULT:      -8.5      2.426      2.921
REMARK  3 active torsions:
REMARK  status: ('A' for Active; 'I' for Inactive)
REMARK    1  A    between atoms: C_4  and  C_5 
REMARK    2  A    between atoms: C_9  and  C_10 
REMARK       I    between atoms: C_10  and  N_11 
REMARK    3  A    between atoms: N_11  and  N_12 
ROOT
HETATM    1  C   UNL     1     -41.594  57.063 -54.009  1.00  0.00     0.289 C 
HETATM    2  N   UNL     1     -42.062  57.619 -55.189  1.00  0.00    -0.241 N 
HETATM    3  O   UNL     1     -41.585  57.628 -52.921  1.00  0.00    -0.264 OA
HETATM    4  H   UNL     1     -41.909  57.131 -56.058  1.00  0.00     0.192 HD
ENDROOT
BRANCH   1   5
HETATM    5  C   UNL     1     -41.149  55.697 -54.150  1.00  0.00     0.121 A 
HETATM    6  N   UNL     1     -40.520  55.262 -55.284  1.00  0.00    -0.272 N 
HETATM    7  N   UNL     1     -40.093  53.990 -55.221  1.00  0.00    -0.174 NA
HETATM    8  H   UNL     1     -40.326  55.809 -56.119  1.00  0.00     0.189 HD
HETATM    9  C   UNL     1     -40.500  53.554 -54.019  1.00  0.00     0.089 A 
HETATM   10  C   UNL     1     -41.182  54.590 -53.323  1.00  0.00     0.071 A 
BRANCH   9  11
HETATM   11  C   UNL     1     -40.211  52.201 -53.540  1.00  0.00    -0.006 A 
HETATM   12  C   UNL     1     -40.309  51.105 -54.409  1.00  0.00     0.014 A 
HETATM   13  C   UNL     1     -39.992  49.817 -53.972  1.00  0.00     0.001 A 
HETATM   14  C   UNL     1     -39.581  49.609 -52.658  1.00  0.00     0.000 A 
HETATM   15  C   UNL     1     -39.492  50.686 -51.778  1.00  0.00     0.001 A 
HETATM   16  C   UNL     1     -39.805  51.975 -52.216  1.00  0.00     0.014 A 
ENDBRANCH   9  11
ENDBRANCH   1   5
BRANCH   2  17
HETATM   17  N   UNL     1     -42.470  58.915 -55.251  1.00  0.00    -0.165 NA
HETATM   18  C   UNL     1     -42.487  59.498 -56.409  1.00  0.00     0.157 A 
HETATM   19  C   UNL     1     -42.727  61.017 -56.543  1.00  0.00     0.277 A 
HETATM   20  C   UNL     1     -42.295  59.007 -57.784  1.00  0.00     0.027 A 
HETATM   21  O   UNL     1     -42.975  61.794 -55.650  1.00  0.00    -0.266 OA
HETATM   22  N   UNL     1     -42.570  61.293 -57.883  1.00  0.00    -0.321 N 
HETATM   23  C   UNL     1     -42.329  60.134 -58.608  1.00  0.00     0.048 A 
HETATM   24  H   UNL     1     -42.675  62.223 -58.261  1.00  0.00     0.169 HD
HETATM   25  C   UNL     1     -42.175  60.045 -59.977  1.00  0.00     0.030 A 
HETATM   26  C   UNL     1     -42.001  58.771 -60.526  1.00  0.00     0.002 A 
HETATM   27  C   UNL     1     -42.007  57.627 -59.707  1.00  0.00     0.001 A 
HETATM   28  C   UNL     1     -42.168  57.737 -58.322  1.00  0.00     0.016 A 
ENDBRANCH   2  17
TORSDOF 3
ENDMDL
MODEL 6
REMARK VINA RESULT:      -8.4      1.924      2.104
REMARK  3 active torsions:
REMARK  status: ('A' for Active; 'I' for Inactive)
REMARK    1  A    between atoms: C_4  and  C_5 
REMARK    2  A    between atoms: C_9  and  C_10 
REMARK       I    between atoms: C_10  and  N_11 
REMARK    3  A    between atoms: N_11  and  N_12 
ROOT
HETATM    1  C   UNL     1     -41.386  57.675 -54.081  1.00  0.00     0.289 C 
HETATM    2  N   UNL     1     -42.362  57.682 -55.065  1.00  0.00    -0.241 N 
HETATM    3  O   UNL     1     -40.810  58.669 -53.656  1.00  0.00    -0.264 OA
HETATM    4  H   UNL     1     -42.686  56.805 -55.444  1.00  0.00     0.192 HD
ENDROOT
BRANCH   1   5
HETATM    5  C   UNL     1     -41.127  56.364 -53.533  1.00  0.00     0.121 A 
HETATM    6  N   UNL     1     -41.449  56.051 -52.242  1.00  0.00    -0.272 N 
HETATM    7  N   UNL     1     -41.224  54.769 -51.916  1.00  0.00    -0.174 NA
HETATM    8  H   UNL     1     -41.859  56.673 -51.550  1.00  0.00     0.189 HD
HETATM    9  C   UNL     1     -40.686  54.226 -53.019  1.00  0.00     0.089 A 
HETATM   10  C   UNL     1     -40.593  55.200 -54.052  1.00  0.00     0.071 A 
BRANCH   9  11
HETATM   11  C   UNL     1     -40.311  52.813 -53.092  1.00  0.00    -0.006 A 
HETATM   12  C   UNL     1     -39.831  52.147 -51.955  1.00  0.00     0.014 A 
HETATM   13  C   UNL     1     -39.513  50.788 -52.005  1.00  0.00     0.001 A 
HETATM   14  C   UNL     1     -39.663  50.081 -53.196  1.00  0.00     0.000 A 
HETATM   15  C   UNL     1     -40.126  50.732 -54.338  1.00  0.00     0.001 A 
HETATM   16  C   UNL     1     -40.449  52.090 -54.287  1.00  0.00     0.014 A 
ENDBRANCH   9  11
ENDBRANCH   1   5
BRANCH   2  17
HETATM   17  N   UNL     1     -42.694  58.822 -55.729  1.00  0.00    -0.165 NA
HETATM   18  C   UNL     1     -42.979  58.737 -56.991  1.00  0.00     0.157 A 
HETATM   19  C   UNL     1     -43.155  59.998 -57.864  1.00  0.00     0.277 A 
HETATM   20  C   UNL     1     -43.180  57.596 -57.900  1.00  0.00     0.027 A 
HETATM   21  O   UNL     1     -43.115  61.148 -57.493  1.00  0.00    -0.266 OA
HETATM   22  N   UNL     1     -43.336  59.529 -59.146  1.00  0.00    -0.321 N 
HETATM   23  C   UNL     1     -43.361  58.141 -59.173  1.00  0.00     0.048 A 
HETATM   24  H   UNL     1     -43.481  60.145 -59.933  1.00  0.00     0.169 HD
HETATM   25  C   UNL     1     -43.575  57.350 -60.284  1.00  0.00     0.030 A 
HETATM   26  C   UNL     1     -43.626  55.967 -60.093  1.00  0.00     0.002 A 
HETATM   27  C   UNL     1     -43.486  55.412 -58.807  1.00  0.00     0.001 A 
HETATM   28  C   UNL     1     -43.273  56.231 -57.692  1.00  0.00     0.016 A 
ENDBRANCH   2  17
TORSDOF 3
ENDMDL
MODEL 7
REMARK VINA RESULT:      -8.4      2.177      2.610
REMARK  3 active torsions:
REMARK  status: ('A' for Active; 'I' for Inactive)
REMARK    1  A    between atoms: C_4  and  C_5 
REMARK    2  A    between atoms: C_9  and  C_10 
REMARK       I    between atoms: C_10  and  N_11 
REMARK    3  A    between atoms: N_11  and  N_12 
ROOT
HETATM    1  C   UNL     1     -41.409  57.152 -53.235  1.00  0.00     0.289 C 
HETATM    2  N   UNL     1     -41.786  57.294 -54.562  1.00  0.00    -0.241 N 
HETATM    3  O   UNL     1     -41.393  58.056 -52.409  1.00  0.00    -0.264 OA
HETATM    4  H   UNL     1     -41.642  56.526 -55.199  1.00  0.00     0.192 HD
ENDROOT
BRANCH   1   5
HETATM    5  C   UNL     1     -41.076  55.795 -52.871  1.00  0.00     0.121 A 
HETATM    6  N   UNL     1     -41.145  55.363 -51.576  1.00  0.00    -0.272 N 
HETATM    7  N   UNL     1     -40.887  54.055 -51.419  1.00  0.00    -0.174 NA
HETATM    8  H   UNL     1     -41.400  55.918 -50.763  1.00  0.00     0.189 HD
HETATM    9  C   UNL     1     -40.587  53.617 -52.652  1.00  0.00     0.089 A 
HETATM   10  C   UNL     1     -40.677  54.683 -53.589  1.00  0.00     0.071 A 
BRANCH   9  11
HETATM   11  C   UNL     1     -40.263  52.216 -52.926  1.00  0.00    -0.006 A 
HETATM   12  C   UNL     1     -40.419  51.692 -54.217  1.00  0.00     0.014 A 
HETATM   13  C   UNL     1     -40.070  50.369 -54.498  1.00  0.00     0.001 A 
HETATM   14  C   UNL     1     -39.568  49.552 -53.487  1.00  0.00     0.000 A 
HETATM   15  C   UNL     1     -39.420  50.054 -52.196  1.00  0.00     0.001 A 
HETATM   16  C   UNL     1     -39.765  51.379 -51.916  1.00  0.00     0.014 A 
ENDBRANCH   9  11
ENDBRANCH   1   5
BRANCH   2  17
HETATM   17  N   UNL     1     -42.081  58.512 -55.090  1.00  0.00    -0.165 NA
HETATM   18  C   UNL     1     -42.392  58.577 -56.347  1.00  0.00     0.157 A 
HETATM   19  C   UNL     1     -42.529  59.932 -57.075  1.00  0.00     0.277 A 
HETATM   20  C   UNL     1     -42.659  57.551 -57.370  1.00  0.00     0.027 A 
HETATM   21  O   UNL     1     -42.433  61.032 -56.582  1.00  0.00    -0.266 OA
HETATM   22  N   UNL     1     -42.754  59.613 -58.395  1.00  0.00    -0.321 N 
HETATM   23  C   UNL     1     -42.839  58.239 -58.572  1.00  0.00     0.048 A 
HETATM   24  H   UNL     1     -42.886  60.316 -59.107  1.00  0.00     0.169 HD
HETATM   25  C   UNL     1     -43.107  57.583 -59.757  1.00  0.00     0.030 A 
HETATM   26  C   UNL     1     -43.214  56.191 -59.715  1.00  0.00     0.002 A 
HETATM   27  C   UNL     1     -43.075  55.494 -58.500  1.00  0.00     0.001 A 
HETATM   28  C   UNL     1     -42.807  56.176 -57.309  1.00  0.00     0.016 A 
ENDBRANCH   2  17
TORSDOF 3
ENDMDL
MODEL 8
REMARK VINA RESULT:      -8.0      3.819      4.781
REMARK  3 active torsions:
REMARK  status: ('A' for Active; 'I' for Inactive)
REMARK    1  A    between atoms: C_4  and  C_5 
REMARK    2  A    between atoms: C_9  and  C_10 
REMARK       I    between atoms: C_10  and  N_11 
REMARK    3  A    between atoms: N_11  and  N_12 
ROOT
HETATM    1  C   UNL     1     -41.240  57.043 -54.290  1.00  0.00     0.289 C 
HETATM    2  N   UNL     1     -42.373  57.365 -55.021  1.00  0.00    -0.241 N 
HETATM    3  O   UNL     1     -40.565  57.843 -53.653  1.00  0.00    -0.264 OA
HETATM    4  H   UNL     1     -42.788  56.666 -55.619  1.00  0.00     0.192 HD
ENDROOT
BRANCH   1   5
HETATM    5  C   UNL     1     -40.933  55.633 -54.290  1.00  0.00     0.121 A 
HETATM    6  N   UNL     1     -40.634  54.964 -55.444  1.00  0.00    -0.272 N 
HETATM    7  N   UNL     1     -40.288  53.680 -55.261  1.00  0.00    -0.174 NA
HETATM    8  H   UNL     1     -40.619  55.352 -56.384  1.00  0.00     0.189 HD
HETATM    9  C   UNL     1     -40.411  53.480 -53.940  1.00  0.00     0.089 A 
HETATM   10  C   UNL     1     -40.831  54.677 -53.297  1.00  0.00     0.071 A 
BRANCH   9  11
HETATM   11  C   UNL     1     -40.099  52.194 -53.312  1.00  0.00    -0.006 A 
HETATM   12  C   UNL     1     -39.860  52.119 -51.933  1.00  0.00     0.014 A 
HETATM   13  C   UNL     1     -39.606  50.890 -51.319  1.00  0.00     0.001 A 
HETATM   14  C   UNL     1     -39.580  49.723 -52.079  1.00  0.00     0.000 A 
HETATM   15  C   UNL     1     -39.803  49.784 -53.454  1.00  0.00     0.001 A 
HETATM   16  C   UNL     1     -40.062  51.013 -54.068  1.00  0.00     0.014 A 
ENDBRANCH   9  11
ENDBRANCH   1   5
BRANCH   2  17
HETATM   17  N   UNL     1     -42.778  58.654 -55.175  1.00  0.00    -0.165 NA
HETATM   18  C   UNL     1     -43.627  59.137 -54.323  1.00  0.00     0.157 A 
HETATM   19  C   UNL     1     -44.299  60.509 -54.544  1.00  0.00     0.277 A 
HETATM   20  C   UNL     1     -44.181  58.626 -53.058  1.00  0.00     0.027 A 
HETATM   21  O   UNL     1     -44.086  61.284 -55.448  1.00  0.00    -0.266 OA
HETATM   22  N   UNL     1     -45.204  60.641 -53.514  1.00  0.00    -0.321 N 
HETATM   23  C   UNL     1     -45.134  59.560 -52.646  1.00  0.00     0.048 A 
HETATM   24  H   UNL     1     -45.789  61.456 -53.408  1.00  0.00     0.169 HD
HETATM   25  C   UNL     1     -45.863  59.397 -51.485  1.00  0.00     0.030 A 
HETATM   26  C   UNL     1     -45.602  58.264 -50.711  1.00  0.00     0.002 A 
HETATM   27  C   UNL     1     -44.614  57.339 -51.098  1.00  0.00     0.001 A 
HETATM   28  C   UNL     1     -43.883  57.523 -52.276  1.00  0.00     0.016 A 
ENDBRANCH   2  17
TORSDOF 3
ENDMDL
MODEL 9
REMARK VINA RESULT:      -7.9      3.466      8.486
REMARK  3 active torsions:
REMARK  status: ('A' for Active; 'I' for Inactive)
REMARK    1  A    between atoms: C_4  and  C_5 
REMARK    2  A    between atoms: C_9  and  C_10 
REMARK       I    between atoms: C_10  and  N_11 
REMARK    3  A    between atoms: N_11  and  N_12 
ROOT
HETATM    1  C   UNL     1     -41.936  59.107 -53.391  1.00  0.00     0.289 C 
HETATM    2  N   UNL     1     -41.739  57.740 -53.274  1.00  0.00    -0.241 N 
HETATM    3  O   UNL     1     -41.953  59.897 -52.455  1.00  0.00    -0.264 OA
HETATM    4  H   UNL     1     -41.872  57.152 -54.083  1.00  0.00     0.192 HD
ENDROOT
BRANCH   1   5
HETATM    5  C   UNL     1     -42.071  59.557 -54.757  1.00  0.00     0.121 A 
HETATM    6  N   UNL     1     -42.292  60.872 -55.059  1.00  0.00    -0.272 N 
HETATM    7  N   UNL     1     -42.307  61.138 -56.375  1.00  0.00    -0.174 NA
HETATM    8  H   UNL     1     -42.406  61.637 -54.398  1.00  0.00     0.189 HD
HETATM    9  C   UNL     1     -42.138  59.944 -56.965  1.00  0.00     0.089 A 
HETATM   10  C   UNL     1     -42.004  58.924 -55.983  1.00  0.00     0.071 A 
BRANCH   9  11
HETATM   11  C   UNL     1     -42.070  59.794 -58.419  1.00  0.00    -0.006 A 
HETATM   12  C   UNL     1     -41.950  60.922 -59.244  1.00  0.00     0.014 A 
HETATM   13  C   UNL     1     -41.841  60.785 -60.630  1.00  0.00     0.001 A 
HETATM   14  C   UNL     1     -41.858  59.518 -61.208  1.00  0.00     0.000 A 
HETATM   15  C   UNL     1     -41.990  58.388 -60.403  1.00  0.00     0.001 A 
HETATM   16  C   UNL     1     -42.096  58.525 -59.016  1.00  0.00     0.014 A 
ENDBRANCH   9  11
ENDBRANCH   1   5
BRANCH   2  17
HETATM   17  N   UNL     1     -41.646  57.136 -52.059  1.00  0.00    -0.165 NA
HETATM   18  C   UNL     1     -41.346  55.876 -52.021  1.00  0.00     0.157 A 
HETATM   19  C   UNL     1     -41.431  55.067 -50.709  1.00  0.00     0.277 A 
HETATM   20  C   UNL     1     -40.911  54.916 -53.049  1.00  0.00     0.027 A 
HETATM   21  O   UNL     1     -41.707  55.492 -49.611  1.00  0.00    -0.266 OA
HETATM   22  N   UNL     1     -41.152  53.766 -51.066  1.00  0.00    -0.321 N 
HETATM   23  C   UNL     1     -40.842  53.673 -52.416  1.00  0.00     0.048 A 
HETATM   24  H   UNL     1     -41.135  53.012 -50.395  1.00  0.00     0.169 HD
HETATM   25  C   UNL     1     -40.467  52.528 -53.090  1.00  0.00     0.030 A 
HETATM   26  C   UNL     1     -40.133  52.654 -54.441  1.00  0.00     0.002 A 
HETATM   27  C   UNL     1     -40.159  53.909 -55.076  1.00  0.00     0.001 A 
HETATM   28  C   UNL     1     -40.540  55.059 -54.375  1.00  0.00     0.016 A 
ENDBRANCH   2  17
TORSDOF 3
ENDMDL
MODEL 10
REMARK VINA RESULT:      -7.9      3.054      8.627
REMARK  3 active torsions:
REMARK  status: ('A' for Active; 'I' for Inactive)
REMARK    1  A    between atoms: C_4  and  C_5 
REMARK    2  A    between atoms: C_9  and  C_10 
REMARK       I    between atoms: C_10  and  N_11 
REMARK    3  A    between atoms: N_11  and  N_12 
ROOT
HETATM    1  C   UNL     1     -42.144  57.259 -52.307  1.00  0.00     0.289 C 
HETATM    2  N   UNL     1     -42.614  56.077 -51.756  1.00  0.00    -0.241 N 
HETATM    3  O   UNL     1     -41.144  57.860 -51.931  1.00  0.00    -0.264 OA
HETATM    4  H   UNL     1     -43.516  55.725 -52.041  1.00  0.00     0.192 HD
ENDROOT
BRANCH   1   5
HETATM    5  C   UNL     1     -42.919  57.719 -53.435  1.00  0.00     0.121 A 
HETATM    6  N   UNL     1     -43.133  59.050 -53.662  1.00  0.00    -0.272 N 
HETATM    7  N   UNL     1     -43.797  59.314 -54.798  1.00  0.00    -0.174 NA
HETATM    8  H   UNL     1     -42.814  59.824 -53.084  1.00  0.00     0.189 HD
HETATM    9  C   UNL     1     -44.075  58.108 -55.317  1.00  0.00     0.089 A 
HETATM   10  C   UNL     1     -43.555  57.080 -54.482  1.00  0.00     0.071 A 
BRANCH   9  11
HETATM   11  C   UNL     1     -44.782  57.948 -56.589  1.00  0.00    -0.006 A 
HETATM   12  C   UNL     1     -44.119  57.425 -57.708  1.00  0.00     0.014 A 
HETATM   13  C   UNL     1     -44.797  57.228 -58.913  1.00  0.00     0.001 A 
HETATM   14  C   UNL     1     -46.146  57.561 -59.015  1.00  0.00     0.000 A 
HETATM   15  C   UNL     1     -46.816  58.095 -57.915  1.00  0.00     0.001 A 
HETATM   16  C   UNL     1     -46.138  58.287 -56.709  1.00  0.00     0.014 A 
ENDBRANCH   9  11
ENDBRANCH   1   5
BRANCH   2  17
HETATM   17  N   UNL     1     -42.039  55.528 -50.652  1.00  0.00    -0.165 NA
HETATM   18  C   UNL     1     -41.352  54.438 -50.796  1.00  0.00     0.157 A 
HETATM   19  C   UNL     1     -40.849  53.636 -49.576  1.00  0.00     0.277 A 
HETATM   20  C   UNL     1     -40.899  53.686 -51.977  1.00  0.00     0.027 A 
HETATM   21  O   UNL     1     -40.969  53.937 -48.411  1.00  0.00    -0.266 OA
HETATM   22  N   UNL     1     -40.266  52.505 -50.101  1.00  0.00    -0.321 N 
HETATM   23  C   UNL     1     -40.283  52.531 -51.489  1.00  0.00     0.048 A 
HETATM   24  H   UNL     1     -39.845  51.794 -49.522  1.00  0.00     0.169 HD
HETATM   25  C   UNL     1     -39.738  51.581 -52.330  1.00  0.00     0.030 A 
HETATM   26  C   UNL     1     -39.803  51.821 -53.705  1.00  0.00     0.002 A 
HETATM   27  C   UNL     1     -40.385  53.002 -54.203  1.00  0.00     0.001 A 
HETATM   28  C   UNL     1     -40.929  53.954 -53.335  1.00  0.00     0.016 A 
ENDBRANCH   2  17
TORSDOF 3
ENDMDL
