MODEL 1
REMARK VINA RESULT:      -8.9      0.000      0.000
REMARK  7 active torsions:
REMARK  status: ('A' for Active; 'I' for Inactive)
REMARK    1  A    between atoms: C_7  and  C_8 
REMARK    2  A    between atoms: C_8  and  N_9 
REMARK    3  A    between atoms: C_13  and  C_14 
REMARK    4  A    between atoms: C_14  and  C_15 
REMARK    5  A    between atoms: C_15  and  C_16 
REMARK    6  A    between atoms: N_26  and  C_27 
REMARK    7  A    between atoms: C_27  and  C_28 
ROOT
HETATM    1  C   UNL     1     -41.890  54.811 -53.233  1.00  0.00     0.123 C 
HETATM    2  N   UNL     1     -42.217  54.640 -51.827  1.00  0.00    -0.324 N 
HETATM    3  C   UNL     1     -41.808  55.693 -51.041  1.00  0.00     0.326 C 
HETATM    4  O   UNL     1     -41.826  55.682 -49.824  1.00  0.00    -0.247 OA
HETATM    5  N   UNL     1     -41.431  56.706 -51.860  1.00  0.00    -0.268 N 
HETATM    6  C   UNL     1     -41.550  56.321 -53.158  1.00  0.00     0.257 C 
HETATM    7  O   UNL     1     -41.395  57.048 -54.131  1.00  0.00    -0.270 OA
HETATM    8  H   UNL     1     -42.354  53.738 -51.377  1.00  0.00     0.165 HD
ENDROOT
BRANCH   1   9
HETATM    9  C   UNL     1     -43.114  54.446 -54.136  1.00  0.00     0.027 C 
HETATM   10  C   UNL     1     -42.859  54.282 -55.643  1.00  0.00     0.035 C 
HETATM   11  C   UNL     1     -42.823  55.559 -56.472  1.00  0.00     0.235 C 
HETATM   12  N   UNL     1     -43.938  56.518 -56.132  1.00  0.00    -0.067 N 
HETATM   13  H   UNL     1     -44.777  56.165 -56.607  1.00  0.00     0.280 HD
HETATM   14  C   UNL     1     -44.269  56.678 -54.673  1.00  0.00     0.235 C 
HETATM   15  C   UNL     1     -44.359  55.338 -53.967  1.00  0.00     0.035 C 
BRANCH  12  16
HETATM   16  C   UNL     1     -43.678  57.902 -56.724  1.00  0.00     0.277 C 
BRANCH  16  17
HETATM   17  C   UNL     1     -44.234  58.109 -58.081  1.00  0.00     0.011 A 
HETATM   18  C   UNL     1     -43.539  57.992 -59.320  1.00  0.00     0.060 A 
HETATM   19  C   UNL     1     -42.110  57.657 -59.559  1.00  0.00     0.073 C 
HETATM   20  N   UNL     1     -44.349  58.214 -60.356  1.00  0.00    -0.178 NA
HETATM   21  N   UNL     1     -45.525  58.548 -59.806  1.00  0.00    -0.284 N 
HETATM   22  C   UNL     1     -46.632  58.927 -60.651  1.00  0.00     0.179 C 
HETATM   23  C   UNL     1     -45.519  58.468 -58.442  1.00  0.00     0.122 A 
ENDBRANCH  16  17
ENDBRANCH  12  16
ENDBRANCH   1   9
BRANCH   1  24
HETATM   24  C   UNL     1     -40.538  54.108 -53.578  1.00  0.00     0.082 C 
BRANCH  24  25
HETATM   25  C   UNL     1     -40.305  52.638 -53.270  1.00  0.00    -0.034 A 
HETATM   26  C   UNL     1     -39.828  52.125 -52.051  1.00  0.00     0.040 A 
HETATM   27 CL   UNL     1     -39.484  53.113 -50.684  1.00  0.00    -0.084 Cl
HETATM   28  C   UNL     1     -39.565  50.756 -51.902  1.00  0.00     0.024 A 
HETATM   29  C   UNL     1     -39.744  49.878 -52.967  1.00  0.00     0.002 A 
HETATM   30  C   UNL     1     -40.188  50.364 -54.188  1.00  0.00     0.001 A 
HETATM   31  C   UNL     1     -40.464  51.726 -54.337  1.00  0.00     0.009 A 
ENDBRANCH  24  25
ENDBRANCH   1  24
BRANCH   5  32
HETATM   32  C   UNL     1     -40.977  58.005 -51.413  1.00  0.00     0.141 C 
BRANCH  32  33
HETATM   33  C   UNL     1     -42.148  58.921 -51.225  1.00  0.00     0.004 A 
HETATM   34  C   UNL     1     -41.990  60.282 -50.590  1.00  0.00     0.007 A 
HETATM   35  C   UNL     1     -42.277  60.170 -52.062  1.00  0.00     0.007 A 
ENDBRANCH  32  33
ENDBRANCH   5  32
TORSDOF 7
ENDMDL
MODEL 2
REMARK VINA RESULT:      -8.4      2.920      7.698
REMARK  7 active torsions:
REMARK  status: ('A' for Active; 'I' for Inactive)
REMARK    1  A    between atoms: C_7  and  C_8 
REMARK    2  A    between atoms: C_8  and  N_9 
REMARK    3  A    between atoms: C_13  and  C_14 
REMARK    4  A    between atoms: C_14  and  C_15 
REMARK    5  A    between atoms: C_15  and  C_16 
REMARK    6  A    between atoms: N_26  and  C_27 
REMARK    7  A    between atoms: C_27  and  C_28 
ROOT
HETATM    1  C   UNL     1     -43.264  57.588 -55.422  1.00  0.00     0.123 C 
HETATM    2  N   UNL     1     -41.897  57.821 -54.987  1.00  0.00    -0.324 N 
HETATM    3  C   UNL     1     -41.769  58.911 -54.155  1.00  0.00     0.326 C 
HETATM    4  O   UNL     1     -40.702  59.386 -53.814  1.00  0.00    -0.247 OA
HETATM    5  N   UNL     1     -43.012  59.306 -53.788  1.00  0.00    -0.268 N 
HETATM    6  C   UNL     1     -43.945  58.521 -54.390  1.00  0.00     0.257 C 
HETATM    7  O   UNL     1     -45.149  58.555 -54.171  1.00  0.00    -0.270 OA
HETATM    8  H   UNL     1     -41.073  57.518 -55.501  1.00  0.00     0.165 HD
ENDROOT
BRANCH   1   9
HETATM    9  C   UNL     1     -43.635  56.073 -55.298  1.00  0.00     0.027 C 
HETATM   10  C   UNL     1     -43.935  55.529 -53.893  1.00  0.00     0.035 C 
HETATM   11  C   UNL     1     -42.735  55.149 -53.036  1.00  0.00     0.235 C 
HETATM   12  N   UNL     1     -41.691  54.365 -53.794  1.00  0.00    -0.067 N 
HETATM   13  H   UNL     1     -42.036  53.399 -53.844  1.00  0.00     0.280 HD
HETATM   14  C   UNL     1     -41.395  54.819 -55.198  1.00  0.00     0.235 C 
HETATM   15  C   UNL     1     -42.664  55.090 -55.982  1.00  0.00     0.035 C 
BRANCH  12  16
HETATM   16  C   UNL     1     -40.378  54.297 -53.018  1.00  0.00     0.277 C 
BRANCH  16  17
HETATM   17  C   UNL     1     -40.260  53.144 -52.097  1.00  0.00     0.011 A 
HETATM   18  C   UNL     1     -40.593  53.115 -50.712  1.00  0.00     0.060 A 
HETATM   19  C   UNL     1     -41.111  54.214 -49.854  1.00  0.00     0.073 C 
HETATM   20  N   UNL     1     -40.396  51.904 -50.189  1.00  0.00    -0.178 NA
HETATM   21  N   UNL     1     -39.873  51.180 -51.188  1.00  0.00    -0.284 N 
HETATM   22  C   UNL     1     -39.467  49.815 -50.950  1.00  0.00     0.179 C 
HETATM   23  C   UNL     1     -39.801  51.869 -52.366  1.00  0.00     0.122 A 
ENDBRANCH  16  17
ENDBRANCH  12  16
ENDBRANCH   1   9
BRANCH   1  24
HETATM   24  C   UNL     1     -43.527  58.256 -56.810  1.00  0.00     0.082 C 
BRANCH  24  25
HETATM   25  C   UNL     1     -44.609  57.745 -57.747  1.00  0.00    -0.034 A 
HETATM   26  C   UNL     1     -44.396  56.930 -58.872  1.00  0.00     0.040 A 
HETATM   27 CL   UNL     1     -42.844  56.337 -59.325  1.00  0.00    -0.084 Cl
HETATM   28  C   UNL     1     -45.457  56.586 -59.721  1.00  0.00     0.024 A 
HETATM   29  C   UNL     1     -46.741  57.069 -59.485  1.00  0.00     0.002 A 
HETATM   30  C   UNL     1     -46.971  57.896 -58.396  1.00  0.00     0.001 A 
HETATM   31  C   UNL     1     -45.919  58.231 -57.539  1.00  0.00     0.009 A 
ENDBRANCH  24  25
ENDBRANCH   1  24
BRANCH   5  32
HETATM   32  C   UNL     1     -43.300  60.397 -52.881  1.00  0.00     0.141 C 
BRANCH  32  33
HETATM   33  C   UNL     1     -43.214  59.920 -51.462  1.00  0.00     0.004 A 
HETATM   34  C   UNL     1     -42.049  60.290 -50.576  1.00  0.00     0.007 A 
HETATM   35  C   UNL     1     -43.404  60.891 -50.323  1.00  0.00     0.007 A 
ENDBRANCH  32  33
ENDBRANCH   5  32
TORSDOF 7
ENDMDL
MODEL 3
REMARK VINA RESULT:      -8.0     15.844     17.771
REMARK  7 active torsions:
REMARK  status: ('A' for Active; 'I' for Inactive)
REMARK    1  A    between atoms: C_7  and  C_8 
REMARK    2  A    between atoms: C_8  and  N_9 
REMARK    3  A    between atoms: C_13  and  C_14 
REMARK    4  A    between atoms: C_14  and  C_15 
REMARK    5  A    between atoms: C_15  and  C_16 
REMARK    6  A    between atoms: N_26  and  C_27 
REMARK    7  A    between atoms: C_27  and  C_28 
ROOT
HETATM    1  C   UNL     1     -35.596  41.168 -55.128  1.00  0.00     0.123 C 
HETATM    2  N   UNL     1     -35.789  39.728 -55.151  1.00  0.00    -0.324 N 
HETATM    3  C   UNL     1     -36.105  39.201 -53.919  1.00  0.00     0.326 C 
HETATM    4  O   UNL     1     -36.141  38.009 -53.677  1.00  0.00    -0.247 OA
HETATM    5  N   UNL     1     -36.386  40.230 -53.083  1.00  0.00    -0.268 N 
HETATM    6  C   UNL     1     -36.223  41.413 -53.733  1.00  0.00     0.257 C 
HETATM    7  O   UNL     1     -36.509  42.515 -53.282  1.00  0.00    -0.270 OA
HETATM    8  H   UNL     1     -35.373  39.105 -55.840  1.00  0.00     0.165 HD
ENDROOT
BRANCH   1   9
HETATM    9  C   UNL     1     -36.342  41.847 -56.324  1.00  0.00     0.027 C 
HETATM   10  C   UNL     1     -37.865  41.665 -56.404  1.00  0.00     0.035 C 
HETATM   11  C   UNL     1     -38.367  40.368 -57.026  1.00  0.00     0.235 C 
HETATM   12  N   UNL     1     -37.630  39.994 -58.289  1.00  0.00    -0.067 N 
HETATM   13  H   UNL     1     -38.027  40.574 -59.038  1.00  0.00     0.280 HD
HETATM   14  C   UNL     1     -36.140  40.203 -58.288  1.00  0.00     0.235 C 
HETATM   15  C   UNL     1     -35.762  41.558 -57.722  1.00  0.00     0.035 C 
BRANCH  12  16
HETATM   16  C   UNL     1     -37.917  38.548 -58.690  1.00  0.00     0.277 C 
BRANCH  16  17
HETATM   17  C   UNL     1     -38.525  38.385 -60.030  1.00  0.00     0.011 A 
HETATM   18  C   UNL     1     -37.857  38.439 -61.287  1.00  0.00     0.060 A 
HETATM   19  C   UNL     1     -36.417  38.685 -61.568  1.00  0.00     0.073 C 
HETATM   20  N   UNL     1     -38.700  38.217 -62.297  1.00  0.00    -0.178 NA
HETATM   21  N   UNL     1     -39.904  38.102 -61.719  1.00  0.00    -0.284 N 
HETATM   22  C   UNL     1     -41.080  37.923 -62.537  1.00  0.00     0.179 C 
HETATM   23  C   UNL     1     -39.850  38.162 -60.355  1.00  0.00     0.122 A 
ENDBRANCH  16  17
ENDBRANCH  12  16
ENDBRANCH   1   9
BRANCH   1  24
HETATM   24  C   UNL     1     -34.084  41.523 -54.961  1.00  0.00     0.082 C 
BRANCH  24  25
HETATM   25  C   UNL     1     -32.994  40.491 -55.197  1.00  0.00    -0.034 A 
HETATM   26  C   UNL     1     -32.230  39.866 -54.196  1.00  0.00     0.040 A 
HETATM   27 CL   UNL     1     -32.467  40.153 -52.514  1.00  0.00    -0.084 Cl
HETATM   28  C   UNL     1     -31.187  38.990 -54.528  1.00  0.00     0.024 A 
HETATM   29  C   UNL     1     -30.866  38.742 -55.860  1.00  0.00     0.002 A 
HETATM   30  C   UNL     1     -31.588  39.366 -56.866  1.00  0.00     0.001 A 
HETATM   31  C   UNL     1     -32.637  40.230 -56.539  1.00  0.00     0.009 A 
ENDBRANCH  24  25
ENDBRANCH   1  24
BRANCH   5  32
HETATM   32  C   UNL     1     -36.805  40.086 -51.705  1.00  0.00     0.141 C 
BRANCH  32  33
HETATM   33  C   UNL     1     -35.605  39.960 -50.815  1.00  0.00     0.004 A 
HETATM   34  C   UNL     1     -35.718  39.409 -49.414  1.00  0.00     0.007 A 
HETATM   35  C   UNL     1     -35.044  38.598 -50.485  1.00  0.00     0.007 A 
ENDBRANCH  32  33
ENDBRANCH   5  32
TORSDOF 7
ENDMDL
MODEL 4
REMARK VINA RESULT:      -8.0     15.669     17.756
REMARK  7 active torsions:
REMARK  status: ('A' for Active; 'I' for Inactive)
REMARK    1  A    between atoms: C_7  and  C_8 
REMARK    2  A    between atoms: C_8  and  N_9 
REMARK    3  A    between atoms: C_13  and  C_14 
REMARK    4  A    between atoms: C_14  and  C_15 
REMARK    5  A    between atoms: C_15  and  C_16 
REMARK    6  A    between atoms: N_26  and  C_27 
REMARK    7  A    between atoms: C_27  and  C_28 
ROOT
HETATM    1  C   UNL     1     -35.551  41.692 -55.080  1.00  0.00     0.123 C 
HETATM    2  N   UNL     1     -34.130  41.849 -55.344  1.00  0.00    -0.324 N 
HETATM    3  C   UNL     1     -33.398  40.714 -55.076  1.00  0.00     0.326 C 
HETATM    4  O   UNL     1     -32.182  40.676 -55.062  1.00  0.00    -0.247 OA
HETATM    5  N   UNL     1     -34.267  39.693 -54.873  1.00  0.00    -0.268 N 
HETATM    6  C   UNL     1     -35.545  40.147 -54.966  1.00  0.00     0.257 C 
HETATM    7  O   UNL     1     -36.549  39.447 -54.943  1.00  0.00    -0.270 OA
HETATM    8  H   UNL     1     -33.641  42.741 -55.335  1.00  0.00     0.165 HD
ENDROOT
BRANCH   1   9
HETATM    9  C   UNL     1     -36.401  42.271 -56.259  1.00  0.00     0.027 C 
HETATM   10  C   UNL     1     -37.909  41.975 -56.256  1.00  0.00     0.035 C 
HETATM   11  C   UNL     1     -38.342  40.624 -56.810  1.00  0.00     0.235 C 
HETATM   12  N   UNL     1     -37.641  40.259 -58.096  1.00  0.00    -0.067 N 
HETATM   13  H   UNL     1     -38.115  40.782 -58.842  1.00  0.00     0.280 HD
HETATM   14  C   UNL     1     -36.172  40.576 -58.176  1.00  0.00     0.235 C 
HETATM   15  C   UNL     1     -35.869  41.975 -57.674  1.00  0.00     0.035 C 
BRANCH  12  16
HETATM   16  C   UNL     1     -37.838  38.783 -58.434  1.00  0.00     0.277 C 
BRANCH  16  17
HETATM   17  C   UNL     1     -38.458  38.527 -59.754  1.00  0.00     0.011 A 
HETATM   18  C   UNL     1     -37.814  38.553 -61.025  1.00  0.00     0.060 A 
HETATM   19  C   UNL     1     -36.393  38.856 -61.343  1.00  0.00     0.073 C 
HETATM   20  N   UNL     1     -38.661  38.243 -62.007  1.00  0.00    -0.178 NA
HETATM   21  N   UNL     1     -39.848  38.097 -61.402  1.00  0.00    -0.284 N 
HETATM   22  C   UNL     1     -41.027  37.822 -62.189  1.00  0.00     0.179 C 
HETATM   23  C   UNL     1     -39.776  38.224 -60.043  1.00  0.00     0.122 A 
ENDBRANCH  16  17
ENDBRANCH  12  16
ENDBRANCH   1   9
BRANCH   1  24
HETATM   24  C   UNL     1     -35.910  42.203 -53.648  1.00  0.00     0.082 C 
BRANCH  24  25
HETATM   25  C   UNL     1     -35.667  41.350 -52.415  1.00  0.00    -0.034 A 
HETATM   26  C   UNL     1     -36.634  40.566 -51.761  1.00  0.00     0.040 A 
HETATM   27 CL   UNL     1     -38.258  40.419 -52.314  1.00  0.00    -0.084 Cl
HETATM   28  C   UNL     1     -36.324  39.883 -50.576  1.00  0.00     0.024 A 
HETATM   29  C   UNL     1     -35.059  39.989 -50.005  1.00  0.00     0.002 A 
HETATM   30  C   UNL     1     -34.096  40.778 -50.617  1.00  0.00     0.001 A 
HETATM   31  C   UNL     1     -34.396  41.450 -51.805  1.00  0.00     0.009 A 
ENDBRANCH  24  25
ENDBRANCH   1  24
BRANCH   5  32
HETATM   32  C   UNL     1     -33.885  38.323 -54.605  1.00  0.00     0.141 C 
BRANCH  32  33
HETATM   33  C   UNL     1     -33.711  38.118 -53.130  1.00  0.00     0.004 A 
HETATM   34  C   UNL     1     -33.083  36.861 -52.579  1.00  0.00     0.007 A 
HETATM   35  C   UNL     1     -32.334  38.163 -52.515  1.00  0.00     0.007 A 
ENDBRANCH  32  33
ENDBRANCH   5  32
TORSDOF 7
ENDMDL
MODEL 5
REMARK VINA RESULT:      -7.9      2.986      6.793
REMARK  7 active torsions:
REMARK  status: ('A' for Active; 'I' for Inactive)
REMARK    1  A    between atoms: C_7  and  C_8 
REMARK    2  A    between atoms: C_8  and  N_9 
REMARK    3  A    between atoms: C_13  and  C_14 
REMARK    4  A    between atoms: C_14  and  C_15 
REMARK    5  A    between atoms: C_15  and  C_16 
REMARK    6  A    between atoms: N_26  and  C_27 
REMARK    7  A    between atoms: C_27  and  C_28 
ROOT
HETATM    1  C   UNL     1     -42.051  56.794 -53.410  1.00  0.00     0.123 C 
HETATM    2  N   UNL     1     -41.992  58.155 -53.917  1.00  0.00    -0.324 N 
HETATM    3  C   UNL     1     -42.493  58.283 -55.193  1.00  0.00     0.326 C 
HETATM    4  O   UNL     1     -42.387  59.289 -55.868  1.00  0.00    -0.247 OA
HETATM    5  N   UNL     1     -43.126  57.128 -55.512  1.00  0.00    -0.268 N 
HETATM    6  C   UNL     1     -43.016  56.240 -54.488  1.00  0.00     0.257 C 
HETATM    7  O   UNL     1     -43.576  55.153 -54.428  1.00  0.00    -0.270 OA
HETATM    8  H   UNL     1     -41.331  58.858 -53.595  1.00  0.00     0.165 HD
ENDROOT
BRANCH   1   9
HETATM    9  C   UNL     1     -42.600  56.769 -51.946  1.00  0.00     0.027 C 
HETATM   10  C   UNL     1     -44.086  57.106 -51.741  1.00  0.00     0.035 C 
HETATM   11  C   UNL     1     -44.451  58.584 -51.692  1.00  0.00     0.235 C 
HETATM   12  N   UNL     1     -43.507  59.399 -50.841  1.00  0.00    -0.067 N 
HETATM   13  H   UNL     1     -43.786  59.238 -49.866  1.00  0.00     0.280 HD
HETATM   14  C   UNL     1     -42.042  59.075 -50.959  1.00  0.00     0.235 C 
HETATM   15  C   UNL     1     -41.791  57.580 -50.915  1.00  0.00     0.035 C 
BRANCH  12  16
HETATM   16  C   UNL     1     -43.694  60.895 -51.084  1.00  0.00     0.277 C 
BRANCH  16  17
HETATM   17  C   UNL     1     -44.317  61.632 -49.961  1.00  0.00     0.011 A 
HETATM   18  C   UNL     1     -43.956  62.924 -49.478  1.00  0.00     0.060 A 
HETATM   19  C   UNL     1     -42.878  63.830 -49.955  1.00  0.00     0.073 C 
HETATM   20  N   UNL     1     -44.746  63.305 -48.472  1.00  0.00    -0.178 NA
HETATM   21  N   UNL     1     -45.549  62.256 -48.250  1.00  0.00    -0.284 N 
HETATM   22  C   UNL     1     -46.500  62.296 -47.165  1.00  0.00     0.179 C 
HETATM   23  C   UNL     1     -45.355  61.236 -49.139  1.00  0.00     0.122 A 
ENDBRANCH  16  17
ENDBRANCH  12  16
ENDBRANCH   1   9
BRANCH   1  24
HETATM   24  C   UNL     1     -40.698  56.051 -53.657  1.00  0.00     0.082 C 
BRANCH  24  25
HETATM   25  C   UNL     1     -40.593  54.538 -53.566  1.00  0.00    -0.034 A 
HETATM   26  C   UNL     1     -40.450  53.799 -52.379  1.00  0.00     0.040 A 
HETATM   27 CL   UNL     1     -40.426  54.523 -50.816  1.00  0.00    -0.084 Cl
HETATM   28  C   UNL     1     -40.273  52.409 -52.414  1.00  0.00     0.024 A 
HETATM   29  C   UNL     1     -40.208  51.732 -53.629  1.00  0.00     0.002 A 
HETATM   30  C   UNL     1     -40.320  52.442 -54.815  1.00  0.00     0.001 A 
HETATM   31  C   UNL     1     -40.509  53.827 -54.784  1.00  0.00     0.009 A 
ENDBRANCH  24  25
ENDBRANCH   1  24
BRANCH   5  32
HETATM   32  C   UNL     1     -43.823  56.883 -56.757  1.00  0.00     0.141 C 
BRANCH  32  33
HETATM   33  C   UNL     1     -42.898  56.239 -57.744  1.00  0.00     0.004 A 
HETATM   34  C   UNL     1     -43.414  55.626 -59.023  1.00  0.00     0.007 A 
HETATM   35  C   UNL     1     -42.623  56.903 -59.071  1.00  0.00     0.007 A 
ENDBRANCH  32  33
ENDBRANCH   5  32
TORSDOF 7
ENDMDL
MODEL 6
REMARK VINA RESULT:      -7.8      3.096      7.236
REMARK  7 active torsions:
REMARK  status: ('A' for Active; 'I' for Inactive)
REMARK    1  A    between atoms: C_7  and  C_8 
REMARK    2  A    between atoms: C_8  and  N_9 
REMARK    3  A    between atoms: C_13  and  C_14 
REMARK    4  A    between atoms: C_14  and  C_15 
REMARK    5  A    between atoms: C_15  and  C_16 
REMARK    6  A    between atoms: N_26  and  C_27 
REMARK    7  A    between atoms: C_27  and  C_28 
ROOT
HETATM    1  C   UNL     1     -43.736  57.864 -54.410  1.00  0.00     0.123 C 
HETATM    2  N   UNL     1     -42.287  57.943 -54.319  1.00  0.00    -0.324 N 
HETATM    3  C   UNL     1     -41.836  59.162 -53.864  1.00  0.00     0.326 C 
HETATM    4  O   UNL     1     -40.668  59.503 -53.874  1.00  0.00    -0.247 OA
HETATM    5  N   UNL     1     -42.903  59.856 -53.397  1.00  0.00    -0.268 N 
HETATM    6  C   UNL     1     -44.040  59.131 -53.573  1.00  0.00     0.257 C 
HETATM    7  O   UNL     1     -45.148  59.437 -53.152  1.00  0.00    -0.270 OA
HETATM    8  H   UNL     1     -41.646  57.378 -54.871  1.00  0.00     0.165 HD
ENDROOT
BRANCH   1   9
HETATM    9  C   UNL     1     -44.257  56.520 -53.801  1.00  0.00     0.027 C 
HETATM   10  C   UNL     1     -44.088  56.315 -52.288  1.00  0.00     0.035 C 
HETATM   11  C   UNL     1     -42.727  55.827 -51.812  1.00  0.00     0.235 C 
HETATM   12  N   UNL     1     -42.173  54.703 -52.655  1.00  0.00    -0.067 N 
HETATM   13  H   UNL     1     -42.653  53.848 -52.348  1.00  0.00     0.280 HD
HETATM   14  C   UNL     1     -42.358  54.823 -54.143  1.00  0.00     0.235 C 
HETATM   15  C   UNL     1     -43.772  55.237 -54.504  1.00  0.00     0.035 C 
BRANCH  12  16
HETATM   16  C   UNL     1     -40.691  54.473 -52.367  1.00  0.00     0.277 C 
BRANCH  16  17
HETATM   17  C   UNL     1     -40.303  53.053 -52.211  1.00  0.00     0.011 A 
HETATM   18  C   UNL     1     -39.969  52.136 -53.249  1.00  0.00     0.060 A 
HETATM   19  C   UNL     1     -39.945  52.360 -54.719  1.00  0.00     0.073 C 
HETATM   20  N   UNL     1     -39.634  50.943 -52.756  1.00  0.00    -0.178 NA
HETATM   21  N   UNL     1     -39.822  51.054 -51.434  1.00  0.00    -0.284 N 
HETATM   22  C   UNL     1     -39.617  49.907 -50.580  1.00  0.00     0.179 C 
HETATM   23  C   UNL     1     -40.191  52.312 -51.049  1.00  0.00     0.122 A 
ENDBRANCH  16  17
ENDBRANCH  12  16
ENDBRANCH   1   9
BRANCH   1  24
HETATM   24  C   UNL     1     -44.221  58.206 -55.855  1.00  0.00     0.082 C 
BRANCH  24  25
HETATM   25  C   UNL     1     -43.374  57.884 -57.075  1.00  0.00    -0.034 A 
HETATM   26  C   UNL     1     -42.473  58.765 -57.699  1.00  0.00     0.040 A 
HETATM   27 CL   UNL     1     -42.157  60.355 -57.120  1.00  0.00    -0.084 Cl
HETATM   28  C   UNL     1     -41.805  58.395 -58.875  1.00  0.00     0.024 A 
HETATM   29  C   UNL     1     -42.040  57.157 -59.467  1.00  0.00     0.002 A 
HETATM   30  C   UNL     1     -42.945  56.281 -58.885  1.00  0.00     0.001 A 
HETATM   31  C   UNL     1     -43.603  56.640 -57.706  1.00  0.00     0.009 A 
ENDBRANCH  24  25
ENDBRANCH   1  24
BRANCH   5  32
HETATM   32  C   UNL     1     -42.836  61.170 -52.794  1.00  0.00     0.141 C 
BRANCH  32  33
HETATM   33  C   UNL     1     -42.616  61.045 -51.317  1.00  0.00     0.004 A 
HETATM   34  C   UNL     1     -42.834  62.215 -50.387  1.00  0.00     0.007 A 
HETATM   35  C   UNL     1     -43.792  61.056 -50.371  1.00  0.00     0.007 A 
ENDBRANCH  32  33
ENDBRANCH   5  32
TORSDOF 7
ENDMDL
MODEL 7
REMARK VINA RESULT:      -7.8      3.079      7.429
REMARK  7 active torsions:
REMARK  status: ('A' for Active; 'I' for Inactive)
REMARK    1  A    between atoms: C_7  and  C_8 
REMARK    2  A    between atoms: C_8  and  N_9 
REMARK    3  A    between atoms: C_13  and  C_14 
REMARK    4  A    between atoms: C_14  and  C_15 
REMARK    5  A    between atoms: C_15  and  C_16 
REMARK    6  A    between atoms: N_26  and  C_27 
REMARK    7  A    between atoms: C_27  and  C_28 
ROOT
HETATM    1  C   UNL     1     -43.363  58.263 -55.282  1.00  0.00     0.123 C 
HETATM    2  N   UNL     1     -41.959  58.327 -54.913  1.00  0.00    -0.324 N 
HETATM    3  C   UNL     1     -41.691  59.273 -53.950  1.00  0.00     0.326 C 
HETATM    4  O   UNL     1     -40.570  59.612 -53.621  1.00  0.00    -0.247 OA
HETATM    5  N   UNL     1     -42.873  59.705 -53.447  1.00  0.00    -0.268 N 
HETATM    6  C   UNL     1     -43.902  59.088 -54.087  1.00  0.00     0.257 C 
HETATM    7  O   UNL     1     -45.085  59.182 -53.784  1.00  0.00    -0.270 OA
HETATM    8  H   UNL     1     -41.193  58.038 -55.519  1.00  0.00     0.165 HD
ENDROOT
BRANCH   1   9
HETATM    9  C   UNL     1     -43.854  56.778 -55.344  1.00  0.00     0.027 C 
HETATM   10  C   UNL     1     -44.240  56.105 -54.018  1.00  0.00     0.035 C 
HETATM   11  C   UNL     1     -43.101  55.534 -53.184  1.00  0.00     0.235 C 
HETATM   12  N   UNL     1     -42.098  54.759 -54.004  1.00  0.00    -0.067 N 
HETATM   13  H   UNL     1     -42.514  53.836 -54.173  1.00  0.00     0.280 HD
HETATM   14  C   UNL     1     -41.722  55.345 -55.338  1.00  0.00     0.235 C 
HETATM   15  C   UNL     1     -42.941  55.805 -56.114  1.00  0.00     0.035 C 
BRANCH  12  16
HETATM   16  C   UNL     1     -40.819  54.498 -53.211  1.00  0.00     0.277 C 
BRANCH  16  17
HETATM   17  C   UNL     1     -40.388  53.082 -53.178  1.00  0.00     0.011 A 
HETATM   18  C   UNL     1     -40.006  52.328 -52.030  1.00  0.00     0.060 A 
HETATM   19  C   UNL     1     -39.924  52.767 -50.612  1.00  0.00     0.073 C 
HETATM   20  N   UNL     1     -39.707  51.069 -52.352  1.00  0.00    -0.178 NA
HETATM   21  N   UNL     1     -39.814  51.021 -53.687  1.00  0.00    -0.284 N 
HETATM   22  C   UNL     1     -39.488  49.804 -54.392  1.00  0.00     0.179 C 
HETATM   23  C   UNL     1     -40.253  52.196 -54.230  1.00  0.00     0.122 A 
ENDBRANCH  16  17
ENDBRANCH  12  16
ENDBRANCH   1   9
BRANCH   1  24
HETATM   24  C   UNL     1     -43.646  59.141 -56.543  1.00  0.00     0.082 C 
BRANCH  24  25
HETATM   25  C   UNL     1     -43.485  58.589 -57.950  1.00  0.00    -0.034 A 
HETATM   26  C   UNL     1     -44.513  58.031 -58.731  1.00  0.00     0.040 A 
HETATM   27 CL   UNL     1     -46.151  57.943 -58.207  1.00  0.00    -0.084 Cl
HETATM   28  C   UNL     1     -44.238  57.469 -59.986  1.00  0.00     0.024 A 
HETATM   29  C   UNL     1     -42.935  57.426 -60.474  1.00  0.00     0.002 A 
HETATM   30  C   UNL     1     -41.900  57.946 -59.711  1.00  0.00     0.001 A 
HETATM   31  C   UNL     1     -42.171  58.518 -58.465  1.00  0.00     0.009 A 
ENDBRANCH  24  25
ENDBRANCH   1  24
BRANCH   5  32
HETATM   32  C   UNL     1     -43.015  60.673 -52.381  1.00  0.00     0.141 C 
BRANCH  32  33
HETATM   33  C   UNL     1     -43.259  62.037 -52.955  1.00  0.00     0.004 A 
HETATM   34  C   UNL     1     -44.585  62.737 -52.784  1.00  0.00     0.007 A 
HETATM   35  C   UNL     1     -43.374  63.234 -52.044  1.00  0.00     0.007 A 
ENDBRANCH  32  33
ENDBRANCH   5  32
TORSDOF 7
ENDMDL
MODEL 8
REMARK VINA RESULT:      -7.4      2.496      3.665
REMARK  7 active torsions:
REMARK  status: ('A' for Active; 'I' for Inactive)
REMARK    1  A    between atoms: C_7  and  C_8 
REMARK    2  A    between atoms: C_8  and  N_9 
REMARK    3  A    between atoms: C_13  and  C_14 
REMARK    4  A    between atoms: C_14  and  C_15 
REMARK    5  A    between atoms: C_15  and  C_16 
REMARK    6  A    between atoms: N_26  and  C_27 
REMARK    7  A    between atoms: C_27  and  C_28 
ROOT
HETATM    1  C   UNL     1     -42.800  57.638 -52.609  1.00  0.00     0.123 C 
HETATM    2  N   UNL     1     -44.034  58.151 -53.181  1.00  0.00    -0.324 N 
HETATM    3  C   UNL     1     -44.662  59.078 -52.379  1.00  0.00     0.326 C 
HETATM    4  O   UNL     1     -45.784  59.505 -52.581  1.00  0.00    -0.247 OA
HETATM    5  N   UNL     1     -43.805  59.423 -51.388  1.00  0.00    -0.268 N 
HETATM    6  C   UNL     1     -42.650  58.716 -51.506  1.00  0.00     0.257 C 
HETATM    7  O   UNL     1     -41.642  58.884 -50.831  1.00  0.00    -0.270 OA
HETATM    8  H   UNL     1     -44.603  57.650 -53.860  1.00  0.00     0.165 HD
ENDROOT
BRANCH   1   9
HETATM    9  C   UNL     1     -41.660  57.615 -53.680  1.00  0.00     0.027 C 
HETATM   10  C   UNL     1     -41.330  58.937 -54.392  1.00  0.00     0.035 C 
HETATM   11  C   UNL     1     -42.218  59.321 -55.567  1.00  0.00     0.235 C 
HETATM   12  N   UNL     1     -42.497  58.167 -56.500  1.00  0.00    -0.067 N 
HETATM   13  H   UNL     1     -41.663  58.064 -57.090  1.00  0.00     0.280 HD
HETATM   14  C   UNL     1     -42.774  56.834 -55.860  1.00  0.00     0.235 C 
HETATM   15  C   UNL     1     -41.779  56.521 -54.759  1.00  0.00     0.035 C 
BRANCH  12  16
HETATM   16  C   UNL     1     -43.642  58.494 -57.457  1.00  0.00     0.277 C 
BRANCH  16  17
HETATM   17  C   UNL     1     -43.763  57.578 -58.614  1.00  0.00     0.011 A 
HETATM   18  C   UNL     1     -42.907  57.518 -59.753  1.00  0.00     0.060 A 
HETATM   19  C   UNL     1     -41.717  58.351 -60.069  1.00  0.00     0.073 C 
HETATM   20  N   UNL     1     -43.283  56.553 -60.594  1.00  0.00    -0.178 NA
HETATM   21  N   UNL     1     -44.403  56.049 -60.058  1.00  0.00    -0.284 N 
HETATM   22  C   UNL     1     -45.130  55.014 -60.754  1.00  0.00     0.179 C 
HETATM   23  C   UNL     1     -44.717  56.607 -58.851  1.00  0.00     0.122 A 
ENDBRANCH  16  17
ENDBRANCH  12  16
ENDBRANCH   1   9
BRANCH   1  24
HETATM   24  C   UNL     1     -43.058  56.303 -51.840  1.00  0.00     0.082 C 
BRANCH  24  25
HETATM   25  C   UNL     1     -41.914  55.403 -51.403  1.00  0.00    -0.034 A 
HETATM   26  C   UNL     1     -41.530  54.206 -52.033  1.00  0.00     0.040 A 
HETATM   27 CL   UNL     1     -42.290  53.606 -53.457  1.00  0.00    -0.084 Cl
HETATM   28  C   UNL     1     -40.513  53.405 -51.495  1.00  0.00     0.024 A 
HETATM   29  C   UNL     1     -39.879  53.763 -50.309  1.00  0.00     0.002 A 
HETATM   30  C   UNL     1     -40.258  54.926 -49.654  1.00  0.00     0.001 A 
HETATM   31  C   UNL     1     -41.263  55.734 -50.194  1.00  0.00     0.009 A 
ENDBRANCH  24  25
ENDBRANCH   1  24
BRANCH   5  32
HETATM   32  C   UNL     1     -44.079  60.407 -50.363  1.00  0.00     0.141 C 
BRANCH  32  33
HETATM   33  C   UNL     1     -43.720  61.776 -50.856  1.00  0.00     0.004 A 
HETATM   34  C   UNL     1     -44.772  62.837 -51.071  1.00  0.00     0.007 A 
HETATM   35  C   UNL     1     -43.804  62.963 -49.929  1.00  0.00     0.007 A 
ENDBRANCH  32  33
ENDBRANCH   5  32
TORSDOF 7
ENDMDL
MODEL 9
REMARK VINA RESULT:      -7.4      2.650      5.943
REMARK  7 active torsions:
REMARK  status: ('A' for Active; 'I' for Inactive)
REMARK    1  A    between atoms: C_7  and  C_8 
REMARK    2  A    between atoms: C_8  and  N_9 
REMARK    3  A    between atoms: C_13  and  C_14 
REMARK    4  A    between atoms: C_14  and  C_15 
REMARK    5  A    between atoms: C_15  and  C_16 
REMARK    6  A    between atoms: N_26  and  C_27 
REMARK    7  A    between atoms: C_27  and  C_28 
ROOT
HETATM    1  C   UNL     1     -43.317  55.668 -54.562  1.00  0.00     0.123 C 
HETATM    2  N   UNL     1     -42.037  56.316 -54.330  1.00  0.00    -0.324 N 
HETATM    3  C   UNL     1     -40.963  55.463 -54.455  1.00  0.00     0.326 C 
HETATM    4  O   UNL     1     -39.824  55.750 -54.139  1.00  0.00    -0.247 OA
HETATM    5  N   UNL     1     -41.409  54.307 -55.006  1.00  0.00    -0.268 N 
HETATM    6  C   UNL     1     -42.752  54.377 -55.206  1.00  0.00     0.257 C 
HETATM    7  O   UNL     1     -43.427  53.538 -55.790  1.00  0.00    -0.270 OA
HETATM    8  H   UNL     1     -41.912  57.153 -53.764  1.00  0.00     0.165 HD
ENDROOT
BRANCH   1   9
HETATM    9  C   UNL     1     -44.219  56.541 -55.496  1.00  0.00     0.027 C 
HETATM   10  C   UNL     1     -43.533  57.281 -56.654  1.00  0.00     0.035 C 
HETATM   11  C   UNL     1     -42.863  58.606 -56.317  1.00  0.00     0.235 C 
HETATM   12  N   UNL     1     -43.709  59.489 -55.432  1.00  0.00    -0.067 N 
HETATM   13  H   UNL     1     -44.405  59.930 -56.045  1.00  0.00     0.280 HD
HETATM   14  C   UNL     1     -44.450  58.809 -54.312  1.00  0.00     0.235 C 
HETATM   15  C   UNL     1     -45.144  57.545 -54.782  1.00  0.00     0.035 C 
BRANCH  12  16
HETATM   16  C   UNL     1     -42.888  60.635 -54.846  1.00  0.00     0.277 C 
BRANCH  16  17
HETATM   17  C   UNL     1     -42.279  60.350 -53.527  1.00  0.00     0.011 A 
HETATM   18  C   UNL     1     -42.648  60.916 -52.271  1.00  0.00     0.060 A 
HETATM   19  C   UNL     1     -43.698  61.927 -51.977  1.00  0.00     0.073 C 
HETATM   20  N   UNL     1     -41.915  60.413 -51.277  1.00  0.00    -0.178 NA
HETATM   21  N   UNL     1     -41.036  59.598 -51.876  1.00  0.00    -0.284 N 
HETATM   22  C   UNL     1     -40.026  58.928 -51.092  1.00  0.00     0.179 C 
HETATM   23  C   UNL     1     -41.233  59.498 -53.225  1.00  0.00     0.122 A 
ENDBRANCH  16  17
ENDBRANCH  12  16
ENDBRANCH   1   9
BRANCH   1  24
HETATM   24  C   UNL     1     -43.956  55.204 -53.214  1.00  0.00     0.082 C 
BRANCH  24  25
HETATM   25  C   UNL     1     -43.125  55.044 -51.953  1.00  0.00    -0.034 A 
HETATM   26  C   UNL     1     -42.903  56.043 -50.989  1.00  0.00     0.040 A 
HETATM   27 CL   UNL     1     -43.607  57.613 -51.081  1.00  0.00    -0.084 Cl
HETATM   28  C   UNL     1     -42.046  55.817 -49.903  1.00  0.00     0.024 A 
HETATM   29  C   UNL     1     -41.372  54.607 -49.770  1.00  0.00     0.002 A 
HETATM   30  C   UNL     1     -41.553  53.614 -50.722  1.00  0.00     0.001 A 
HETATM   31  C   UNL     1     -42.417  53.831 -51.799  1.00  0.00     0.009 A 
ENDBRANCH  24  25
ENDBRANCH   1  24
BRANCH   5  32
HETATM   32  C   UNL     1     -40.574  53.173 -55.338  1.00  0.00     0.141 C 
BRANCH  32  33
HETATM   33  C   UNL     1     -40.698  52.118 -54.280  1.00  0.00     0.004 A 
HETATM   34  C   UNL     1     -40.019  50.778 -54.421  1.00  0.00     0.007 A 
HETATM   35  C   UNL     1     -39.514  51.771 -53.412  1.00  0.00     0.007 A 
ENDBRANCH  32  33
ENDBRANCH   5  32
TORSDOF 7
ENDMDL
MODEL 10
REMARK VINA RESULT:      -7.3     16.032     18.816
REMARK  7 active torsions:
REMARK  status: ('A' for Active; 'I' for Inactive)
REMARK    1  A    between atoms: C_7  and  C_8 
REMARK    2  A    between atoms: C_8  and  N_9 
REMARK    3  A    between atoms: C_13  and  C_14 
REMARK    4  A    between atoms: C_14  and  C_15 
REMARK    5  A    between atoms: C_15  and  C_16 
REMARK    6  A    between atoms: N_26  and  C_27 
REMARK    7  A    between atoms: C_27  and  C_28 
ROOT
HETATM    1  C   UNL     1     -34.937  40.606 -53.225  1.00  0.00     0.123 C 
HETATM    2  N   UNL     1     -35.544  39.332 -53.575  1.00  0.00    -0.324 N 
HETATM    3  C   UNL     1     -34.633  38.303 -53.669  1.00  0.00     0.326 C 
HETATM    4  O   UNL     1     -34.895  37.201 -54.112  1.00  0.00    -0.247 OA
HETATM    5  N   UNL     1     -33.455  38.740 -53.161  1.00  0.00    -0.268 N 
HETATM    6  C   UNL     1     -33.568  40.038 -52.775  1.00  0.00     0.257 C 
HETATM    7  O   UNL     1     -32.712  40.678 -52.177  1.00  0.00    -0.270 OA
HETATM    8  H   UNL     1     -36.422  39.235 -54.080  1.00  0.00     0.165 HD
ENDROOT
BRANCH   1   9
HETATM    9  C   UNL     1     -35.762  41.325 -52.107  1.00  0.00     0.027 C 
HETATM   10  C   UNL     1     -35.705  40.731 -50.691  1.00  0.00     0.035 C 
HETATM   11  C   UNL     1     -36.629  39.555 -50.405  1.00  0.00     0.235 C 
HETATM   12  N   UNL     1     -38.028  39.760 -50.936  1.00  0.00    -0.067 N 
HETATM   13  H   UNL     1     -38.505  40.373 -50.264  1.00  0.00     0.280 HD
HETATM   14  C   UNL     1     -38.147  40.389 -52.297  1.00  0.00     0.235 C 
HETATM   15  C   UNL     1     -37.242  41.597 -52.440  1.00  0.00     0.035 C 
BRANCH  12  16
HETATM   16  C   UNL     1     -38.817  38.452 -50.935  1.00  0.00     0.277 C 
BRANCH  16  17
HETATM   17  C   UNL     1     -40.045  38.469 -50.108  1.00  0.00     0.011 A 
HETATM   18  C   UNL     1     -41.337  38.927 -50.501  1.00  0.00     0.060 A 
HETATM   19  C   UNL     1     -41.765  39.507 -51.801  1.00  0.00     0.073 C 
HETATM   20  N   UNL     1     -42.227  38.770 -49.520  1.00  0.00    -0.178 NA
HETATM   21  N   UNL     1     -41.519  38.296 -48.486  1.00  0.00    -0.284 N 
HETATM   22  C   UNL     1     -42.165  38.072 -47.214  1.00  0.00     0.179 C 
HETATM   23  C   UNL     1     -40.208  38.066 -48.797  1.00  0.00     0.122 A 
ENDBRANCH  16  17
ENDBRANCH  12  16
ENDBRANCH   1   9
BRANCH   1  24
HETATM   24  C   UNL     1     -34.627  41.444 -54.507  1.00  0.00     0.082 C 
BRANCH  24  25
HETATM   25  C   UNL     1     -35.459  41.300 -55.771  1.00  0.00    -0.034 A 
HETATM   26  C   UNL     1     -35.123  40.508 -56.883  1.00  0.00     0.040 A 
HETATM   27 CL   UNL     1     -33.712  39.522 -56.946  1.00  0.00    -0.084 Cl
HETATM   28  C   UNL     1     -35.920  40.515 -58.037  1.00  0.00     0.024 A 
HETATM   29  C   UNL     1     -37.046  41.329 -58.117  1.00  0.00     0.002 A 
HETATM   30  C   UNL     1     -37.383  42.140 -57.043  1.00  0.00     0.001 A 
HETATM   31  C   UNL     1     -36.599  42.126 -55.886  1.00  0.00     0.009 A 
ENDBRANCH  24  25
ENDBRANCH   1  24
BRANCH   5  32
HETATM   32  C   UNL     1     -32.257  37.936 -53.043  1.00  0.00     0.141 C 
BRANCH  32  33
HETATM   33  C   UNL     1     -31.428  38.065 -54.285  1.00  0.00     0.004 A 
HETATM   34  C   UNL     1     -30.278  37.127 -54.565  1.00  0.00     0.007 A 
HETATM   35  C   UNL     1     -31.537  37.033 -55.381  1.00  0.00     0.007 A 
ENDBRANCH  32  33
ENDBRANCH   5  32
TORSDOF 7
ENDMDL
