MODEL 1
REMARK VINA RESULT:      -7.5      0.000      0.000
REMARK  5 active torsions:
REMARK  status: ('A' for Active; 'I' for Inactive)
REMARK    1  A    between atoms: C_2  and  O_3 
REMARK    2  A    between atoms: O_3  and  C_4 
REMARK    3  A    between atoms: C_8  and  C_9 
REMARK    4  A    between atoms: C_9  and  N_10 
REMARK       I    between atoms: N_10  and  C_11 
REMARK    5  A    between atoms: C_11  and  C_12 
ROOT
HETATM    1  C   UNL     1     -42.522  54.806 -55.181  1.00  0.00     0.161 C 
ENDROOT
BRANCH   1   2
HETATM    2  C   UNL     1     -42.837  55.998 -54.324  1.00  0.00    -0.035 A 
HETATM    3  C   UNL     1     -44.163  56.341 -54.046  1.00  0.00     0.028 A 
HETATM    4  C   UNL     1     -44.408  57.466 -53.276  1.00  0.00     0.120 A 
HETATM    5  N   UNL     1     -43.439  58.264 -52.781  1.00  0.00    -0.237 NA
HETATM    6  C   UNL     1     -42.168  57.924 -53.061  1.00  0.00     0.165 A 
HETATM    7  C   UNL     1     -41.821  56.812 -53.815  1.00  0.00     0.066 A 
BRANCH   6   8
HETATM    8  O   UNL     1     -41.118  58.668 -52.576  1.00  0.00    -0.324 OA
BRANCH   8   9
HETATM    9  C   UNL     1     -40.898  58.766 -51.156  1.00  0.00     0.058 C 
HETATM   10  C   UNL     1     -41.080  57.427 -50.425  1.00  0.00     0.045 C 
HETATM   11  C   UNL     1     -41.717  59.897 -50.515  1.00  0.00     0.045 C 
HETATM   12  C   UNL     1     -39.409  59.151 -51.045  1.00  0.00     0.045 C 
ENDBRANCH   8   9
ENDBRANCH   6   8
ENDBRANCH   1   2
BRANCH   1  13
HETATM   13  N   UNL     1     -42.003  53.726 -54.376  1.00  0.00    -0.353 N 
HETATM   14  C   UNL     1     -40.680  53.363 -54.448  1.00  0.00     0.253 C 
HETATM   15  O   UNL     1     -39.839  53.994 -55.079  1.00  0.00    -0.268 OA
HETATM   16  H   UNL     1     -42.665  53.100 -53.935  1.00  0.00     0.163 HD
BRANCH  14  17
HETATM   17  C   UNL     1     -40.270  52.178 -53.651  1.00  0.00     0.049 A 
HETATM   18  C   UNL     1     -40.020  52.190 -52.272  1.00  0.00     0.026 A 
HETATM   19 BR   UNL     1     -40.243  53.725 -51.175  1.00  0.00    -0.050 Br
HETATM   20  C   UNL     1     -39.628  51.010 -51.627  1.00  0.00     0.020 A 
HETATM   21  C   UNL     1     -39.494  49.820 -52.345  1.00  0.00     0.001 A 
HETATM   22  C   UNL     1     -39.760  49.799 -53.711  1.00  0.00     0.001 A 
HETATM   23  C   UNL     1     -40.151  50.971 -54.360  1.00  0.00     0.018 A 
ENDBRANCH  14  17
ENDBRANCH   1  13
TORSDOF 5
ENDMDL
MODEL 2
REMARK VINA RESULT:      -7.1      2.509      3.811
REMARK  5 active torsions:
REMARK  status: ('A' for Active; 'I' for Inactive)
REMARK    1  A    between atoms: C_2  and  O_3 
REMARK    2  A    between atoms: O_3  and  C_4 
REMARK    3  A    between atoms: C_8  and  C_9 
REMARK    4  A    between atoms: C_9  and  N_10 
REMARK       I    between atoms: N_10  and  C_11 
REMARK    5  A    between atoms: C_11  and  C_12 
ROOT
HETATM    1  C   UNL     1     -42.088  55.035 -50.626  1.00  0.00     0.161 C 
ENDROOT
BRANCH   1   2
HETATM    2  C   UNL     1     -42.958  55.871 -51.520  1.00  0.00    -0.035 A 
HETATM    3  C   UNL     1     -43.654  56.969 -51.008  1.00  0.00     0.028 A 
HETATM    4  C   UNL     1     -44.469  57.693 -51.862  1.00  0.00     0.120 A 
HETATM    5  N   UNL     1     -44.642  57.397 -53.167  1.00  0.00    -0.237 NA
HETATM    6  C   UNL     1     -43.970  56.335 -53.645  1.00  0.00     0.165 A 
HETATM    7  C   UNL     1     -43.124  55.553 -52.871  1.00  0.00     0.066 A 
BRANCH   6   8
HETATM    8  O   UNL     1     -44.068  55.977 -54.969  1.00  0.00    -0.324 OA
BRANCH   8   9
HETATM    9  C   UNL     1     -43.352  56.721 -55.973  1.00  0.00     0.058 C 
HETATM   10  C   UNL     1     -42.109  57.435 -55.421  1.00  0.00     0.045 C 
HETATM   11  C   UNL     1     -44.267  57.668 -56.763  1.00  0.00     0.045 C 
HETATM   12  C   UNL     1     -42.859  55.632 -56.948  1.00  0.00     0.045 C 
ENDBRANCH   8   9
ENDBRANCH   6   8
ENDBRANCH   1   2
BRANCH   1  13
HETATM   13  N   UNL     1     -41.704  53.814 -51.291  1.00  0.00    -0.353 N 
HETATM   14  C   UNL     1     -40.401  53.377 -51.273  1.00  0.00     0.253 C 
HETATM   15  O   UNL     1     -39.522  53.902 -50.599  1.00  0.00    -0.268 OA
HETATM   16  H   UNL     1     -42.352  53.409 -51.955  1.00  0.00     0.163 HD
BRANCH  14  17
HETATM   17  C   UNL     1     -40.095  52.161 -52.069  1.00  0.00     0.049 A 
HETATM   18  C   UNL     1     -40.090  52.101 -53.468  1.00  0.00     0.026 A 
HETATM   19 BR   UNL     1     -40.400  53.606 -54.587  1.00  0.00    -0.050 Br
HETATM   20  C   UNL     1     -39.796  50.892 -54.112  1.00  0.00     0.020 A 
HETATM   21  C   UNL     1     -39.499  49.747 -53.369  1.00  0.00     0.001 A 
HETATM   22  C   UNL     1     -39.485  49.806 -51.978  1.00  0.00     0.001 A 
HETATM   23  C   UNL     1     -39.776  51.008 -51.331  1.00  0.00     0.018 A 
ENDBRANCH  14  17
ENDBRANCH   1  13
TORSDOF 5
ENDMDL
MODEL 3
REMARK VINA RESULT:      -7.0      2.075      2.777
REMARK  5 active torsions:
REMARK  status: ('A' for Active; 'I' for Inactive)
REMARK    1  A    between atoms: C_2  and  O_3 
REMARK    2  A    between atoms: O_3  and  C_4 
REMARK    3  A    between atoms: C_8  and  C_9 
REMARK    4  A    between atoms: C_9  and  N_10 
REMARK       I    between atoms: N_10  and  C_11 
REMARK    5  A    between atoms: C_11  and  C_12 
ROOT
HETATM    1  C   UNL     1     -42.223  54.693 -50.428  1.00  0.00     0.161 C 
ENDROOT
BRANCH   1   2
HETATM    2  C   UNL     1     -42.812  55.632 -51.442  1.00  0.00    -0.035 A 
HETATM    3  C   UNL     1     -43.206  55.163 -52.698  1.00  0.00     0.028 A 
HETATM    4  C   UNL     1     -43.715  56.069 -53.613  1.00  0.00     0.120 A 
HETATM    5  N   UNL     1     -43.847  57.390 -53.369  1.00  0.00    -0.237 NA
HETATM    6  C   UNL     1     -43.460  57.827 -52.157  1.00  0.00     0.165 A 
HETATM    7  C   UNL     1     -42.947  56.997 -51.172  1.00  0.00     0.066 A 
BRANCH   6   8
HETATM    8  O   UNL     1     -43.584  59.154 -51.816  1.00  0.00    -0.324 OA
BRANCH   8   9
HETATM    9  C   UNL     1     -42.442  60.028 -51.889  1.00  0.00     0.058 C 
HETATM   10  C   UNL     1     -41.371  59.537 -52.874  1.00  0.00     0.045 C 
HETATM   11  C   UNL     1     -41.860  60.346 -50.503  1.00  0.00     0.045 C 
HETATM   12  C   UNL     1     -43.024  61.337 -52.459  1.00  0.00     0.045 C 
ENDBRANCH   8   9
ENDBRANCH   6   8
ENDBRANCH   1   2
BRANCH   1  13
HETATM   13  N   UNL     1     -41.787  53.472 -51.062  1.00  0.00    -0.353 N 
HETATM   14  C   UNL     1     -40.450  53.171 -51.171  1.00  0.00     0.253 C 
HETATM   15  O   UNL     1     -39.564  53.826 -50.636  1.00  0.00    -0.268 OA
HETATM   16  H   UNL     1     -42.457  52.960 -51.621  1.00  0.00     0.163 HD
BRANCH  14  17
HETATM   17  C   UNL     1     -40.106  51.938 -51.926  1.00  0.00     0.049 A 
HETATM   18  C   UNL     1     -40.047  51.846 -53.323  1.00  0.00     0.026 A 
HETATM   19 BR   UNL     1     -40.324  53.321 -54.488  1.00  0.00    -0.050 Br
HETATM   20  C   UNL     1     -39.721  50.624 -53.926  1.00  0.00     0.020 A 
HETATM   21  C   UNL     1     -39.444  49.500 -53.145  1.00  0.00     0.001 A 
HETATM   22  C   UNL     1     -39.483  49.591 -51.756  1.00  0.00     0.001 A 
HETATM   23  C   UNL     1     -39.808  50.805 -51.150  1.00  0.00     0.018 A 
ENDBRANCH  14  17
ENDBRANCH   1  13
TORSDOF 5
ENDMDL
MODEL 4
REMARK VINA RESULT:      -6.8      2.964      4.914
REMARK  5 active torsions:
REMARK  status: ('A' for Active; 'I' for Inactive)
REMARK    1  A    between atoms: C_2  and  O_3 
REMARK    2  A    between atoms: O_3  and  C_4 
REMARK    3  A    between atoms: C_8  and  C_9 
REMARK    4  A    between atoms: C_9  and  N_10 
REMARK       I    between atoms: N_10  and  C_11 
REMARK    5  A    between atoms: C_11  and  C_12 
ROOT
HETATM    1  C   UNL     1     -43.578  55.867 -53.573  1.00  0.00     0.161 C 
ENDROOT
BRANCH   1   2
HETATM    2  C   UNL     1     -43.144  56.625 -54.795  1.00  0.00    -0.035 A 
HETATM    3  C   UNL     1     -42.763  57.966 -54.700  1.00  0.00     0.028 A 
HETATM    4  C   UNL     1     -42.400  58.634 -55.857  1.00  0.00     0.120 A 
HETATM    5  N   UNL     1     -42.400  58.071 -57.083  1.00  0.00    -0.237 NA
HETATM    6  C   UNL     1     -42.775  56.781 -57.160  1.00  0.00     0.165 A 
HETATM    7  C   UNL     1     -43.147  56.025 -56.058  1.00  0.00     0.066 A 
BRANCH   6   8
HETATM    8  O   UNL     1     -42.780  56.120 -58.366  1.00  0.00    -0.324 OA
BRANCH   8   9
HETATM    9  C   UNL     1     -43.841  56.353 -59.312  1.00  0.00     0.058 C 
HETATM   10  C   UNL     1     -45.004  57.167 -58.724  1.00  0.00     0.045 C 
HETATM   11  C   UNL     1     -44.316  55.058 -59.987  1.00  0.00     0.045 C 
HETATM   12  C   UNL     1     -43.175  57.224 -60.397  1.00  0.00     0.045 C 
ENDBRANCH   8   9
ENDBRANCH   6   8
ENDBRANCH   1   2
BRANCH   1  13
HETATM   13  N   UNL     1     -42.836  54.635 -53.452  1.00  0.00    -0.353 N 
HETATM   14  C   UNL     1     -41.548  54.630 -52.972  1.00  0.00     0.253 C 
HETATM   15  O   UNL     1     -40.999  55.618 -52.498  1.00  0.00    -0.268 OA
HETATM   16  H   UNL     1     -43.188  53.818 -53.934  1.00  0.00     0.163 HD
BRANCH  14  17
HETATM   17  C   UNL     1     -40.841  53.323 -52.979  1.00  0.00     0.049 A 
HETATM   18  C   UNL     1     -40.163  52.774 -51.882  1.00  0.00     0.026 A 
HETATM   19 BR   UNL     1     -40.107  53.588 -50.165  1.00  0.00    -0.050 Br
HETATM   20  C   UNL     1     -39.522  51.536 -52.009  1.00  0.00     0.020 A 
HETATM   21  C   UNL     1     -39.560  50.839 -53.219  1.00  0.00     0.001 A 
HETATM   22  C   UNL     1     -40.248  51.371 -54.306  1.00  0.00     0.001 A 
HETATM   23  C   UNL     1     -40.889  52.604 -54.185  1.00  0.00     0.018 A 
ENDBRANCH  14  17
ENDBRANCH   1  13
TORSDOF 5
ENDMDL
MODEL 5
REMARK VINA RESULT:      -6.7      2.187      3.910
REMARK  5 active torsions:
REMARK  status: ('A' for Active; 'I' for Inactive)
REMARK    1  A    between atoms: C_2  and  O_3 
REMARK    2  A    between atoms: O_3  and  C_4 
REMARK    3  A    between atoms: C_8  and  C_9 
REMARK    4  A    between atoms: C_9  and  N_10 
REMARK       I    between atoms: N_10  and  C_11 
REMARK    5  A    between atoms: C_11  and  C_12 
ROOT
HETATM    1  C   UNL     1     -41.465  56.107 -50.009  1.00  0.00     0.161 C 
ENDROOT
BRANCH   1   2
HETATM    2  C   UNL     1     -41.720  57.410 -50.711  1.00  0.00    -0.035 A 
HETATM    3  C   UNL     1     -40.852  58.491 -50.539  1.00  0.00     0.028 A 
HETATM    4  C   UNL     1     -41.143  59.682 -51.182  1.00  0.00     0.120 A 
HETATM    5  N   UNL     1     -42.227  59.871 -51.963  1.00  0.00    -0.237 NA
HETATM    6  C   UNL     1     -43.056  58.822 -52.116  1.00  0.00     0.165 A 
HETATM    7  C   UNL     1     -42.846  57.587 -51.521  1.00  0.00     0.066 A 
BRANCH   6   8
HETATM    8  O   UNL     1     -44.171  58.919 -52.916  1.00  0.00    -0.324 OA
BRANCH   8   9
HETATM    9  C   UNL     1     -44.136  58.419 -54.266  1.00  0.00     0.058 C 
HETATM   10  C   UNL     1     -44.724  57.006 -54.400  1.00  0.00     0.045 C 
HETATM   11  C   UNL     1     -42.740  58.532 -54.896  1.00  0.00     0.045 C 
HETATM   12  C   UNL     1     -45.070  59.378 -55.032  1.00  0.00     0.045 C 
ENDBRANCH   8   9
ENDBRANCH   6   8
ENDBRANCH   1   2
BRANCH   1  13
HETATM   13  N   UNL     1     -40.891  55.146 -50.919  1.00  0.00    -0.353 N 
HETATM   14  C   UNL     1     -41.630  54.085 -51.386  1.00  0.00     0.253 C 
HETATM   15  O   UNL     1     -42.831  53.955 -51.180  1.00  0.00    -0.268 OA
HETATM   16  H   UNL     1     -39.885  55.133 -51.027  1.00  0.00     0.163 HD
BRANCH  14  17
HETATM   17  C   UNL     1     -40.917  53.101 -52.240  1.00  0.00     0.049 A 
HETATM   18  C   UNL     1     -41.078  52.981 -53.627  1.00  0.00     0.026 A 
HETATM   19 BR   UNL     1     -42.191  54.123 -54.660  1.00  0.00    -0.050 Br
HETATM   20  C   UNL     1     -40.357  52.006 -54.329  1.00  0.00     0.020 A 
HETATM   21  C   UNL     1     -39.472  51.159 -53.658  1.00  0.00     0.001 A 
HETATM   22  C   UNL     1     -39.294  51.288 -52.283  1.00  0.00     0.001 A 
HETATM   23  C   UNL     1     -40.009  52.257 -51.579  1.00  0.00     0.018 A 
ENDBRANCH  14  17
ENDBRANCH   1  13
TORSDOF 5
ENDMDL
MODEL 6
REMARK VINA RESULT:      -6.7      1.562      2.347
REMARK  5 active torsions:
REMARK  status: ('A' for Active; 'I' for Inactive)
REMARK    1  A    between atoms: C_2  and  O_3 
REMARK    2  A    between atoms: O_3  and  C_4 
REMARK    3  A    between atoms: C_8  and  C_9 
REMARK    4  A    between atoms: C_9  and  N_10 
REMARK       I    between atoms: N_10  and  C_11 
REMARK    5  A    between atoms: C_11  and  C_12 
ROOT
HETATM    1  C   UNL     1     -42.292  55.570 -53.687  1.00  0.00     0.161 C 
ENDROOT
BRANCH   1   2
HETATM    2  C   UNL     1     -41.925  56.610 -52.668  1.00  0.00    -0.035 A 
HETATM    3  C   UNL     1     -41.381  56.237 -51.437  1.00  0.00     0.028 A 
HETATM    4  C   UNL     1     -41.085  57.227 -50.516  1.00  0.00     0.120 A 
HETATM    5  N   UNL     1     -41.300  58.542 -50.730  1.00  0.00    -0.237 NA
HETATM    6  C   UNL     1     -41.829  58.887 -51.918  1.00  0.00     0.165 A 
HETATM    7  C   UNL     1     -42.150  57.969 -52.908  1.00  0.00     0.066 A 
BRANCH   6   8
HETATM    8  O   UNL     1     -42.057  60.206 -52.230  1.00  0.00    -0.324 OA
BRANCH   8   9
HETATM    9  C   UNL     1     -43.279  60.846 -51.815  1.00  0.00     0.058 C 
HETATM   10  C   UNL     1     -44.334  59.853 -51.303  1.00  0.00     0.045 C 
HETATM   11  C   UNL     1     -43.839  61.790 -52.888  1.00  0.00     0.045 C 
HETATM   12  C   UNL     1     -42.845  61.712 -50.615  1.00  0.00     0.045 C 
ENDBRANCH   8   9
ENDBRANCH   6   8
ENDBRANCH   1   2
BRANCH   1  13
HETATM   13  N   UNL     1     -41.785  54.277 -53.295  1.00  0.00    -0.353 N 
HETATM   14  C   UNL     1     -40.667  53.745 -53.891  1.00  0.00     0.253 C 
HETATM   15  O   UNL     1     -39.961  54.365 -54.678  1.00  0.00    -0.268 OA
HETATM   16  H   UNL     1     -42.386  53.676 -52.746  1.00  0.00     0.163 HD
BRANCH  14  17
HETATM   17  C   UNL     1     -40.285  52.369 -53.483  1.00  0.00     0.049 A 
HETATM   18  C   UNL     1     -39.855  52.005 -52.200  1.00  0.00     0.026 A 
HETATM   19 BR   UNL     1     -39.764  53.216 -50.738  1.00  0.00    -0.050 Br
HETATM   20  C   UNL     1     -39.510  50.674 -51.933  1.00  0.00     0.020 A 
HETATM   21  C   UNL     1     -39.602  49.704 -52.934  1.00  0.00     0.001 A 
HETATM   22  C   UNL     1     -40.047  50.056 -54.205  1.00  0.00     0.001 A 
HETATM   23  C   UNL     1     -40.392  51.381 -54.477  1.00  0.00     0.018 A 
ENDBRANCH  14  17
ENDBRANCH   1  13
TORSDOF 5
ENDMDL
MODEL 7
REMARK VINA RESULT:      -6.7      1.806      2.477
REMARK  5 active torsions:
REMARK  status: ('A' for Active; 'I' for Inactive)
REMARK    1  A    between atoms: C_2  and  O_3 
REMARK    2  A    between atoms: O_3  and  C_4 
REMARK    3  A    between atoms: C_8  and  C_9 
REMARK    4  A    between atoms: C_9  and  N_10 
REMARK       I    between atoms: N_10  and  C_11 
REMARK    5  A    between atoms: C_11  and  C_12 
ROOT
HETATM    1  C   UNL     1     -42.636  54.596 -55.423  1.00  0.00     0.161 C 
ENDROOT
BRANCH   1   2
HETATM    2  C   UNL     1     -43.080  55.744 -54.561  1.00  0.00    -0.035 A 
HETATM    3  C   UNL     1     -43.350  55.549 -53.205  1.00  0.00     0.028 A 
HETATM    4  C   UNL     1     -43.786  56.628 -52.455  1.00  0.00     0.120 A 
HETATM    5  N   UNL     1     -43.977  57.866 -52.958  1.00  0.00    -0.237 NA
HETATM    6  C   UNL     1     -43.716  58.037 -54.267  1.00  0.00     0.165 A 
HETATM    7  C   UNL     1     -43.268  57.021 -55.098  1.00  0.00     0.066 A 
BRANCH   6   8
HETATM    8  O   UNL     1     -43.859  59.271 -54.856  1.00  0.00    -0.324 OA
BRANCH   8   9
HETATM    9  C   UNL     1     -42.732  60.164 -54.946  1.00  0.00     0.058 C 
HETATM   10  C   UNL     1     -42.202  60.321 -56.379  1.00  0.00     0.045 C 
HETATM   11  C   UNL     1     -41.621  59.804 -53.948  1.00  0.00     0.045 C 
HETATM   12  C   UNL     1     -43.314  61.527 -54.521  1.00  0.00     0.045 C 
ENDBRANCH   8   9
ENDBRANCH   6   8
ENDBRANCH   1   2
BRANCH   1  13
HETATM   13  N   UNL     1     -42.103  53.530 -54.610  1.00  0.00    -0.353 N 
HETATM   14  C   UNL     1     -40.747  53.343 -54.489  1.00  0.00     0.253 C 
HETATM   15  O   UNL     1     -39.915  54.123 -54.937  1.00  0.00    -0.268 OA
HETATM   16  H   UNL     1     -42.732  52.792 -54.320  1.00  0.00     0.163 HD
BRANCH  14  17
HETATM   17  C   UNL     1     -40.305  52.159 -53.708  1.00  0.00     0.049 A 
HETATM   18  C   UNL     1     -40.034  52.164 -52.333  1.00  0.00     0.026 A 
HETATM   19 BR   UNL     1     -40.267  53.686 -51.220  1.00  0.00    -0.050 Br
HETATM   20  C   UNL     1     -39.612  50.986 -51.703  1.00  0.00     0.020 A 
HETATM   21  C   UNL     1     -39.468  49.804 -52.433  1.00  0.00     0.001 A 
HETATM   22  C   UNL     1     -39.755  49.790 -53.796  1.00  0.00     0.001 A 
HETATM   23  C   UNL     1     -40.175  50.960 -54.429  1.00  0.00     0.018 A 
ENDBRANCH  14  17
ENDBRANCH   1  13
TORSDOF 5
ENDMDL
MODEL 8
REMARK VINA RESULT:      -6.6     14.968     16.742
REMARK  5 active torsions:
REMARK  status: ('A' for Active; 'I' for Inactive)
REMARK    1  A    between atoms: C_2  and  O_3 
REMARK    2  A    between atoms: O_3  and  C_4 
REMARK    3  A    between atoms: C_8  and  C_9 
REMARK    4  A    between atoms: C_9  and  N_10 
REMARK       I    between atoms: N_10  and  C_11 
REMARK    5  A    between atoms: C_11  and  C_12 
ROOT
HETATM    1  C   UNL     1     -37.524  41.150 -54.281  1.00  0.00     0.161 C 
ENDROOT
BRANCH   1   2
HETATM    2  C   UNL     1     -37.246  41.246 -55.754  1.00  0.00    -0.035 A 
HETATM    3  C   UNL     1     -36.173  42.006 -56.224  1.00  0.00     0.028 A 
HETATM    4  C   UNL     1     -35.972  42.092 -57.592  1.00  0.00     0.120 A 
HETATM    5  N   UNL     1     -36.761  41.491 -58.507  1.00  0.00    -0.237 NA
HETATM    6  C   UNL     1     -37.793  40.767 -58.039  1.00  0.00     0.165 A 
HETATM    7  C   UNL     1     -38.071  40.614 -56.688  1.00  0.00     0.066 A 
BRANCH   6   8
HETATM    8  O   UNL     1     -38.632  40.100 -58.901  1.00  0.00    -0.324 OA
BRANCH   8   9
HETATM    9  C   UNL     1     -38.127  39.023 -59.712  1.00  0.00     0.058 C 
HETATM   10  C   UNL     1     -37.151  38.108 -58.957  1.00  0.00     0.045 C 
HETATM   11  C   UNL     1     -37.549  39.518 -61.046  1.00  0.00     0.045 C 
HETATM   12  C   UNL     1     -39.383  38.189 -60.031  1.00  0.00     0.045 C 
ENDBRANCH   8   9
ENDBRANCH   6   8
ENDBRANCH   1   2
BRANCH   1  13
HETATM   13  N   UNL     1     -36.358  40.675 -53.576  1.00  0.00    -0.353 N 
HETATM   14  C   UNL     1     -35.520  41.549 -52.925  1.00  0.00     0.253 C 
HETATM   15  O   UNL     1     -35.766  42.741 -52.783  1.00  0.00    -0.268 OA
HETATM   16  H   UNL     1     -36.043  39.731 -53.758  1.00  0.00     0.163 HD
BRANCH  14  17
HETATM   17  C   UNL     1     -34.298  40.968 -52.313  1.00  0.00     0.049 A 
HETATM   18  C   UNL     1     -33.223  40.427 -53.031  1.00  0.00     0.026 A 
HETATM   19 BR   UNL     1     -33.122  40.422 -54.929  1.00  0.00    -0.050 Br
HETATM   20  C   UNL     1     -32.124  39.896 -52.344  1.00  0.00     0.020 A 
HETATM   21  C   UNL     1     -32.087  39.910 -50.948  1.00  0.00     0.001 A 
HETATM   22  C   UNL     1     -33.143  40.464 -50.230  1.00  0.00     0.001 A 
HETATM   23  C   UNL     1     -34.241  40.994 -50.909  1.00  0.00     0.018 A 
ENDBRANCH  14  17
ENDBRANCH   1  13
TORSDOF 5
ENDMDL
MODEL 9
REMARK VINA RESULT:      -6.5      2.387      3.721
REMARK  5 active torsions:
REMARK  status: ('A' for Active; 'I' for Inactive)
REMARK    1  A    between atoms: C_2  and  O_3 
REMARK    2  A    between atoms: O_3  and  C_4 
REMARK    3  A    between atoms: C_8  and  C_9 
REMARK    4  A    between atoms: C_9  and  N_10 
REMARK       I    between atoms: N_10  and  C_11 
REMARK    5  A    between atoms: C_11  and  C_12 
ROOT
HETATM    1  C   UNL     1     -41.855  55.577 -50.003  1.00  0.00     0.161 C 
ENDROOT
BRANCH   1   2
HETATM    2  C   UNL     1     -41.807  56.907 -50.698  1.00  0.00    -0.035 A 
HETATM    3  C   UNL     1     -40.611  57.624 -50.775  1.00  0.00     0.028 A 
HETATM    4  C   UNL     1     -40.619  58.861 -51.398  1.00  0.00     0.120 A 
HETATM    5  N   UNL     1     -41.722  59.427 -51.931  1.00  0.00    -0.237 NA
HETATM    6  C   UNL     1     -42.868  58.727 -51.844  1.00  0.00     0.165 A 
HETATM    7  C   UNL     1     -42.958  57.478 -51.248  1.00  0.00     0.066 A 
BRANCH   6   8
HETATM    8  O   UNL     1     -44.034  59.218 -52.384  1.00  0.00    -0.324 OA
BRANCH   8   9
HETATM    9  C   UNL     1     -44.634  60.410 -51.843  1.00  0.00     0.058 C 
HETATM   10  C   UNL     1     -44.284  61.675 -52.640  1.00  0.00     0.045 C 
HETATM   11  C   UNL     1     -44.360  60.572 -50.340  1.00  0.00     0.045 C 
HETATM   12  C   UNL     1     -46.147  60.164 -52.014  1.00  0.00     0.045 C 
ENDBRANCH   8   9
ENDBRANCH   6   8
ENDBRANCH   1   2
BRANCH   1  13
HETATM   13  N   UNL     1     -41.602  54.508 -50.940  1.00  0.00    -0.353 N 
HETATM   14  C   UNL     1     -40.379  53.881 -50.985  1.00  0.00     0.253 C 
HETATM   15  O   UNL     1     -39.487  54.083 -50.169  1.00  0.00    -0.268 OA
HETATM   16  H   UNL     1     -42.250  54.383 -51.706  1.00  0.00     0.163 HD
BRANCH  14  17
HETATM   17  C   UNL     1     -40.193  52.862 -52.049  1.00  0.00     0.049 A 
HETATM   18  C   UNL     1     -40.367  53.094 -53.419  1.00  0.00     0.026 A 
HETATM   19 BR   UNL     1     -40.800  54.794 -54.151  1.00  0.00    -0.050 Br
HETATM   20  C   UNL     1     -40.173  52.050 -54.332  1.00  0.00     0.020 A 
HETATM   21  C   UNL     1     -39.798  50.780 -53.888  1.00  0.00     0.001 A 
HETATM   22  C   UNL     1     -39.604  50.549 -52.528  1.00  0.00     0.001 A 
HETATM   23  C   UNL     1     -39.796  51.585 -51.614  1.00  0.00     0.018 A 
ENDBRANCH  14  17
ENDBRANCH   1  13
TORSDOF 5
ENDMDL
MODEL 10
REMARK VINA RESULT:      -6.4      3.012      4.050
REMARK  5 active torsions:
REMARK  status: ('A' for Active; 'I' for Inactive)
REMARK    1  A    between atoms: C_2  and  O_3 
REMARK    2  A    between atoms: O_3  and  C_4 
REMARK    3  A    between atoms: C_8  and  C_9 
REMARK    4  A    between atoms: C_9  and  N_10 
REMARK       I    between atoms: N_10  and  C_11 
REMARK    5  A    between atoms: C_11  and  C_12 
ROOT
HETATM    1  C   UNL     1     -43.362  55.678 -53.903  1.00  0.00     0.161 C 
ENDROOT
BRANCH   1   2
HETATM    2  C   UNL     1     -43.113  56.131 -55.314  1.00  0.00    -0.035 A 
HETATM    3  C   UNL     1     -43.257  55.240 -56.380  1.00  0.00     0.028 A 
HETATM    4  C   UNL     1     -42.987  55.692 -57.661  1.00  0.00     0.120 A 
HETATM    5  N   UNL     1     -42.580  56.947 -57.946  1.00  0.00    -0.237 NA
HETATM    6  C   UNL     1     -42.442  57.792 -56.909  1.00  0.00     0.165 A 
HETATM    7  C   UNL     1     -42.696  57.436 -55.592  1.00  0.00     0.066 A 
BRANCH   6   8
HETATM    8  O   UNL     1     -42.057  59.097 -57.111  1.00  0.00    -0.324 OA
BRANCH   8   9
HETATM    9  C   UNL     1     -42.995  60.053 -57.639  1.00  0.00     0.058 C 
HETATM   10  C   UNL     1     -44.457  59.600 -57.502  1.00  0.00     0.045 C 
HETATM   11  C   UNL     1     -42.648  60.481 -59.073  1.00  0.00     0.045 C 
HETATM   12  C   UNL     1     -42.809  61.284 -56.729  1.00  0.00     0.045 C 
ENDBRANCH   8   9
ENDBRANCH   6   8
ENDBRANCH   1   2
BRANCH   1  13
HETATM   13  N   UNL     1     -42.672  54.438 -53.641  1.00  0.00    -0.353 N 
HETATM   14  C   UNL     1     -41.323  54.420 -53.382  1.00  0.00     0.253 C 
HETATM   15  O   UNL     1     -40.651  55.433 -53.224  1.00  0.00    -0.268 OA
HETATM   16  H   UNL     1     -43.143  53.573 -53.874  1.00  0.00     0.163 HD
BRANCH  14  17
HETATM   17  C   UNL     1     -40.694  53.084 -53.221  1.00  0.00     0.049 A 
HETATM   18  C   UNL     1     -40.096  52.618 -52.042  1.00  0.00     0.026 A 
HETATM   19 BR   UNL     1     -40.063  53.603 -50.418  1.00  0.00    -0.050 Br
HETATM   20  C   UNL     1     -39.523  51.340 -52.011  1.00  0.00     0.020 A 
HETATM   21  C   UNL     1     -39.552  50.522 -53.143  1.00  0.00     0.001 A 
HETATM   22  C   UNL     1     -40.162  50.974 -54.311  1.00  0.00     0.001 A 
HETATM   23  C   UNL     1     -40.734  52.246 -54.348  1.00  0.00     0.018 A 
ENDBRANCH  14  17
ENDBRANCH   1  13
TORSDOF 5
ENDMDL
