MODEL 1
REMARK VINA RESULT:      -8.4      0.000      0.000
REMARK  9 active torsions:
REMARK  status: ('A' for Active; 'I' for Inactive)
REMARK    1  A    between atoms: C_2  and  C_3 
REMARK    2  A    between atoms: C_3  and  C_4 
REMARK    3  A    between atoms: C_4  and  N_5 
REMARK    4  A    between atoms: C_9  and  C_10 
REMARK    5  A    between atoms: C_13  and  C_14 
REMARK    6  A    between atoms: C_14  and  O_15 
REMARK    7  A    between atoms: C_20  and  C_21 
REMARK       I    between atoms: C_21  and  N_22 
REMARK    8  A    between atoms: N_22  and  C_23 
REMARK    9  A    between atoms: C_24  and  O_25 
ROOT
HETATM    1  N   UNL     1     -42.631  58.652 -52.426  1.00  0.00    -0.303 N 
HETATM    2  C   UNL     1     -41.912  59.298 -53.432  1.00  0.00     0.323 C 
HETATM    3  O   UNL     1     -41.751  60.516 -53.499  1.00  0.00    -0.247 OA
HETATM    4  N   UNL     1     -41.328  58.510 -54.370  1.00  0.00    -0.330 N 
HETATM    5  C   UNL     1     -41.625  57.117 -54.586  1.00  0.00     0.160 C 
HETATM    6  C   UNL     1     -42.208  56.513 -53.346  1.00  0.00     0.059 C 
HETATM    7  C   UNL     1     -42.729  57.253 -52.345  1.00  0.00     0.026 C 
HETATM    8  C   UNL     1     -43.448  56.643 -51.165  1.00  0.00     0.069 C 
HETATM    9  H   UNL     1     -40.877  59.026 -55.113  1.00  0.00     0.165 HD
ENDROOT
BRANCH   6  10
HETATM   10  C   UNL     1     -42.178  55.024 -53.326  1.00  0.00     0.256 C 
HETATM   11  N   UNL     1     -40.900  54.522 -53.258  1.00  0.00    -0.321 N 
HETATM   12  H   UNL     1     -40.124  55.174 -53.179  1.00  0.00     0.169 HD
HETATM   13  O   UNL     1     -43.219  54.388 -53.401  1.00  0.00    -0.267 OA
BRANCH  11  14
HETATM   14  C   UNL     1     -40.500  53.167 -53.241  1.00  0.00     0.068 A 
HETATM   15  C   UNL     1     -39.927  52.684 -52.045  1.00  0.00     0.095 A 
HETATM   16  C   UNL     1     -39.500  51.354 -51.967  1.00  0.00     0.039 A 
HETATM   17  C   UNL     1     -39.647  50.505 -53.065  1.00  0.00     0.003 A 
HETATM   18  C   UNL     1     -40.220  50.979 -54.242  1.00  0.00     0.002 A 
HETATM   19  C   UNL     1     -40.645  52.305 -54.331  1.00  0.00     0.032 A 
BRANCH  15  20
HETATM   20  O   UNL     1     -39.836  53.600 -51.022  1.00  0.00    -0.354 OA
HETATM   21  C   UNL     1     -40.490  53.266 -49.803  1.00  0.00     0.210 C 
ENDBRANCH  15  20
ENDBRANCH  11  14
ENDBRANCH   6  10
BRANCH   5  22
HETATM   22  C   UNL     1     -42.487  56.944 -55.829  1.00  0.00    -0.031 A 
HETATM   23  C   UNL     1     -43.375  57.962 -56.209  1.00  0.00     0.010 A 
HETATM   24  C   UNL     1     -44.115  57.859 -57.391  1.00  0.00     0.018 A 
HETATM   25  C   UNL     1     -43.978  56.736 -58.214  1.00  0.00     0.039 A 
HETATM   26  C   UNL     1     -43.121  55.700 -57.826  1.00  0.00     0.018 A 
HETATM   27  C   UNL     1     -42.386  55.801 -56.641  1.00  0.00     0.010 A 
BRANCH  25  28
HETATM   28  C   UNL     1     -44.741  56.706 -59.492  1.00  0.00     0.292 C 
HETATM   29  O   UNL     1     -45.787  57.311 -59.669  1.00  0.00    -0.259 OA
BRANCH  28  30
HETATM   30  O   UNL     1     -44.091  55.958 -60.418  1.00  0.00    -0.323 OA
HETATM   31  C   UNL     1     -44.923  55.001 -61.075  1.00  0.00     0.213 C 
ENDBRANCH  28  30
ENDBRANCH  25  28
ENDBRANCH   5  22
BRANCH   1  32
HETATM   32  C   UNL     1     -43.172  59.525 -51.375  1.00  0.00     0.133 C 
BRANCH  32  33
HETATM   33  C   UNL     1     -42.065  60.240 -50.594  1.00  0.00     0.020 C 
BRANCH  33  34
HETATM   34  C   UNL     1     -41.055  59.245 -50.025  1.00  0.00    -0.003 C 
HETATM   35  C   UNL     1     -39.634  59.598 -50.435  1.00  0.00     0.005 C 
ENDBRANCH  33  34
ENDBRANCH  32  33
ENDBRANCH   1  32
TORSDOF 9
ENDMDL
MODEL 2
REMARK VINA RESULT:      -8.3      1.034      1.611
REMARK  9 active torsions:
REMARK  status: ('A' for Active; 'I' for Inactive)
REMARK    1  A    between atoms: C_2  and  C_3 
REMARK    2  A    between atoms: C_3  and  C_4 
REMARK    3  A    between atoms: C_4  and  N_5 
REMARK    4  A    between atoms: C_9  and  C_10 
REMARK    5  A    between atoms: C_13  and  C_14 
REMARK    6  A    between atoms: C_14  and  O_15 
REMARK    7  A    between atoms: C_20  and  C_21 
REMARK       I    between atoms: C_21  and  N_22 
REMARK    8  A    between atoms: N_22  and  C_23 
REMARK    9  A    between atoms: C_24  and  O_25 
ROOT
HETATM    1  N   UNL     1     -42.715  58.453 -52.227  1.00  0.00    -0.303 N 
HETATM    2  C   UNL     1     -41.859  59.094 -53.122  1.00  0.00     0.323 C 
HETATM    3  O   UNL     1     -41.688  60.311 -53.171  1.00  0.00    -0.247 OA
HETATM    4  N   UNL     1     -41.147  58.301 -53.964  1.00  0.00    -0.330 N 
HETATM    5  C   UNL     1     -41.412  56.907 -54.213  1.00  0.00     0.160 C 
HETATM    6  C   UNL     1     -42.167  56.309 -53.067  1.00  0.00     0.059 C 
HETATM    7  C   UNL     1     -42.826  57.054 -52.155  1.00  0.00     0.026 C 
HETATM    8  C   UNL     1     -43.707  56.450 -51.087  1.00  0.00     0.069 C 
HETATM    9  H   UNL     1     -40.593  58.813 -54.636  1.00  0.00     0.165 HD
ENDROOT
BRANCH   6  10
HETATM   10  C   UNL     1     -42.143  54.820 -53.036  1.00  0.00     0.256 C 
HETATM   11  N   UNL     1     -40.869  54.311 -53.136  1.00  0.00    -0.321 N 
HETATM   12  H   UNL     1     -40.086  54.958 -53.169  1.00  0.00     0.169 HD
HETATM   13  O   UNL     1     -43.188  54.190 -52.964  1.00  0.00    -0.267 OA
BRANCH  11  14
HETATM   14  C   UNL     1     -40.478  52.953 -53.159  1.00  0.00     0.068 A 
HETATM   15  C   UNL     1     -39.883  52.439 -51.988  1.00  0.00     0.095 A 
HETATM   16  C   UNL     1     -39.462  51.105 -51.950  1.00  0.00     0.039 A 
HETATM   17  C   UNL     1     -39.638  50.283 -53.065  1.00  0.00     0.003 A 
HETATM   18  C   UNL     1     -40.233  50.788 -54.218  1.00  0.00     0.002 A 
HETATM   19  C   UNL     1     -40.651  52.118 -54.266  1.00  0.00     0.032 A 
BRANCH  15  20
HETATM   20  O   UNL     1     -39.764  53.330 -50.945  1.00  0.00    -0.354 OA
HETATM   21  C   UNL     1     -40.450  53.003 -49.742  1.00  0.00     0.210 C 
ENDBRANCH  15  20
ENDBRANCH  11  14
ENDBRANCH   6  10
BRANCH   5  22
HETATM   22  C   UNL     1     -42.087  56.729 -55.566  1.00  0.00    -0.031 A 
HETATM   23  C   UNL     1     -42.398  57.855 -56.344  1.00  0.00     0.010 A 
HETATM   24  C   UNL     1     -42.943  57.709 -57.623  1.00  0.00     0.018 A 
HETATM   25  C   UNL     1     -43.184  56.435 -58.148  1.00  0.00     0.039 A 
HETATM   26  C   UNL     1     -42.909  55.307 -57.367  1.00  0.00     0.018 A 
HETATM   27  C   UNL     1     -42.369  55.453 -56.085  1.00  0.00     0.010 A 
BRANCH  25  28
HETATM   28  C   UNL     1     -43.705  56.336 -59.539  1.00  0.00     0.292 C 
HETATM   29  O   UNL     1     -43.051  56.627 -60.528  1.00  0.00    -0.259 OA
BRANCH  28  30
HETATM   30  O   UNL     1     -44.970  55.845 -59.541  1.00  0.00    -0.323 OA
HETATM   31  C   UNL     1     -45.127  54.657 -60.317  1.00  0.00     0.213 C 
ENDBRANCH  28  30
ENDBRANCH  25  28
ENDBRANCH   5  22
BRANCH   1  32
HETATM   32  C   UNL     1     -43.401  59.331 -51.268  1.00  0.00     0.133 C 
BRANCH  32  33
HETATM   33  C   UNL     1     -44.759  59.806 -51.793  1.00  0.00     0.020 C 
BRANCH  33  34
HETATM   34  C   UNL     1     -45.823  59.766 -50.697  1.00  0.00    -0.003 C 
HETATM   35  C   UNL     1     -45.369  60.512 -49.452  1.00  0.00     0.005 C 
ENDBRANCH  33  34
ENDBRANCH  32  33
ENDBRANCH   1  32
TORSDOF 9
ENDMDL
MODEL 3
REMARK VINA RESULT:      -7.9      1.994      6.617
REMARK  9 active torsions:
REMARK  status: ('A' for Active; 'I' for Inactive)
REMARK    1  A    between atoms: C_2  and  C_3 
REMARK    2  A    between atoms: C_3  and  C_4 
REMARK    3  A    between atoms: C_4  and  N_5 
REMARK    4  A    between atoms: C_9  and  C_10 
REMARK    5  A    between atoms: C_13  and  C_14 
REMARK    6  A    between atoms: C_14  and  O_15 
REMARK    7  A    between atoms: C_20  and  C_21 
REMARK       I    between atoms: C_21  and  N_22 
REMARK    8  A    between atoms: N_22  and  C_23 
REMARK    9  A    between atoms: C_24  and  O_25 
ROOT
HETATM    1  N   UNL     1     -43.496  58.835 -52.421  1.00  0.00    -0.303 N 
HETATM    2  C   UNL     1     -44.260  57.863 -51.774  1.00  0.00     0.323 C 
HETATM    3  O   UNL     1     -44.695  57.970 -50.629  1.00  0.00    -0.247 OA
HETATM    4  N   UNL     1     -44.563  56.748 -52.486  1.00  0.00    -0.330 N 
HETATM    5  C   UNL     1     -43.932  56.354 -53.720  1.00  0.00     0.160 C 
HETATM    6  C   UNL     1     -43.329  57.544 -54.398  1.00  0.00     0.059 C 
HETATM    7  C   UNL     1     -43.080  58.705 -53.756  1.00  0.00     0.026 C 
HETATM    8  C   UNL     1     -42.339  59.853 -54.401  1.00  0.00     0.069 C 
HETATM    9  H   UNL     1     -45.060  56.047 -51.954  1.00  0.00     0.165 HD
ENDROOT
BRANCH   6  10
HETATM   10  C   UNL     1     -43.011  57.326 -55.837  1.00  0.00     0.256 C 
HETATM   11  N   UNL     1     -44.121  56.994 -56.578  1.00  0.00    -0.321 N 
HETATM   12  H   UNL     1     -45.027  56.977 -56.118  1.00  0.00     0.169 HD
HETATM   13  O   UNL     1     -41.857  57.414 -56.231  1.00  0.00    -0.267 OA
BRANCH  11  14
HETATM   14  C   UNL     1     -44.185  56.701 -57.959  1.00  0.00     0.068 A 
HETATM   15  C   UNL     1     -45.049  57.495 -58.742  1.00  0.00     0.095 A 
HETATM   16  C   UNL     1     -45.167  57.248 -60.114  1.00  0.00     0.039 A 
HETATM   17  C   UNL     1     -44.426  56.225 -60.708  1.00  0.00     0.003 A 
HETATM   18  C   UNL     1     -43.567  55.446 -59.937  1.00  0.00     0.002 A 
HETATM   19  C   UNL     1     -43.446  55.682 -58.567  1.00  0.00     0.032 A 
BRANCH  15  20
HETATM   20  O   UNL     1     -45.725  58.481 -58.059  1.00  0.00    -0.354 OA
HETATM   21  C   UNL     1     -47.138  58.337 -57.961  1.00  0.00     0.210 C 
ENDBRANCH  15  20
ENDBRANCH  11  14
ENDBRANCH   6  10
BRANCH   5  22
HETATM   22  C   UNL     1     -42.953  55.214 -53.474  1.00  0.00    -0.031 A 
HETATM   23  C   UNL     1     -42.773  54.225 -54.454  1.00  0.00     0.010 A 
HETATM   24  C   UNL     1     -41.820  53.216 -54.283  1.00  0.00     0.018 A 
HETATM   25  C   UNL     1     -41.029  53.179 -53.129  1.00  0.00     0.039 A 
HETATM   26  C   UNL     1     -41.226  54.140 -52.131  1.00  0.00     0.018 A 
HETATM   27  C   UNL     1     -42.183  55.146 -52.300  1.00  0.00     0.010 A 
BRANCH  25  28
HETATM   28  C   UNL     1     -39.987  52.121 -53.027  1.00  0.00     0.292 C 
HETATM   29  O   UNL     1     -39.377  51.872 -51.999  1.00  0.00    -0.259 OA
BRANCH  28  30
HETATM   30  O   UNL     1     -39.855  51.467 -54.208  1.00  0.00    -0.323 OA
HETATM   31  C   UNL     1     -39.879  50.044 -54.085  1.00  0.00     0.213 C 
ENDBRANCH  28  30
ENDBRANCH  25  28
ENDBRANCH   5  22
BRANCH   1  32
HETATM   32  C   UNL     1     -43.263  60.069 -51.657  1.00  0.00     0.133 C 
BRANCH  32  33
HETATM   33  C   UNL     1     -42.271  59.855 -50.509  1.00  0.00     0.020 C 
BRANCH  33  34
HETATM   34  C   UNL     1     -40.868  59.556 -51.035  1.00  0.00    -0.003 C 
HETATM   35  C   UNL     1     -40.486  58.101 -50.809  1.00  0.00     0.005 C 
ENDBRANCH  33  34
ENDBRANCH  32  33
ENDBRANCH   1  32
TORSDOF 9
ENDMDL
MODEL 4
REMARK VINA RESULT:      -7.9      2.498      7.777
REMARK  9 active torsions:
REMARK  status: ('A' for Active; 'I' for Inactive)
REMARK    1  A    between atoms: C_2  and  C_3 
REMARK    2  A    between atoms: C_3  and  C_4 
REMARK    3  A    between atoms: C_4  and  N_5 
REMARK    4  A    between atoms: C_9  and  C_10 
REMARK    5  A    between atoms: C_13  and  C_14 
REMARK    6  A    between atoms: C_14  and  O_15 
REMARK    7  A    between atoms: C_20  and  C_21 
REMARK       I    between atoms: C_21  and  N_22 
REMARK    8  A    between atoms: N_22  and  C_23 
REMARK    9  A    between atoms: C_24  and  O_25 
ROOT
HETATM    1  N   UNL     1     -41.723  54.348 -53.714  1.00  0.00    -0.303 N 
HETATM    2  C   UNL     1     -41.011  55.031 -52.728  1.00  0.00     0.323 C 
HETATM    3  O   UNL     1     -40.402  54.487 -51.808  1.00  0.00    -0.247 OA
HETATM    4  N   UNL     1     -40.970  56.384 -52.828  1.00  0.00    -0.330 N 
HETATM    5  C   UNL     1     -41.822  57.180 -53.673  1.00  0.00     0.160 C 
HETATM    6  C   UNL     1     -42.351  56.354 -54.803  1.00  0.00     0.059 C 
HETATM    7  C   UNL     1     -42.344  55.004 -54.790  1.00  0.00     0.026 C 
HETATM    8  C   UNL     1     -43.009  54.172 -55.862  1.00  0.00     0.069 C 
HETATM    9  H   UNL     1     -40.500  56.836 -52.055  1.00  0.00     0.165 HD
ENDROOT
BRANCH   6  10
HETATM   10  C   UNL     1     -42.904  57.153 -55.932  1.00  0.00     0.256 C 
HETATM   11  N   UNL     1     -41.973  57.387 -56.917  1.00  0.00    -0.321 N 
HETATM   12  H   UNL     1     -41.049  56.974 -56.824  1.00  0.00     0.169 HD
HETATM   13  O   UNL     1     -44.059  57.551 -55.895  1.00  0.00    -0.267 OA
BRANCH  11  14
HETATM   14  C   UNL     1     -42.143  58.121 -58.113  1.00  0.00     0.068 A 
HETATM   15  C   UNL     1     -42.508  57.391 -59.265  1.00  0.00     0.095 A 
HETATM   16  C   UNL     1     -42.681  58.057 -60.483  1.00  0.00     0.039 A 
HETATM   17  C   UNL     1     -42.500  59.439 -60.558  1.00  0.00     0.003 A 
HETATM   18  C   UNL     1     -42.148  60.160 -59.420  1.00  0.00     0.002 A 
HETATM   19  C   UNL     1     -41.970  59.504 -58.202  1.00  0.00     0.032 A 
BRANCH  15  20
HETATM   20  O   UNL     1     -42.669  56.036 -59.079  1.00  0.00    -0.354 OA
HETATM   21  C   UNL     1     -43.757  55.422 -59.759  1.00  0.00     0.210 C 
ENDBRANCH  15  20
ENDBRANCH  11  14
ENDBRANCH   6  10
BRANCH   5  22
HETATM   22  C   UNL     1     -42.900  57.866 -52.844  1.00  0.00    -0.031 A 
HETATM   23  C   UNL     1     -43.895  57.097 -52.219  1.00  0.00     0.010 A 
HETATM   24  C   UNL     1     -44.844  57.698 -51.388  1.00  0.00     0.018 A 
HETATM   25  C   UNL     1     -44.814  59.079 -51.163  1.00  0.00     0.039 A 
HETATM   26  C   UNL     1     -43.847  59.858 -51.808  1.00  0.00     0.018 A 
HETATM   27  C   UNL     1     -42.901  59.257 -52.644  1.00  0.00     0.010 A 
BRANCH  25  28
HETATM   28  C   UNL     1     -45.808  59.657 -50.219  1.00  0.00     0.292 C 
HETATM   29  O   UNL     1     -46.102  59.146 -49.150  1.00  0.00    -0.259 OA
BRANCH  28  30
HETATM   30  O   UNL     1     -46.293  60.831 -50.697  1.00  0.00    -0.323 OA
HETATM   31  C   UNL     1     -46.203  61.913 -49.770  1.00  0.00     0.213 C 
ENDBRANCH  28  30
ENDBRANCH  25  28
ENDBRANCH   5  22
BRANCH   1  32
HETATM   32  C   UNL     1     -41.672  52.882 -53.631  1.00  0.00     0.133 C 
BRANCH  32  33
HETATM   33  C   UNL     1     -40.460  52.305 -54.370  1.00  0.00     0.020 C 
BRANCH  33  34
HETATM   34  C   UNL     1     -39.826  51.158 -53.585  1.00  0.00    -0.003 C 
HETATM   35  C   UNL     1     -39.770  49.881 -54.409  1.00  0.00     0.005 C 
ENDBRANCH  33  34
ENDBRANCH  32  33
ENDBRANCH   1  32
TORSDOF 9
ENDMDL
MODEL 5
REMARK VINA RESULT:      -7.9      1.913      6.332
REMARK  9 active torsions:
REMARK  status: ('A' for Active; 'I' for Inactive)
REMARK    1  A    between atoms: C_2  and  C_3 
REMARK    2  A    between atoms: C_3  and  C_4 
REMARK    3  A    between atoms: C_4  and  N_5 
REMARK    4  A    between atoms: C_9  and  C_10 
REMARK    5  A    between atoms: C_13  and  C_14 
REMARK    6  A    between atoms: C_14  and  O_15 
REMARK    7  A    between atoms: C_20  and  C_21 
REMARK       I    between atoms: C_21  and  N_22 
REMARK    8  A    between atoms: N_22  and  C_23 
REMARK    9  A    between atoms: C_24  and  O_25 
ROOT
HETATM    1  N   UNL     1     -43.947  57.464 -57.084  1.00  0.00    -0.303 N 
HETATM    2  C   UNL     1     -44.664  58.415 -56.357  1.00  0.00     0.323 C 
HETATM    3  O   UNL     1     -45.167  59.427 -56.842  1.00  0.00    -0.247 OA
HETATM    4  N   UNL     1     -44.839  58.170 -55.034  1.00  0.00    -0.330 N 
HETATM    5  C   UNL     1     -44.114  57.188 -54.268  1.00  0.00     0.160 C 
HETATM    6  C   UNL     1     -43.572  56.123 -55.169  1.00  0.00     0.059 C 
HETATM    7  C   UNL     1     -43.451  56.285 -56.504  1.00  0.00     0.026 C 
HETATM    8  C   UNL     1     -42.770  55.270 -57.393  1.00  0.00     0.069 C 
HETATM    9  H   UNL     1     -45.306  58.917 -54.538  1.00  0.00     0.165 HD
ENDROOT
BRANCH   6  10
HETATM   10  C   UNL     1     -43.162  54.879 -54.461  1.00  0.00     0.256 C 
HETATM   11  N   UNL     1     -41.803  54.808 -54.263  1.00  0.00    -0.321 N 
HETATM   12  H   UNL     1     -41.226  55.593 -54.555  1.00  0.00     0.169 HD
HETATM   13  O   UNL     1     -43.999  54.043 -54.154  1.00  0.00    -0.267 OA
BRANCH  11  14
HETATM   14  C   UNL     1     -41.069  53.769 -53.648  1.00  0.00     0.068 A 
HETATM   15  C   UNL     1     -40.829  53.889 -52.262  1.00  0.00     0.095 A 
HETATM   16  C   UNL     1     -40.099  52.900 -51.596  1.00  0.00     0.039 A 
HETATM   17  C   UNL     1     -39.616  51.793 -52.296  1.00  0.00     0.003 A 
HETATM   18  C   UNL     1     -39.860  51.671 -53.661  1.00  0.00     0.002 A 
HETATM   19  C   UNL     1     -40.583  52.654 -54.336  1.00  0.00     0.032 A 
BRANCH  15  20
HETATM   20  O   UNL     1     -41.356  55.014 -51.667  1.00  0.00    -0.354 OA
HETATM   21  C   UNL     1     -40.806  55.390 -50.410  1.00  0.00     0.210 C 
ENDBRANCH  15  20
ENDBRANCH  11  14
ENDBRANCH   6  10
BRANCH   5  22
HETATM   22  C   UNL     1     -43.062  57.864 -53.399  1.00  0.00    -0.031 A 
HETATM   23  C   UNL     1     -43.321  58.088 -52.037  1.00  0.00     0.010 A 
HETATM   24  C   UNL     1     -42.338  58.633 -51.206  1.00  0.00     0.018 A 
HETATM   25  C   UNL     1     -41.079  58.961 -51.720  1.00  0.00     0.039 A 
HETATM   26  C   UNL     1     -40.823  58.773 -53.083  1.00  0.00     0.018 A 
HETATM   27  C   UNL     1     -41.808  58.234 -53.916  1.00  0.00     0.010 A 
BRANCH  25  28
HETATM   28  C   UNL     1     -40.049  59.478 -50.777  1.00  0.00     0.292 C 
HETATM   29  O   UNL     1     -40.296  59.831 -49.635  1.00  0.00    -0.259 OA
BRANCH  28  30
HETATM   30  O   UNL     1     -38.821  59.454 -51.353  1.00  0.00    -0.323 OA
HETATM   31  C   UNL     1     -37.747  59.354 -50.417  1.00  0.00     0.213 C 
ENDBRANCH  28  30
ENDBRANCH  25  28
ENDBRANCH   5  22
BRANCH   1  32
HETATM   32  C   UNL     1     -43.853  57.712 -58.529  1.00  0.00     0.133 C 
BRANCH  32  33
HETATM   33  C   UNL     1     -45.075  57.178 -59.285  1.00  0.00     0.020 C 
BRANCH  33  34
HETATM   34  C   UNL     1     -44.658  56.352 -60.501  1.00  0.00    -0.003 C 
HETATM   35  C   UNL     1     -44.876  54.865 -60.266  1.00  0.00     0.005 C 
ENDBRANCH  33  34
ENDBRANCH  32  33
ENDBRANCH   1  32
TORSDOF 9
ENDMDL
MODEL 6
REMARK VINA RESULT:      -7.8      2.500      7.039
REMARK  9 active torsions:
REMARK  status: ('A' for Active; 'I' for Inactive)
REMARK    1  A    between atoms: C_2  and  C_3 
REMARK    2  A    between atoms: C_3  and  C_4 
REMARK    3  A    between atoms: C_4  and  N_5 
REMARK    4  A    between atoms: C_9  and  C_10 
REMARK    5  A    between atoms: C_13  and  C_14 
REMARK    6  A    between atoms: C_14  and  O_15 
REMARK    7  A    between atoms: C_20  and  C_21 
REMARK       I    between atoms: C_21  and  N_22 
REMARK    8  A    between atoms: N_22  and  C_23 
REMARK    9  A    between atoms: C_24  and  O_25 
ROOT
HETATM    1  N   UNL     1     -44.314  59.453 -52.060  1.00  0.00    -0.303 N 
HETATM    2  C   UNL     1     -45.082  58.454 -51.462  1.00  0.00     0.323 C 
HETATM    3  O   UNL     1     -45.815  58.629 -50.490  1.00  0.00    -0.247 OA
HETATM    4  N   UNL     1     -45.031  57.221 -52.028  1.00  0.00    -0.330 N 
HETATM    5  C   UNL     1     -44.049  56.789 -52.989  1.00  0.00     0.160 C 
HETATM    6  C   UNL     1     -43.456  57.969 -53.692  1.00  0.00     0.059 C 
HETATM    7  C   UNL     1     -43.546  59.229 -53.214  1.00  0.00     0.026 C 
HETATM    8  C   UNL     1     -42.824  60.397 -53.845  1.00  0.00     0.069 C 
HETATM    9  H   UNL     1     -45.550  56.518 -51.521  1.00  0.00     0.165 HD
ENDROOT
BRANCH   6  10
HETATM   10  C   UNL     1     -42.742  57.628 -54.954  1.00  0.00     0.256 C 
HETATM   11  N   UNL     1     -43.571  57.648 -56.051  1.00  0.00    -0.321 N 
HETATM   12  H   UNL     1     -44.539  57.930 -55.926  1.00  0.00     0.169 HD
HETATM   13  O   UNL     1     -41.555  57.337 -54.929  1.00  0.00    -0.267 OA
BRANCH  11  14
HETATM   14  C   UNL     1     -43.239  57.358 -57.394  1.00  0.00     0.068 A 
HETATM   15  C   UNL     1     -42.948  58.455 -58.232  1.00  0.00     0.095 A 
HETATM   16  C   UNL     1     -42.624  58.237 -59.575  1.00  0.00     0.039 A 
HETATM   17  C   UNL     1     -42.579  56.937 -60.083  1.00  0.00     0.003 A 
HETATM   18  C   UNL     1     -42.858  55.854 -59.254  1.00  0.00     0.002 A 
HETATM   19  C   UNL     1     -43.187  56.062 -57.914  1.00  0.00     0.032 A 
BRANCH  15  20
HETATM   20  O   UNL     1     -43.013  59.692 -57.630  1.00  0.00    -0.354 OA
HETATM   21  C   UNL     1     -41.788  60.405 -57.499  1.00  0.00     0.210 C 
ENDBRANCH  15  20
ENDBRANCH  11  14
ENDBRANCH   6  10
BRANCH   5  22
HETATM   22  C   UNL     1     -43.024  55.878 -52.326  1.00  0.00    -0.031 A 
HETATM   23  C   UNL     1     -42.083  56.418 -51.436  1.00  0.00     0.010 A 
HETATM   24  C   UNL     1     -41.187  55.588 -50.755  1.00  0.00     0.018 A 
HETATM   25  C   UNL     1     -41.218  54.203 -50.951  1.00  0.00     0.039 A 
HETATM   26  C   UNL     1     -42.130  53.659 -51.862  1.00  0.00     0.018 A 
HETATM   27  C   UNL     1     -43.022  54.490 -52.547  1.00  0.00     0.010 A 
BRANCH  25  28
HETATM   28  C   UNL     1     -40.286  53.361 -50.153  1.00  0.00     0.292 C 
HETATM   29  O   UNL     1     -40.072  52.182 -50.387  1.00  0.00    -0.259 OA
BRANCH  28  30
HETATM   30  O   UNL     1     -39.693  54.097 -49.180  1.00  0.00    -0.323 OA
HETATM   31  C   UNL     1     -40.204  53.842 -47.871  1.00  0.00     0.213 C 
ENDBRANCH  28  30
ENDBRANCH  25  28
ENDBRANCH   5  22
BRANCH   1  32
HETATM   32  C   UNL     1     -44.461  60.796 -51.481  1.00  0.00     0.133 C 
BRANCH  32  33
HETATM   33  C   UNL     1     -43.686  60.944 -50.168  1.00  0.00     0.020 C 
BRANCH  33  34
HETATM   34  C   UNL     1     -42.195  61.156 -50.423  1.00  0.00    -0.003 C 
HETATM   35  C   UNL     1     -41.401  59.882 -50.182  1.00  0.00     0.005 C 
ENDBRANCH  33  34
ENDBRANCH  32  33
ENDBRANCH   1  32
TORSDOF 9
ENDMDL
MODEL 7
REMARK VINA RESULT:      -7.7      2.107      7.442
REMARK  9 active torsions:
REMARK  status: ('A' for Active; 'I' for Inactive)
REMARK    1  A    between atoms: C_2  and  C_3 
REMARK    2  A    between atoms: C_3  and  C_4 
REMARK    3  A    between atoms: C_4  and  N_5 
REMARK    4  A    between atoms: C_9  and  C_10 
REMARK    5  A    between atoms: C_13  and  C_14 
REMARK    6  A    between atoms: C_14  and  O_15 
REMARK    7  A    between atoms: C_20  and  C_21 
REMARK       I    between atoms: C_21  and  N_22 
REMARK    8  A    between atoms: N_22  and  C_23 
REMARK    9  A    between atoms: C_24  and  O_25 
ROOT
HETATM    1  N   UNL     1     -44.238  57.660 -58.287  1.00  0.00    -0.303 N 
HETATM    2  C   UNL     1     -42.892  57.522 -58.623  1.00  0.00     0.323 C 
HETATM    3  O   UNL     1     -42.471  57.390 -59.771  1.00  0.00    -0.247 OA
HETATM    4  N   UNL     1     -41.998  57.577 -57.603  1.00  0.00    -0.330 N 
HETATM    5  C   UNL     1     -42.327  57.469 -56.204  1.00  0.00     0.160 C 
HETATM    6  C   UNL     1     -43.758  57.842 -55.977  1.00  0.00     0.059 C 
HETATM    7  C   UNL     1     -44.672  57.882 -56.970  1.00  0.00     0.026 C 
HETATM    8  C   UNL     1     -46.143  58.115 -56.719  1.00  0.00     0.069 C 
HETATM    9  H   UNL     1     -41.043  57.406 -57.886  1.00  0.00     0.165 HD
ENDROOT
BRANCH   6  10
HETATM   10  C   UNL     1     -44.087  58.147 -54.556  1.00  0.00     0.256 C 
HETATM   11  N   UNL     1     -43.560  59.346 -54.138  1.00  0.00    -0.321 N 
HETATM   12  H   UNL     1     -43.059  59.920 -54.811  1.00  0.00     0.169 HD
HETATM   13  O   UNL     1     -44.731  57.349 -53.891  1.00  0.00    -0.267 OA
BRANCH  11  14
HETATM   14  C   UNL     1     -43.656  59.936 -52.857  1.00  0.00     0.068 A 
HETATM   15  C   UNL     1     -42.445  60.232 -52.196  1.00  0.00     0.095 A 
HETATM   16  C   UNL     1     -42.472  60.805 -50.921  1.00  0.00     0.039 A 
HETATM   17  C   UNL     1     -43.693  61.092 -50.307  1.00  0.00     0.003 A 
HETATM   18  C   UNL     1     -44.887  60.807 -50.962  1.00  0.00     0.002 A 
HETATM   19  C   UNL     1     -44.871  60.231 -52.233  1.00  0.00     0.032 A 
BRANCH  15  20
HETATM   20  O   UNL     1     -41.300  59.917 -52.893  1.00  0.00    -0.354 OA
HETATM   21  C   UNL     1     -40.469  58.906 -52.336  1.00  0.00     0.210 C 
ENDBRANCH  15  20
ENDBRANCH  11  14
ENDBRANCH   6  10
BRANCH   5  22
HETATM   22  C   UNL     1     -41.950  56.091 -55.676  1.00  0.00    -0.031 A 
HETATM   23  C   UNL     1     -40.764  55.924 -54.944  1.00  0.00     0.010 A 
HETATM   24  C   UNL     1     -40.441  54.685 -54.382  1.00  0.00     0.018 A 
HETATM   25  C   UNL     1     -41.301  53.592 -54.538  1.00  0.00     0.039 A 
HETATM   26  C   UNL     1     -42.469  53.740 -55.294  1.00  0.00     0.018 A 
HETATM   27  C   UNL     1     -42.788  54.978 -55.862  1.00  0.00     0.010 A 
BRANCH  25  28
HETATM   28  C   UNL     1     -40.941  52.315 -53.864  1.00  0.00     0.292 C 
HETATM   29  O   UNL     1     -41.019  51.222 -54.403  1.00  0.00    -0.259 OA
BRANCH  28  30
HETATM   30  O   UNL     1     -40.483  52.550 -52.609  1.00  0.00    -0.323 OA
HETATM   31  C   UNL     1     -39.529  51.591 -52.153  1.00  0.00     0.213 C 
ENDBRANCH  28  30
ENDBRANCH  25  28
ENDBRANCH   5  22
BRANCH   1  32
HETATM   32  C   UNL     1     -45.173  57.689 -59.421  1.00  0.00     0.133 C 
BRANCH  32  33
HETATM   33  C   UNL     1     -45.932  56.367 -59.575  1.00  0.00     0.020 C 
BRANCH  33  34
HETATM   34  C   UNL     1     -45.158  55.381 -60.449  1.00  0.00    -0.003 C 
HETATM   35  C   UNL     1     -44.512  54.285 -59.615  1.00  0.00     0.005 C 
ENDBRANCH  33  34
ENDBRANCH  32  33
ENDBRANCH   1  32
TORSDOF 9
ENDMDL
MODEL 8
REMARK VINA RESULT:      -7.7      2.424      6.753
REMARK  9 active torsions:
REMARK  status: ('A' for Active; 'I' for Inactive)
REMARK    1  A    between atoms: C_2  and  C_3 
REMARK    2  A    between atoms: C_3  and  C_4 
REMARK    3  A    between atoms: C_4  and  N_5 
REMARK    4  A    between atoms: C_9  and  C_10 
REMARK    5  A    between atoms: C_13  and  C_14 
REMARK    6  A    between atoms: C_14  and  O_15 
REMARK    7  A    between atoms: C_20  and  C_21 
REMARK       I    between atoms: C_21  and  N_22 
REMARK    8  A    between atoms: N_22  and  C_23 
REMARK    9  A    between atoms: C_24  and  O_25 
ROOT
HETATM    1  N   UNL     1     -44.648  59.878 -51.363  1.00  0.00    -0.303 N 
HETATM    2  C   UNL     1     -45.386  58.825 -50.820  1.00  0.00     0.323 C 
HETATM    3  O   UNL     1     -46.135  58.929 -49.850  1.00  0.00    -0.247 OA
HETATM    4  N   UNL     1     -45.285  57.623 -51.441  1.00  0.00    -0.330 N 
HETATM    5  C   UNL     1     -44.277  57.270 -52.409  1.00  0.00     0.160 C 
HETATM    6  C   UNL     1     -43.720  58.502 -53.051  1.00  0.00     0.059 C 
HETATM    7  C   UNL     1     -43.861  59.734 -52.517  1.00  0.00     0.026 C 
HETATM    8  C   UNL     1     -43.175  60.955 -53.085  1.00  0.00     0.069 C 
HETATM    9  H   UNL     1     -45.783  56.878 -50.974  1.00  0.00     0.165 HD
ENDROOT
BRANCH   6  10
HETATM   10  C   UNL     1     -42.981  58.245 -54.318  1.00  0.00     0.256 C 
HETATM   11  N   UNL     1     -43.820  57.958 -55.369  1.00  0.00    -0.321 N 
HETATM   12  H   UNL     1     -44.824  57.994 -55.215  1.00  0.00     0.169 HD
HETATM   13  O   UNL     1     -41.759  58.269 -54.332  1.00  0.00    -0.267 OA
BRANCH  11  14
HETATM   14  C   UNL     1     -43.465  57.646 -56.701  1.00  0.00     0.068 A 
HETATM   15  C   UNL     1     -43.173  56.295 -56.986  1.00  0.00     0.095 A 
HETATM   16  C   UNL     1     -42.804  55.923 -58.283  1.00  0.00     0.039 A 
HETATM   17  C   UNL     1     -42.732  56.883 -59.294  1.00  0.00     0.003 A 
HETATM   18  C   UNL     1     -43.028  58.214 -59.015  1.00  0.00     0.002 A 
HETATM   19  C   UNL     1     -43.393  58.596 -57.723  1.00  0.00     0.032 A 
BRANCH  15  20
HETATM   20  O   UNL     1     -43.282  55.430 -55.920  1.00  0.00    -0.354 OA
HETATM   21  C   UNL     1     -42.113  54.700 -55.567  1.00  0.00     0.210 C 
ENDBRANCH  15  20
ENDBRANCH  11  14
ENDBRANCH   6  10
BRANCH   5  22
HETATM   22  C   UNL     1     -43.227  56.367 -51.776  1.00  0.00    -0.031 A 
HETATM   23  C   UNL     1     -43.255  54.985 -52.023  1.00  0.00     0.010 A 
HETATM   24  C   UNL     1     -42.253  54.151 -51.518  1.00  0.00     0.018 A 
HETATM   25  C   UNL     1     -41.205  54.683 -50.760  1.00  0.00     0.039 A 
HETATM   26  C   UNL     1     -41.186  56.054 -50.481  1.00  0.00     0.018 A 
HETATM   27  C   UNL     1     -42.192  56.887 -50.981  1.00  0.00     0.010 A 
BRANCH  25  28
HETATM   28  C   UNL     1     -40.131  53.759 -50.302  1.00  0.00     0.292 C 
HETATM   29  O   UNL     1     -39.161  54.120 -49.655  1.00  0.00    -0.259 OA
BRANCH  28  30
HETATM   30  O   UNL     1     -40.412  52.483 -50.668  1.00  0.00    -0.323 OA
HETATM   31  C   UNL     1     -39.505  51.946 -51.631  1.00  0.00     0.213 C 
ENDBRANCH  28  30
ENDBRANCH  25  28
ENDBRANCH   5  22
BRANCH   1  32
HETATM   32  C   UNL     1     -44.850  61.186 -50.725  1.00  0.00     0.133 C 
BRANCH  32  33
HETATM   33  C   UNL     1     -43.944  61.378 -49.505  1.00  0.00     0.020 C 
BRANCH  33  34
HETATM   34  C   UNL     1     -44.682  62.090 -48.372  1.00  0.00    -0.003 C 
HETATM   35  C   UNL     1     -44.845  61.189 -47.158  1.00  0.00     0.005 C 
ENDBRANCH  33  34
ENDBRANCH  32  33
ENDBRANCH   1  32
TORSDOF 9
ENDMDL
MODEL 9
REMARK VINA RESULT:      -7.6      2.497      7.412
REMARK  9 active torsions:
REMARK  status: ('A' for Active; 'I' for Inactive)
REMARK    1  A    between atoms: C_2  and  C_3 
REMARK    2  A    between atoms: C_3  and  C_4 
REMARK    3  A    between atoms: C_4  and  N_5 
REMARK    4  A    between atoms: C_9  and  C_10 
REMARK    5  A    between atoms: C_13  and  C_14 
REMARK    6  A    between atoms: C_14  and  O_15 
REMARK    7  A    between atoms: C_20  and  C_21 
REMARK       I    between atoms: C_21  and  N_22 
REMARK    8  A    between atoms: N_22  and  C_23 
REMARK    9  A    between atoms: C_24  and  O_25 
ROOT
HETATM    1  N   UNL     1     -44.122  57.607 -59.042  1.00  0.00    -0.303 N 
HETATM    2  C   UNL     1     -42.800  57.214 -59.248  1.00  0.00     0.323 C 
HETATM    3  O   UNL     1     -42.384  56.682 -60.275  1.00  0.00    -0.247 OA
HETATM    4  N   UNL     1     -41.920  57.480 -58.249  1.00  0.00    -0.330 N 
HETATM    5  C   UNL     1     -42.278  57.854 -56.905  1.00  0.00     0.160 C 
HETATM    6  C   UNL     1     -43.653  58.445 -56.879  1.00  0.00     0.059 C 
HETATM    7  C   UNL     1     -44.541  58.279 -57.883  1.00  0.00     0.026 C 
HETATM    8  C   UNL     1     -45.974  58.750 -57.793  1.00  0.00     0.069 C 
HETATM    9  H   UNL     1     -40.991  57.119 -58.416  1.00  0.00     0.165 HD
ENDROOT
BRANCH   6  10
HETATM   10  C   UNL     1     -43.959  59.215 -55.642  1.00  0.00     0.256 C 
HETATM   11  N   UNL     1     -44.551  58.441 -54.671  1.00  0.00    -0.321 N 
HETATM   12  H   UNL     1     -44.676  57.448 -54.849  1.00  0.00     0.169 HD
HETATM   13  O   UNL     1     -43.715  60.412 -55.586  1.00  0.00    -0.267 OA
BRANCH  11  14
HETATM   14  C   UNL     1     -44.991  58.843 -53.390  1.00  0.00     0.068 A 
HETATM   15  C   UNL     1     -44.653  58.006 -52.306  1.00  0.00     0.095 A 
HETATM   16  C   UNL     1     -45.068  58.341 -51.013  1.00  0.00     0.039 A 
HETATM   17  C   UNL     1     -45.808  59.505 -50.794  1.00  0.00     0.003 A 
HETATM   18  C   UNL     1     -46.134  60.336 -51.863  1.00  0.00     0.002 A 
HETATM   19  C   UNL     1     -45.728  60.007 -53.157  1.00  0.00     0.032 A 
BRANCH  15  20
HETATM   20  O   UNL     1     -43.915  56.889 -52.630  1.00  0.00    -0.354 OA
HETATM   21  C   UNL     1     -43.612  55.992 -51.567  1.00  0.00     0.210 C 
ENDBRANCH  15  20
ENDBRANCH  11  14
ENDBRANCH   6  10
BRANCH   5  22
HETATM   22  C   UNL     1     -42.088  56.677 -55.958  1.00  0.00    -0.031 A 
HETATM   23  C   UNL     1     -42.781  55.477 -56.188  1.00  0.00     0.010 A 
HETATM   24  C   UNL     1     -42.558  54.359 -55.380  1.00  0.00     0.018 A 
HETATM   25  C   UNL     1     -41.637  54.419 -54.328  1.00  0.00     0.039 A 
HETATM   26  C   UNL     1     -40.967  55.619 -54.070  1.00  0.00     0.018 A 
HETATM   27  C   UNL     1     -41.194  56.740 -54.875  1.00  0.00     0.010 A 
BRANCH  25  28
HETATM   28  C   UNL     1     -41.392  53.180 -53.539  1.00  0.00     0.292 C 
HETATM   29  O   UNL     1     -41.324  53.158 -52.321  1.00  0.00    -0.259 OA
BRANCH  28  30
HETATM   30  O   UNL     1     -41.302  52.103 -54.359  1.00  0.00    -0.323 OA
HETATM   31  C   UNL     1     -40.133  51.311 -54.146  1.00  0.00     0.213 C 
ENDBRANCH  28  30
ENDBRANCH  25  28
ENDBRANCH   5  22
BRANCH   1  32
HETATM   32  C   UNL     1     -45.030  57.389 -60.177  1.00  0.00     0.133 C 
BRANCH  32  33
HETATM   33  C   UNL     1     -45.884  56.130 -59.998  1.00  0.00     0.020 C 
BRANCH  33  34
HETATM   34  C   UNL     1     -45.219  54.913 -60.638  1.00  0.00    -0.003 C 
HETATM   35  C   UNL     1     -44.620  53.988 -59.590  1.00  0.00     0.005 C 
ENDBRANCH  33  34
ENDBRANCH  32  33
ENDBRANCH   1  32
TORSDOF 9
ENDMDL
MODEL 10
REMARK VINA RESULT:      -7.5      2.247      6.703
REMARK  9 active torsions:
REMARK  status: ('A' for Active; 'I' for Inactive)
REMARK    1  A    between atoms: C_2  and  C_3 
REMARK    2  A    between atoms: C_3  and  C_4 
REMARK    3  A    between atoms: C_4  and  N_5 
REMARK    4  A    between atoms: C_9  and  C_10 
REMARK    5  A    between atoms: C_13  and  C_14 
REMARK    6  A    between atoms: C_14  and  O_15 
REMARK    7  A    between atoms: C_20  and  C_21 
REMARK       I    between atoms: C_21  and  N_22 
REMARK    8  A    between atoms: N_22  and  C_23 
REMARK    9  A    between atoms: C_24  and  O_25 
ROOT
HETATM    1  N   UNL     1     -43.725  58.681 -52.039  1.00  0.00    -0.303 N 
HETATM    2  C   UNL     1     -44.609  57.621 -51.838  1.00  0.00     0.323 C 
HETATM    3  O   UNL     1     -45.330  57.496 -50.851  1.00  0.00    -0.247 OA
HETATM    4  N   UNL     1     -44.690  56.695 -52.828  1.00  0.00    -0.330 N 
HETATM    5  C   UNL     1     -43.749  56.552 -53.910  1.00  0.00     0.160 C 
HETATM    6  C   UNL     1     -43.017  57.837 -54.135  1.00  0.00     0.059 C 
HETATM    7  C   UNL     1     -42.971  58.825 -53.216  1.00  0.00     0.026 C 
HETATM    8  C   UNL     1     -42.113  60.058 -53.382  1.00  0.00     0.069 C 
HETATM    9  H   UNL     1     -45.292  55.914 -52.608  1.00  0.00     0.165 HD
ENDROOT
BRANCH   6  10
HETATM   10  C   UNL     1     -42.329  57.921 -55.453  1.00  0.00     0.256 C 
HETATM   11  N   UNL     1     -43.128  58.461 -56.432  1.00  0.00    -0.321 N 
HETATM   12  H   UNL     1     -44.056  58.791 -56.178  1.00  0.00     0.169 HD
HETATM   13  O   UNL     1     -41.188  57.499 -55.578  1.00  0.00    -0.267 OA
BRANCH  11  14
HETATM   14  C   UNL     1     -42.811  58.670 -57.794  1.00  0.00     0.068 A 
HETATM   15  C   UNL     1     -43.032  57.590 -58.675  1.00  0.00     0.095 A 
HETATM   16  C   UNL     1     -42.727  57.728 -60.033  1.00  0.00     0.039 A 
HETATM   17  C   UNL     1     -42.213  58.933 -60.517  1.00  0.00     0.003 A 
HETATM   18  C   UNL     1     -42.002  60.001 -59.649  1.00  0.00     0.002 A 
HETATM   19  C   UNL     1     -42.299  59.871 -58.292  1.00  0.00     0.032 A 
BRANCH  15  20
HETATM   20  O   UNL     1     -43.549  56.453 -58.096  1.00  0.00    -0.354 OA
HETATM   21  C   UNL     1     -43.835  55.365 -58.968  1.00  0.00     0.210 C 
ENDBRANCH  15  20
ENDBRANCH  11  14
ENDBRANCH   6  10
BRANCH   5  22
HETATM   22  C   UNL     1     -42.844  55.352 -53.669  1.00  0.00    -0.031 A 
HETATM   23  C   UNL     1     -42.785  54.319 -54.619  1.00  0.00     0.010 A 
HETATM   24  C   UNL     1     -41.900  53.250 -54.457  1.00  0.00     0.018 A 
HETATM   25  C   UNL     1     -41.055  53.194 -53.342  1.00  0.00     0.039 A 
HETATM   26  C   UNL     1     -41.130  54.201 -52.373  1.00  0.00     0.018 A 
HETATM   27  C   UNL     1     -42.020  55.267 -52.533  1.00  0.00     0.010 A 
BRANCH  25  28
HETATM   28  C   UNL     1     -40.088  52.067 -53.252  1.00  0.00     0.292 C 
HETATM   29  O   UNL     1     -39.422  51.827 -52.257  1.00  0.00    -0.259 OA
BRANCH  28  30
HETATM   30  O   UNL     1     -40.092  51.341 -54.398  1.00  0.00    -0.323 OA
HETATM   31  C   UNL     1     -39.653  49.993 -54.230  1.00  0.00     0.213 C 
ENDBRANCH  28  30
ENDBRANCH  25  28
ENDBRANCH   5  22
BRANCH   1  32
HETATM   32  C   UNL     1     -43.727  59.714 -50.994  1.00  0.00     0.133 C 
BRANCH  32  33
HETATM   33  C   UNL     1     -44.853  60.733 -51.195  1.00  0.00     0.020 C 
BRANCH  33  34
HETATM   34  C   UNL     1     -44.300  62.150 -51.336  1.00  0.00    -0.003 C 
HETATM   35  C   UNL     1     -43.090  62.369 -50.441  1.00  0.00     0.005 C 
ENDBRANCH  33  34
ENDBRANCH  32  33
ENDBRANCH   1  32
TORSDOF 9
ENDMDL
