MODEL 1
REMARK VINA RESULT:      -8.4      0.000      0.000
REMARK  8 active torsions:
REMARK  status: ('A' for Active; 'I' for Inactive)
REMARK    1  A    between atoms: C_2  and  C_3 
REMARK    2  A    between atoms: C_3  and  N_4 
REMARK    3  A    between atoms: N_4  and  C_6 
REMARK    4  A    between atoms: N_4  and  C_23 
REMARK    5  A    between atoms: C_6  and  C_7 
REMARK       I    between atoms: C_7  and  N_8 
REMARK    6  A    between atoms: N_8  and  C_9 
REMARK    7  A    between atoms: C_23  and  C_24 
REMARK       I    between atoms: C_24  and  N_25 
REMARK    8  A    between atoms: N_25  and  C_26 
ROOT
HETATM    1  N   UNL     1     -42.932  57.302 -51.495  1.00  0.00    -0.055 N 
HETATM    2  H   UNL     1     -42.517  57.025 -52.399  1.00  0.00     0.281 HD
ENDROOT
BRANCH   1   3
HETATM    3  C   UNL     1     -44.430  57.369 -51.692  1.00  0.00     0.235 C 
BRANCH   3   4
HETATM    4  C   UNL     1     -44.834  57.753 -53.115  1.00  0.00     0.023 C 
HETATM    5  C   UNL     1     -45.166  59.226 -53.288  1.00  0.00     0.007 C 
ENDBRANCH   3   4
ENDBRANCH   1   3
BRANCH   1   6
HETATM    6  C   UNL     1     -42.291  58.641 -51.070  1.00  0.00     0.338 C 
BRANCH   6   7
HETATM    7  C   UNL     1     -40.798  58.733 -51.441  1.00  0.00     0.249 C 
HETATM    8  N   UNL     1     -40.342  58.619 -52.711  1.00  0.00    -0.304 N 
HETATM    9  H   UNL     1     -39.352  58.790 -52.854  1.00  0.00     0.171 HD
HETATM   10  O   UNL     1     -39.974  59.001 -50.555  1.00  0.00    -0.271 OA
BRANCH   8  11
HETATM   11  C   UNL     1     -41.049  58.211 -53.799  1.00  0.00     0.174 A 
HETATM   12  S   UNL     1     -41.711  59.482 -54.708  1.00  0.00    -0.050 SA
HETATM   13  C   UNL     1     -42.381  58.332 -55.800  1.00  0.00     0.040 A 
HETATM   14  C   UNL     1     -42.013  57.046 -55.387  1.00  0.00     0.079 A 
HETATM   15  C   UNL     1     -43.168  58.556 -56.940  1.00  0.00     0.061 A 
HETATM   16  N   UNL     1     -41.266  56.993 -54.212  1.00  0.00    -0.223 NA
HETATM   17  C   UNL     1     -42.412  55.944 -56.170  1.00  0.00     0.072 A 
HETATM   18  C   UNL     1     -43.165  56.161 -57.328  1.00  0.00     0.104 A 
HETATM   19  C   UNL     1     -43.564  57.447 -57.688  1.00  0.00     0.103 A 
HETATM   20  O   UNL     1     -43.479  55.047 -58.066  1.00  0.00    -0.346 OA
HETATM   21  O   UNL     1     -44.343  57.713 -58.787  1.00  0.00    -0.346 OA
HETATM   22  C   UNL     1     -44.941  56.524 -59.315  1.00  0.00     0.202 C 
HETATM   23  C   UNL     1     -43.920  55.401 -59.385  1.00  0.00     0.202 C 
ENDBRANCH   8  11
ENDBRANCH   6   7
ENDBRANCH   1   6
BRANCH   1  24
HETATM   24  C   UNL     1     -42.547  56.145 -50.550  1.00  0.00     0.338 C 
BRANCH  24  25
HETATM   25  C   UNL     1     -42.383  54.828 -51.315  1.00  0.00     0.248 C 
HETATM   26  N   UNL     1     -41.115  54.637 -51.822  1.00  0.00    -0.323 N 
HETATM   27  H   UNL     1     -40.408  55.355 -51.664  1.00  0.00     0.169 HD
HETATM   28  O   UNL     1     -43.334  54.052 -51.372  1.00  0.00    -0.271 OA
BRANCH  26  29
HETATM   29  C   UNL     1     -40.620  53.509 -52.517  1.00  0.00     0.077 A 
HETATM   30  C   UNL     1     -40.039  52.498 -51.737  1.00  0.00     0.184 A 
HETATM   31  F   UNL     1     -39.995  52.658 -50.403  1.00  0.00    -0.200 F 
HETATM   32  C   UNL     1     -39.532  51.341 -52.313  1.00  0.00     0.195 A 
HETATM   33  F   UNL     1     -38.997  50.385 -51.541  1.00  0.00    -0.199 F 
HETATM   34  C   UNL     1     -39.594  51.185 -53.687  1.00  0.00     0.158 A 
HETATM   35  F   UNL     1     -39.110  50.077 -54.263  1.00  0.00    -0.203 F 
HETATM   36  C   UNL     1     -40.159  52.177 -54.485  1.00  0.00     0.048 A 
HETATM   37  C   UNL     1     -40.675  53.342 -53.902  1.00  0.00     0.036 A 
ENDBRANCH  26  29
ENDBRANCH  24  25
ENDBRANCH   1  24
TORSDOF 8
ENDMDL
MODEL 2
REMARK VINA RESULT:      -8.1      1.786      2.707
REMARK  8 active torsions:
REMARK  status: ('A' for Active; 'I' for Inactive)
REMARK    1  A    between atoms: C_2  and  C_3 
REMARK    2  A    between atoms: C_3  and  N_4 
REMARK    3  A    between atoms: N_4  and  C_6 
REMARK    4  A    between atoms: N_4  and  C_23 
REMARK    5  A    between atoms: C_6  and  C_7 
REMARK       I    between atoms: C_7  and  N_8 
REMARK    6  A    between atoms: N_8  and  C_9 
REMARK    7  A    between atoms: C_23  and  C_24 
REMARK       I    between atoms: C_24  and  N_25 
REMARK    8  A    between atoms: N_25  and  C_26 
ROOT
HETATM    1  N   UNL     1     -42.844  56.798 -52.387  1.00  0.00    -0.055 N 
HETATM    2  H   UNL     1     -43.603  56.183 -52.720  1.00  0.00     0.281 HD
ENDROOT
BRANCH   1   3
HETATM    3  C   UNL     1     -42.798  56.675 -50.880  1.00  0.00     0.235 C 
BRANCH   3   4
HETATM    4  C   UNL     1     -41.376  56.625 -50.323  1.00  0.00     0.023 C 
HETATM    5  C   UNL     1     -41.111  55.441 -49.408  1.00  0.00     0.007 C 
ENDBRANCH   3   4
ENDBRANCH   1   3
BRANCH   1   6
HETATM    6  C   UNL     1     -43.137  58.227 -52.895  1.00  0.00     0.338 C 
BRANCH   6   7
HETATM    7  C   UNL     1     -41.891  58.922 -53.475  1.00  0.00     0.249 C 
HETATM    8  N   UNL     1     -41.681  59.079 -54.804  1.00  0.00    -0.304 N 
HETATM    9  H   UNL     1     -40.876  59.635 -55.073  1.00  0.00     0.171 HD
HETATM   10  O   UNL     1     -41.073  59.435 -52.699  1.00  0.00    -0.271 OA
BRANCH   8  11
HETATM   11  C   UNL     1     -42.380  58.497 -55.815  1.00  0.00     0.174 A 
HETATM   12  S   UNL     1     -43.573  59.495 -56.494  1.00  0.00    -0.050 SA
HETATM   13  C   UNL     1     -43.989  58.230 -57.586  1.00  0.00     0.040 A 
HETATM   14  C   UNL     1     -43.146  57.137 -57.355  1.00  0.00     0.079 A 
HETATM   15  C   UNL     1     -44.983  58.214 -58.576  1.00  0.00     0.061 A 
HETATM   16  N   UNL     1     -42.240  57.297 -56.309  1.00  0.00    -0.223 NA
HETATM   17  C   UNL     1     -43.275  55.998 -58.176  1.00  0.00     0.072 A 
HETATM   18  C   UNL     1     -44.239  55.988 -59.189  1.00  0.00     0.104 A 
HETATM   19  C   UNL     1     -45.102  57.069 -59.363  1.00  0.00     0.103 A 
HETATM   20  O   UNL     1     -44.278  54.866 -59.979  1.00  0.00    -0.346 OA
HETATM   21  O   UNL     1     -46.096  57.094 -60.310  1.00  0.00    -0.346 OA
HETATM   22  C   UNL     1     -46.338  55.794 -60.860  1.00  0.00     0.202 C 
HETATM   23  C   UNL     1     -45.026  55.099 -61.181  1.00  0.00     0.202 C 
ENDBRANCH   8  11
ENDBRANCH   6   7
ENDBRANCH   1   6
BRANCH   1  24
HETATM   24  C   UNL     1     -41.580  56.197 -53.033  1.00  0.00     0.338 C 
BRANCH  24  25
HETATM   25  C   UNL     1     -41.627  54.666 -53.039  1.00  0.00     0.248 C 
HETATM   26  N   UNL     1     -40.413  54.075 -52.757  1.00  0.00    -0.323 N 
HETATM   27  H   UNL     1     -39.605  54.670 -52.578  1.00  0.00     0.169 HD
HETATM   28  O   UNL     1     -42.703  54.105 -53.232  1.00  0.00    -0.271 OA
BRANCH  26  29
HETATM   29  C   UNL     1     -40.132  52.695 -52.625  1.00  0.00     0.077 A 
HETATM   30  C   UNL     1     -40.036  51.959 -53.817  1.00  0.00     0.184 A 
HETATM   31  F   UNL     1     -40.209  52.599 -54.986  1.00  0.00    -0.200 F 
HETATM   32  C   UNL     1     -39.752  50.600 -53.807  1.00  0.00     0.195 A 
HETATM   33  F   UNL     1     -39.652  49.927 -54.961  1.00  0.00    -0.199 F 
HETATM   34  C   UNL     1     -39.567  49.955 -52.596  1.00  0.00     0.158 A 
HETATM   35  F   UNL     1     -39.292  48.645 -52.564  1.00  0.00    -0.203 F 
HETATM   36  C   UNL     1     -39.663  50.661 -51.399  1.00  0.00     0.048 A 
HETATM   37  C   UNL     1     -39.944  52.034 -51.410  1.00  0.00     0.036 A 
ENDBRANCH  26  29
ENDBRANCH  24  25
ENDBRANCH   1  24
TORSDOF 8
ENDMDL
MODEL 3
REMARK VINA RESULT:      -8.1      1.931      2.816
REMARK  8 active torsions:
REMARK  status: ('A' for Active; 'I' for Inactive)
REMARK    1  A    between atoms: C_2  and  C_3 
REMARK    2  A    between atoms: C_3  and  N_4 
REMARK    3  A    between atoms: N_4  and  C_6 
REMARK    4  A    between atoms: N_4  and  C_23 
REMARK    5  A    between atoms: C_6  and  C_7 
REMARK       I    between atoms: C_7  and  N_8 
REMARK    6  A    between atoms: N_8  and  C_9 
REMARK    7  A    between atoms: C_23  and  C_24 
REMARK       I    between atoms: C_24  and  N_25 
REMARK    8  A    between atoms: N_25  and  C_26 
ROOT
HETATM    1  N   UNL     1     -41.929  57.039 -51.409  1.00  0.00    -0.055 N 
HETATM    2  H   UNL     1     -42.370  56.244 -50.920  1.00  0.00     0.281 HD
ENDROOT
BRANCH   1   3
HETATM    3  C   UNL     1     -40.800  57.532 -50.532  1.00  0.00     0.235 C 
BRANCH   3   4
HETATM    4  C   UNL     1     -40.663  59.054 -50.524  1.00  0.00     0.023 C 
HETATM    5  C   UNL     1     -39.225  59.547 -50.562  1.00  0.00     0.007 C 
ENDBRANCH   3   4
ENDBRANCH   1   3
BRANCH   1   6
HETATM    6  C   UNL     1     -43.024  58.093 -51.681  1.00  0.00     0.338 C 
BRANCH   6   7
HETATM    7  C   UNL     1     -44.441  57.491 -51.707  1.00  0.00     0.249 C 
HETATM    8  N   UNL     1     -45.068  57.119 -52.848  1.00  0.00    -0.304 N 
HETATM    9  H   UNL     1     -45.959  56.646 -52.743  1.00  0.00     0.171 HD
HETATM   10  O   UNL     1     -45.015  57.258 -50.634  1.00  0.00    -0.271 OA
BRANCH   8  11
HETATM   11  C   UNL     1     -44.674  57.392 -54.121  1.00  0.00     0.174 A 
HETATM   12  S   UNL     1     -45.054  58.964 -54.638  1.00  0.00    -0.050 SA
HETATM   13  C   UNL     1     -44.330  58.623 -56.162  1.00  0.00     0.040 A 
HETATM   14  C   UNL     1     -43.823  57.318 -56.141  1.00  0.00     0.079 A 
HETATM   15  C   UNL     1     -44.215  59.453 -57.288  1.00  0.00     0.061 A 
HETATM   16  N   UNL     1     -44.055  56.611 -54.963  1.00  0.00    -0.223 NA
HETATM   17  C   UNL     1     -43.136  56.840 -57.276  1.00  0.00     0.072 A 
HETATM   18  C   UNL     1     -42.985  57.674 -58.388  1.00  0.00     0.104 A 
HETATM   19  C   UNL     1     -43.547  58.950 -58.404  1.00  0.00     0.103 A 
HETATM   20  O   UNL     1     -42.266  57.161 -59.439  1.00  0.00    -0.346 OA
HETATM   21  O   UNL     1     -43.470  59.793 -59.485  1.00  0.00    -0.346 OA
HETATM   22  C   UNL     1     -43.040  59.105 -60.666  1.00  0.00     0.202 C 
HETATM   23  C   UNL     1     -41.866  58.193 -60.352  1.00  0.00     0.202 C 
ENDBRANCH   8  11
ENDBRANCH   6   7
ENDBRANCH   1   6
BRANCH   1  24
HETATM   24  C   UNL     1     -41.389  56.411 -52.710  1.00  0.00     0.338 C 
BRANCH  24  25
HETATM   25  C   UNL     1     -41.526  54.884 -52.694  1.00  0.00     0.248 C 
HETATM   26  N   UNL     1     -40.387  54.223 -53.103  1.00  0.00    -0.323 N 
HETATM   27  H   UNL     1     -39.572  54.770 -53.380  1.00  0.00     0.169 HD
HETATM   28  O   UNL     1     -42.573  54.387 -52.286  1.00  0.00    -0.271 OA
BRANCH  26  29
HETATM   29  C   UNL     1     -40.165  52.827 -53.145  1.00  0.00     0.077 A 
HETATM   30  C   UNL     1     -39.814  52.212 -51.933  1.00  0.00     0.184 A 
HETATM   31  F   UNL     1     -39.720  52.972 -50.828  1.00  0.00    -0.200 F 
HETATM   32  C   UNL     1     -39.584  50.846 -51.855  1.00  0.00     0.195 A 
HETATM   33  F   UNL     1     -39.266  50.284 -50.681  1.00  0.00    -0.199 F 
HETATM   34  C   UNL     1     -39.695  50.073 -52.998  1.00  0.00     0.158 A 
HETATM   35  F   UNL     1     -39.477  48.753 -52.945  1.00  0.00    -0.203 F 
HETATM   36  C   UNL     1     -40.034  50.659 -54.216  1.00  0.00     0.048 A 
HETATM   37  C   UNL     1     -40.272  52.038 -54.292  1.00  0.00     0.036 A 
ENDBRANCH  26  29
ENDBRANCH  24  25
ENDBRANCH   1  24
TORSDOF 8
ENDMDL
MODEL 4
REMARK VINA RESULT:      -7.7      3.894      6.936
REMARK  8 active torsions:
REMARK  status: ('A' for Active; 'I' for Inactive)
REMARK    1  A    between atoms: C_2  and  C_3 
REMARK    2  A    between atoms: C_3  and  N_4 
REMARK    3  A    between atoms: N_4  and  C_6 
REMARK    4  A    between atoms: N_4  and  C_23 
REMARK    5  A    between atoms: C_6  and  C_7 
REMARK       I    between atoms: C_7  and  N_8 
REMARK    6  A    between atoms: N_8  and  C_9 
REMARK    7  A    between atoms: C_23  and  C_24 
REMARK       I    between atoms: C_24  and  N_25 
REMARK    8  A    between atoms: N_25  and  C_26 
ROOT
HETATM    1  N   UNL     1     -42.172  59.192 -53.376  1.00  0.00    -0.055 N 
HETATM    2  H   UNL     1     -42.472  58.291 -53.781  1.00  0.00     0.281 HD
ENDROOT
BRANCH   1   3
HETATM    3  C   UNL     1     -40.745  59.017 -52.904  1.00  0.00     0.235 C 
BRANCH   3   4
HETATM    4  C   UNL     1     -40.645  58.546 -51.454  1.00  0.00     0.023 C 
HETATM    5  C   UNL     1     -39.822  59.461 -50.561  1.00  0.00     0.007 C 
ENDBRANCH   3   4
ENDBRANCH   1   3
BRANCH   1   6
HETATM    6  C   UNL     1     -43.167  59.562 -52.255  1.00  0.00     0.338 C 
BRANCH   6   7
HETATM    7  C   UNL     1     -44.576  58.986 -52.493  1.00  0.00     0.249 C 
HETATM    8  N   UNL     1     -44.841  57.657 -52.505  1.00  0.00    -0.304 N 
HETATM    9  H   UNL     1     -45.817  57.390 -52.575  1.00  0.00     0.171 HD
HETATM   10  O   UNL     1     -45.534  59.764 -52.601  1.00  0.00    -0.271 OA
BRANCH   8  11
HETATM   11  C   UNL     1     -43.933  56.645 -52.526  1.00  0.00     0.174 A 
HETATM   12  S   UNL     1     -43.616  55.971 -51.001  1.00  0.00    -0.050 SA
HETATM   13  C   UNL     1     -42.508  54.873 -51.732  1.00  0.00     0.040 A 
HETATM   14  C   UNL     1     -42.493  55.099 -53.113  1.00  0.00     0.079 A 
HETATM   15  C   UNL     1     -41.720  53.884 -51.125  1.00  0.00     0.061 A 
HETATM   16  N   UNL     1     -43.301  56.145 -53.552  1.00  0.00    -0.223 NA
HETATM   17  C   UNL     1     -41.688  54.273 -53.924  1.00  0.00     0.072 A 
HETATM   18  C   UNL     1     -40.928  53.260 -53.332  1.00  0.00     0.104 A 
HETATM   19  C   UNL     1     -40.919  53.092 -51.948  1.00  0.00     0.103 A 
HETATM   20  O   UNL     1     -40.204  52.465 -54.185  1.00  0.00    -0.346 OA
HETATM   21  O   UNL     1     -40.156  52.146 -51.310  1.00  0.00    -0.346 OA
HETATM   22  C   UNL     1     -39.162  51.590 -52.178  1.00  0.00     0.202 C 
HETATM   23  C   UNL     1     -39.763  51.265 -53.535  1.00  0.00     0.202 C 
ENDBRANCH   8  11
ENDBRANCH   6   7
ENDBRANCH   1   6
BRANCH   1  24
HETATM   24  C   UNL     1     -42.248  60.168 -54.568  1.00  0.00     0.338 C 
BRANCH  24  25
HETATM   25  C   UNL     1     -42.263  59.420 -55.905  1.00  0.00     0.248 C 
HETATM   26  N   UNL     1     -43.116  58.336 -55.922  1.00  0.00    -0.323 N 
HETATM   27  H   UNL     1     -43.648  58.115 -55.081  1.00  0.00     0.169 HD
HETATM   28  O   UNL     1     -41.587  59.852 -56.836  1.00  0.00    -0.271 OA
BRANCH  26  29
HETATM   29  C   UNL     1     -43.407  57.480 -57.009  1.00  0.00     0.077 A 
HETATM   30  C   UNL     1     -44.343  57.950 -57.943  1.00  0.00     0.184 A 
HETATM   31  F   UNL     1     -44.889  59.164 -57.754  1.00  0.00    -0.200 F 
HETATM   32  C   UNL     1     -44.695  57.199 -59.056  1.00  0.00     0.195 A 
HETATM   33  F   UNL     1     -45.580  57.680 -59.939  1.00  0.00    -0.199 F 
HETATM   34  C   UNL     1     -44.117  55.955 -59.244  1.00  0.00     0.158 A 
HETATM   35  F   UNL     1     -44.443  55.214 -60.311  1.00  0.00    -0.203 F 
HETATM   36  C   UNL     1     -43.191  55.461 -58.328  1.00  0.00     0.048 A 
HETATM   37  C   UNL     1     -42.832  56.223 -57.208  1.00  0.00     0.036 A 
ENDBRANCH  26  29
ENDBRANCH  24  25
ENDBRANCH   1  24
TORSDOF 8
ENDMDL
MODEL 5
REMARK VINA RESULT:      -7.4      2.921      4.285
REMARK  8 active torsions:
REMARK  status: ('A' for Active; 'I' for Inactive)
REMARK    1  A    between atoms: C_2  and  C_3 
REMARK    2  A    between atoms: C_3  and  N_4 
REMARK    3  A    between atoms: N_4  and  C_6 
REMARK    4  A    between atoms: N_4  and  C_23 
REMARK    5  A    between atoms: C_6  and  C_7 
REMARK       I    between atoms: C_7  and  N_8 
REMARK    6  A    between atoms: N_8  and  C_9 
REMARK    7  A    between atoms: C_23  and  C_24 
REMARK       I    between atoms: C_24  and  N_25 
REMARK    8  A    between atoms: N_25  and  C_26 
ROOT
HETATM    1  N   UNL     1     -42.709  56.514 -53.679  1.00  0.00    -0.055 N 
HETATM    2  H   UNL     1     -43.607  56.008 -53.628  1.00  0.00     0.281 HD
ENDROOT
BRANCH   1   3
HETATM    3  C   UNL     1     -43.024  57.992 -53.612  1.00  0.00     0.235 C 
BRANCH   3   4
HETATM    4  C   UNL     1     -44.462  58.319 -54.010  1.00  0.00     0.023 C 
HETATM    5  C   UNL     1     -44.984  59.624 -53.429  1.00  0.00     0.007 C 
ENDBRANCH   3   4
ENDBRANCH   1   3
BRANCH   1   6
HETATM    6  C   UNL     1     -41.994  56.079 -54.977  1.00  0.00     0.338 C 
BRANCH   6   7
HETATM    7  C   UNL     1     -42.889  55.222 -55.893  1.00  0.00     0.249 C 
HETATM    8  N   UNL     1     -43.122  55.523 -57.193  1.00  0.00    -0.304 N 
HETATM    9  H   UNL     1     -43.647  54.841 -57.729  1.00  0.00     0.171 HD
HETATM   10  O   UNL     1     -43.360  54.164 -55.455  1.00  0.00    -0.271 OA
BRANCH   8  11
HETATM   11  C   UNL     1     -42.806  56.682 -57.832  1.00  0.00     0.174 A 
HETATM   12  S   UNL     1     -42.789  56.555 -59.524  1.00  0.00    -0.050 SA
HETATM   13  C   UNL     1     -42.365  58.220 -59.631  1.00  0.00     0.040 A 
HETATM   14  C   UNL     1     -42.297  58.754 -58.339  1.00  0.00     0.079 A 
HETATM   15  C   UNL     1     -42.120  58.994 -60.775  1.00  0.00     0.061 A 
HETATM   16  N   UNL     1     -42.527  57.844 -57.309  1.00  0.00    -0.223 NA
HETATM   17  C   UNL     1     -42.013  60.126 -58.188  1.00  0.00     0.072 A 
HETATM   18  C   UNL     1     -41.803  60.913 -59.325  1.00  0.00     0.104 A 
HETATM   19  C   UNL     1     -41.824  60.345 -60.598  1.00  0.00     0.103 A 
HETATM   20  O   UNL     1     -41.578  62.249 -59.106  1.00  0.00    -0.346 OA
HETATM   21  O   UNL     1     -41.578  61.060 -61.744  1.00  0.00    -0.346 OA
HETATM   22  C   UNL     1     -41.001  62.340 -61.460  1.00  0.00     0.202 C 
HETATM   23  C   UNL     1     -41.736  63.011 -60.311  1.00  0.00     0.202 C 
ENDBRANCH   8  11
ENDBRANCH   6   7
ENDBRANCH   1   6
BRANCH   1  24
HETATM   24  C   UNL     1     -41.957  56.048 -52.416  1.00  0.00     0.338 C 
BRANCH  24  25
HETATM   25  C   UNL     1     -41.908  54.519 -52.325  1.00  0.00     0.248 C 
HETATM   26  N   UNL     1     -40.652  53.993 -52.544  1.00  0.00    -0.323 N 
HETATM   27  H   UNL     1     -39.880  54.627 -52.746  1.00  0.00     0.169 HD
HETATM   28  O   UNL     1     -42.932  53.909 -52.026  1.00  0.00    -0.271 OA
BRANCH  26  29
HETATM   29  C   UNL     1     -40.257  52.637 -52.472  1.00  0.00     0.077 A 
HETATM   30  C   UNL     1     -40.155  51.950 -53.693  1.00  0.00     0.184 A 
HETATM   31  F   UNL     1     -40.427  52.611 -54.830  1.00  0.00    -0.200 F 
HETATM   32  C   UNL     1     -39.764  50.619 -53.742  1.00  0.00     0.195 A 
HETATM   33  F   UNL     1     -39.660  49.993 -54.922  1.00  0.00    -0.199 F 
HETATM   34  C   UNL     1     -39.477  49.952 -52.564  1.00  0.00     0.158 A 
HETATM   35  F   UNL     1     -39.098  48.668 -52.589  1.00  0.00    -0.203 F 
HETATM   36  C   UNL     1     -39.578  50.608 -51.339  1.00  0.00     0.048 A 
HETATM   37  C   UNL     1     -39.967  51.954 -51.290  1.00  0.00     0.036 A 
ENDBRANCH  26  29
ENDBRANCH  24  25
ENDBRANCH   1  24
TORSDOF 8
ENDMDL
MODEL 6
REMARK VINA RESULT:      -7.2      3.127      6.179
REMARK  8 active torsions:
REMARK  status: ('A' for Active; 'I' for Inactive)
REMARK    1  A    between atoms: C_2  and  C_3 
REMARK    2  A    between atoms: C_3  and  N_4 
REMARK    3  A    between atoms: N_4  and  C_6 
REMARK    4  A    between atoms: N_4  and  C_23 
REMARK    5  A    between atoms: C_6  and  C_7 
REMARK       I    between atoms: C_7  and  N_8 
REMARK    6  A    between atoms: N_8  and  C_9 
REMARK    7  A    between atoms: C_23  and  C_24 
REMARK       I    between atoms: C_24  and  N_25 
REMARK    8  A    between atoms: N_25  and  C_26 
ROOT
HETATM    1  N   UNL     1     -42.143  56.658 -53.708  1.00  0.00    -0.055 N 
HETATM    2  H   UNL     1     -41.543  56.046 -54.285  1.00  0.00     0.281 HD
ENDROOT
BRANCH   1   3
HETATM    3  C   UNL     1     -43.579  56.307 -54.029  1.00  0.00     0.235 C 
BRANCH   3   4
HETATM    4  C   UNL     1     -43.710  55.179 -55.050  1.00  0.00     0.023 C 
HETATM    5  C   UNL     1     -42.505  55.029 -55.965  1.00  0.00     0.007 C 
ENDBRANCH   3   4
ENDBRANCH   1   3
BRANCH   1   6
HETATM    6  C   UNL     1     -41.765  58.122 -54.021  1.00  0.00     0.338 C 
BRANCH   6   7
HETATM    7  C   UNL     1     -42.749  58.799 -54.993  1.00  0.00     0.249 C 
HETATM    8  N   UNL     1     -43.625  59.758 -54.612  1.00  0.00    -0.304 N 
HETATM    9  H   UNL     1     -44.160  60.203 -55.350  1.00  0.00     0.171 HD
HETATM   10  O   UNL     1     -42.693  58.517 -56.198  1.00  0.00    -0.271 OA
BRANCH   8  11
HETATM   11  C   UNL     1     -43.931  60.124 -53.338  1.00  0.00     0.174 A 
HETATM   12  S   UNL     1     -43.285  61.625 -52.877  1.00  0.00    -0.050 SA
HETATM   13  C   UNL     1     -44.011  61.445 -51.326  1.00  0.00     0.040 A 
HETATM   14  C   UNL     1     -44.724  60.241 -51.297  1.00  0.00     0.079 A 
HETATM   15  C   UNL     1     -43.956  62.311 -50.223  1.00  0.00     0.061 A 
HETATM   16  N   UNL     1     -44.645  59.476 -52.459  1.00  0.00    -0.223 NA
HETATM   17  C   UNL     1     -45.446  59.911 -50.132  1.00  0.00     0.072 A 
HETATM   18  C   UNL     1     -45.427  60.785 -49.042  1.00  0.00     0.104 A 
HETATM   19  C   UNL     1     -44.664  61.952 -49.077  1.00  0.00     0.103 A 
HETATM   20  O   UNL     1     -46.189  60.424 -47.959  1.00  0.00    -0.346 OA
HETATM   21  O   UNL     1     -44.571  62.822 -48.019  1.00  0.00    -0.346 OA
HETATM   22  C   UNL     1     -45.073  62.244 -46.809  1.00  0.00     0.202 C 
HETATM   23  C   UNL     1     -46.389  61.529 -47.067  1.00  0.00     0.202 C 
ENDBRANCH   8  11
ENDBRANCH   6   7
ENDBRANCH   1   6
BRANCH   1  24
HETATM   24  C   UNL     1     -41.782  56.259 -52.263  1.00  0.00     0.338 C 
BRANCH  24  25
HETATM   25  C   UNL     1     -41.756  54.736 -52.091  1.00  0.00     0.248 C 
HETATM   26  N   UNL     1     -40.605  54.146 -52.570  1.00  0.00    -0.323 N 
HETATM   27  H   UNL     1     -39.887  54.736 -52.990  1.00  0.00     0.169 HD
HETATM   28  O   UNL     1     -42.695  54.186 -51.520  1.00  0.00    -0.271 OA
BRANCH  26  29
HETATM   29  C   UNL     1     -40.243  52.780 -52.511  1.00  0.00     0.077 A 
HETATM   30  C   UNL     1     -40.230  52.083 -53.729  1.00  0.00     0.184 A 
HETATM   31  F   UNL     1     -40.550  52.744 -54.854  1.00  0.00    -0.200 F 
HETATM   32  C   UNL     1     -39.879  50.741 -53.791  1.00  0.00     0.195 A 
HETATM   33  F   UNL     1     -39.860  50.105 -54.970  1.00  0.00    -0.199 F 
HETATM   34  C   UNL     1     -39.541  50.074 -52.626  1.00  0.00     0.158 A 
HETATM   35  F   UNL     1     -39.199  48.780 -52.663  1.00  0.00    -0.203 F 
HETATM   36  C   UNL     1     -39.553  50.742 -51.402  1.00  0.00     0.048 A 
HETATM   37  C   UNL     1     -39.902  52.097 -51.342  1.00  0.00     0.036 A 
ENDBRANCH  26  29
ENDBRANCH  24  25
ENDBRANCH   1  24
TORSDOF 8
ENDMDL
MODEL 7
REMARK VINA RESULT:      -7.1      3.938      6.997
REMARK  8 active torsions:
REMARK  status: ('A' for Active; 'I' for Inactive)
REMARK    1  A    between atoms: C_2  and  C_3 
REMARK    2  A    between atoms: C_3  and  N_4 
REMARK    3  A    between atoms: N_4  and  C_6 
REMARK    4  A    between atoms: N_4  and  C_23 
REMARK    5  A    between atoms: C_6  and  C_7 
REMARK       I    between atoms: C_7  and  N_8 
REMARK    6  A    between atoms: N_8  and  C_9 
REMARK    7  A    between atoms: C_23  and  C_24 
REMARK       I    between atoms: C_24  and  N_25 
REMARK    8  A    between atoms: N_25  and  C_26 
ROOT
HETATM    1  N   UNL     1     -42.855  58.830 -53.274  1.00  0.00    -0.055 N 
HETATM    2  H   UNL     1     -42.310  57.953 -53.269  1.00  0.00     0.281 HD
ENDROOT
BRANCH   1   3
HETATM    3  C   UNL     1     -42.166  59.791 -52.331  1.00  0.00     0.235 C 
BRANCH   3   4
HETATM    4  C   UNL     1     -40.857  59.244 -51.765  1.00  0.00     0.023 C 
HETATM    5  C   UNL     1     -40.714  59.414 -50.261  1.00  0.00     0.007 C 
ENDBRANCH   3   4
ENDBRANCH   1   3
BRANCH   1   6
HETATM    6  C   UNL     1     -44.307  58.486 -52.876  1.00  0.00     0.338 C 
BRANCH   6   7
HETATM    7  C   UNL     1     -44.477  58.275 -51.360  1.00  0.00     0.249 C 
HETATM    8  N   UNL     1     -43.822  57.312 -50.667  1.00  0.00    -0.304 N 
HETATM    9  H   UNL     1     -43.935  57.322 -49.659  1.00  0.00     0.171 HD
HETATM   10  O   UNL     1     -45.182  59.065 -50.718  1.00  0.00    -0.271 OA
BRANCH   8  11
HETATM   11  C   UNL     1     -43.106  56.279 -51.186  1.00  0.00     0.174 A 
HETATM   12  S   UNL     1     -41.878  55.708 -50.161  1.00  0.00    -0.050 SA
HETATM   13  C   UNL     1     -41.453  54.535 -51.348  1.00  0.00     0.040 A 
HETATM   14  C   UNL     1     -42.320  54.661 -52.440  1.00  0.00     0.079 A 
HETATM   15  C   UNL     1     -40.433  53.572 -51.308  1.00  0.00     0.061 A 
HETATM   16  N   UNL     1     -43.251  55.693 -52.342  1.00  0.00    -0.223 NA
HETATM   17  C   UNL     1     -42.186  53.761 -53.517  1.00  0.00     0.072 A 
HETATM   18  C   UNL     1     -41.196  52.775 -53.469  1.00  0.00     0.104 A 
HETATM   19  C   UNL     1     -40.311  52.705 -52.394  1.00  0.00     0.103 A 
HETATM   20  O   UNL     1     -41.154  51.904 -54.529  1.00  0.00    -0.346 OA
HETATM   21  O   UNL     1     -39.292  51.789 -52.317  1.00  0.00    -0.346 OA
HETATM   22  C   UNL     1     -39.055  51.149 -53.576  1.00  0.00     0.202 C 
HETATM   23  C   UNL     1     -40.370  50.742 -54.221  1.00  0.00     0.202 C 
ENDBRANCH   8  11
ENDBRANCH   6   7
ENDBRANCH   1   6
BRANCH   1  24
HETATM   24  C   UNL     1     -42.751  59.313 -54.735  1.00  0.00     0.338 C 
BRANCH  24  25
HETATM   25  C   UNL     1     -42.922  58.154 -55.722  1.00  0.00     0.248 C 
HETATM   26  N   UNL     1     -43.434  58.539 -56.943  1.00  0.00    -0.323 N 
HETATM   27  H   UNL     1     -43.657  59.522 -57.096  1.00  0.00     0.169 HD
HETATM   28  O   UNL     1     -42.558  57.029 -55.386  1.00  0.00    -0.271 OA
BRANCH  26  29
HETATM   29  C   UNL     1     -43.654  57.731 -58.083  1.00  0.00     0.077 A 
HETATM   30  C   UNL     1     -44.988  57.397 -58.366  1.00  0.00     0.184 A 
HETATM   31  F   UNL     1     -45.954  57.861 -57.555  1.00  0.00    -0.200 F 
HETATM   32  C   UNL     1     -45.322  56.621 -59.466  1.00  0.00     0.195 A 
HETATM   33  F   UNL     1     -46.605  56.331 -59.720  1.00  0.00    -0.199 F 
HETATM   34  C   UNL     1     -44.317  56.157 -60.299  1.00  0.00     0.158 A 
HETATM   35  F   UNL     1     -44.618  55.406 -61.366  1.00  0.00    -0.203 F 
HETATM   36  C   UNL     1     -42.984  56.468 -60.037  1.00  0.00     0.048 A 
HETATM   37  C   UNL     1     -42.649  57.258 -58.929  1.00  0.00     0.036 A 
ENDBRANCH  26  29
ENDBRANCH  24  25
ENDBRANCH   1  24
TORSDOF 8
ENDMDL
MODEL 8
REMARK VINA RESULT:      -7.1      2.944      4.738
REMARK  8 active torsions:
REMARK  status: ('A' for Active; 'I' for Inactive)
REMARK    1  A    between atoms: C_2  and  C_3 
REMARK    2  A    between atoms: C_3  and  N_4 
REMARK    3  A    between atoms: N_4  and  C_6 
REMARK    4  A    between atoms: N_4  and  C_23 
REMARK    5  A    between atoms: C_6  and  C_7 
REMARK       I    between atoms: C_7  and  N_8 
REMARK    6  A    between atoms: N_8  and  C_9 
REMARK    7  A    between atoms: C_23  and  C_24 
REMARK       I    between atoms: C_24  and  N_25 
REMARK    8  A    between atoms: N_25  and  C_26 
ROOT
HETATM    1  N   UNL     1     -44.005  60.462 -50.229  1.00  0.00    -0.055 N 
HETATM    2  H   UNL     1     -43.967  59.593 -49.671  1.00  0.00     0.281 HD
ENDROOT
BRANCH   1   3
HETATM    3  C   UNL     1     -44.430  61.573 -49.295  1.00  0.00     0.235 C 
BRANCH   3   4
HETATM    4  C   UNL     1     -45.351  61.098 -48.173  1.00  0.00     0.023 C 
HETATM    5  C   UNL     1     -44.731  61.181 -46.787  1.00  0.00     0.007 C 
ENDBRANCH   3   4
ENDBRANCH   1   3
BRANCH   1   6
HETATM    6  C   UNL     1     -44.972  60.223 -51.409  1.00  0.00     0.338 C 
BRANCH   6   7
HETATM    7  C   UNL     1     -44.615  61.059 -52.653  1.00  0.00     0.249 C 
HETATM    8  N   UNL     1     -44.064  60.527 -53.769  1.00  0.00    -0.304 N 
HETATM    9  H   UNL     1     -43.957  61.149 -54.563  1.00  0.00     0.171 HD
HETATM   10  O   UNL     1     -44.914  62.261 -52.675  1.00  0.00    -0.271 OA
BRANCH   8  11
HETATM   11  C   UNL     1     -43.553  59.274 -53.910  1.00  0.00     0.174 A 
HETATM   12  S   UNL     1     -44.720  58.085 -54.232  1.00  0.00    -0.050 SA
HETATM   13  C   UNL     1     -43.475  56.897 -54.284  1.00  0.00     0.040 A 
HETATM   14  C   UNL     1     -42.241  57.524 -54.074  1.00  0.00     0.079 A 
HETATM   15  C   UNL     1     -43.586  55.515 -54.502  1.00  0.00     0.061 A 
HETATM   16  N   UNL     1     -42.307  58.895 -53.831  1.00  0.00    -0.223 NA
HETATM   17  C   UNL     1     -41.068  56.744 -54.126  1.00  0.00     0.072 A 
HETATM   18  C   UNL     1     -41.166  55.373 -54.379  1.00  0.00     0.104 A 
HETATM   19  C   UNL     1     -42.411  54.764 -54.532  1.00  0.00     0.103 A 
HETATM   20  O   UNL     1     -39.982  54.684 -54.462  1.00  0.00    -0.346 OA
HETATM   21  O   UNL     1     -42.569  53.415 -54.735  1.00  0.00    -0.346 OA
HETATM   22  C   UNL     1     -41.364  52.691 -54.459  1.00  0.00     0.202 C 
HETATM   23  C   UNL     1     -40.167  53.398 -55.071  1.00  0.00     0.202 C 
ENDBRANCH   8  11
ENDBRANCH   6   7
ENDBRANCH   1   6
BRANCH   1  24
HETATM   24  C   UNL     1     -42.549  60.655 -50.699  1.00  0.00     0.338 C 
BRANCH  24  25
HETATM   25  C   UNL     1     -41.770  59.336 -50.669  1.00  0.00     0.248 C 
HETATM   26  N   UNL     1     -42.576  58.220 -50.591  1.00  0.00    -0.323 N 
HETATM   27  H   UNL     1     -43.588  58.344 -50.555  1.00  0.00     0.169 HD
HETATM   28  O   UNL     1     -40.545  59.367 -50.766  1.00  0.00    -0.271 OA
BRANCH  26  29
HETATM   29  C   UNL     1     -42.180  56.863 -50.607  1.00  0.00     0.077 A 
HETATM   30  C   UNL     1     -43.183  55.921 -50.885  1.00  0.00     0.184 A 
HETATM   31  F   UNL     1     -44.432  56.359 -51.120  1.00  0.00    -0.200 F 
HETATM   32  C   UNL     1     -42.905  54.562 -50.938  1.00  0.00     0.195 A 
HETATM   33  F   UNL     1     -43.880  53.687 -51.221  1.00  0.00    -0.199 F 
HETATM   34  C   UNL     1     -41.613  54.125 -50.703  1.00  0.00     0.158 A 
HETATM   35  F   UNL     1     -41.323  52.818 -50.749  1.00  0.00    -0.203 F 
HETATM   36  C   UNL     1     -40.600  55.038 -50.418  1.00  0.00     0.048 A 
HETATM   37  C   UNL     1     -40.880  56.410 -50.371  1.00  0.00     0.036 A 
ENDBRANCH  26  29
ENDBRANCH  24  25
ENDBRANCH   1  24
TORSDOF 8
ENDMDL
MODEL 9
REMARK VINA RESULT:      -6.9      2.350      3.430
REMARK  8 active torsions:
REMARK  status: ('A' for Active; 'I' for Inactive)
REMARK    1  A    between atoms: C_2  and  C_3 
REMARK    2  A    between atoms: C_3  and  N_4 
REMARK    3  A    between atoms: N_4  and  C_6 
REMARK    4  A    between atoms: N_4  and  C_23 
REMARK    5  A    between atoms: C_6  and  C_7 
REMARK       I    between atoms: C_7  and  N_8 
REMARK    6  A    between atoms: N_8  and  C_9 
REMARK    7  A    between atoms: C_23  and  C_24 
REMARK       I    between atoms: C_24  and  N_25 
REMARK    8  A    between atoms: N_25  and  C_26 
ROOT
HETATM    1  N   UNL     1     -43.303  56.546 -53.292  1.00  0.00    -0.055 N 
HETATM    2  H   UNL     1     -43.557  55.653 -53.744  1.00  0.00     0.281 HD
ENDROOT
BRANCH   1   3
HETATM    3  C   UNL     1     -44.592  57.211 -52.862  1.00  0.00     0.235 C 
BRANCH   3   4
HETATM    4  C   UNL     1     -44.541  57.757 -51.436  1.00  0.00     0.023 C 
HETATM    5  C   UNL     1     -44.530  59.276 -51.355  1.00  0.00     0.007 C 
ENDBRANCH   3   4
ENDBRANCH   1   3
BRANCH   1   6
HETATM    6  C   UNL     1     -42.476  57.369 -54.303  1.00  0.00     0.338 C 
BRANCH   6   7
HETATM    7  C   UNL     1     -41.607  56.489 -55.221  1.00  0.00     0.249 C 
HETATM    8  N   UNL     1     -41.753  56.452 -56.567  1.00  0.00    -0.304 N 
HETATM    9  H   UNL     1     -41.067  55.912 -57.083  1.00  0.00     0.171 HD
HETATM   10  O   UNL     1     -40.675  55.839 -54.726  1.00  0.00    -0.271 OA
BRANCH   8  11
HETATM   11  C   UNL     1     -42.773  56.985 -57.292  1.00  0.00     0.174 A 
HETATM   12  S   UNL     1     -42.708  58.675 -57.435  1.00  0.00    -0.050 SA
HETATM   13  C   UNL     1     -44.149  58.636 -58.378  1.00  0.00     0.040 A 
HETATM   14  C   UNL     1     -44.553  57.305 -58.532  1.00  0.00     0.079 A 
HETATM   15  C   UNL     1     -44.860  59.706 -58.943  1.00  0.00     0.061 A 
HETATM   16  N   UNL     1     -43.762  56.365 -57.874  1.00  0.00    -0.223 NA
HETATM   17  C   UNL     1     -45.690  57.030 -59.318  1.00  0.00     0.072 A 
HETATM   18  C   UNL     1     -46.384  58.087 -59.916  1.00  0.00     0.104 A 
HETATM   19  C   UNL     1     -45.991  59.408 -59.702  1.00  0.00     0.103 A 
HETATM   20  O   UNL     1     -47.453  57.744 -60.705  1.00  0.00    -0.346 OA
HETATM   21  O   UNL     1     -46.662  60.486 -60.225  1.00  0.00    -0.346 OA
HETATM   22  C   UNL     1     -47.951  60.117 -60.728  1.00  0.00     0.202 C 
HETATM   23  C   UNL     1     -47.858  58.837 -61.541  1.00  0.00     0.202 C 
ENDBRANCH   8  11
ENDBRANCH   6   7
ENDBRANCH   1   6
BRANCH   1  24
HETATM   24  C   UNL     1     -42.467  56.111 -52.071  1.00  0.00     0.338 C 
BRANCH  24  25
HETATM   25  C   UNL     1     -42.289  54.589 -52.028  1.00  0.00     0.248 C 
HETATM   26  N   UNL     1     -41.025  54.171 -52.384  1.00  0.00    -0.323 N 
HETATM   27  H   UNL     1     -40.329  54.869 -52.643  1.00  0.00     0.169 HD
HETATM   28  O   UNL     1     -43.227  53.893 -51.646  1.00  0.00    -0.271 OA
BRANCH  26  29
HETATM   29  C   UNL     1     -40.519  52.850 -52.389  1.00  0.00     0.077 A 
HETATM   30  C   UNL     1     -40.454  52.209 -53.636  1.00  0.00     0.184 A 
HETATM   31  F   UNL     1     -40.861  52.880 -54.727  1.00  0.00    -0.200 F 
HETATM   32  C   UNL     1     -39.963  50.917 -53.761  1.00  0.00     0.195 A 
HETATM   33  F   UNL     1     -39.898  50.337 -54.967  1.00  0.00    -0.199 F 
HETATM   34  C   UNL     1     -39.538  50.241 -52.630  1.00  0.00     0.158 A 
HETATM   35  F   UNL     1     -39.061  48.994 -52.728  1.00  0.00    -0.203 F 
HETATM   36  C   UNL     1     -39.599  50.851 -51.379  1.00  0.00     0.048 A 
HETATM   37  C   UNL     1     -40.089  52.158 -51.255  1.00  0.00     0.036 A 
ENDBRANCH  26  29
ENDBRANCH  24  25
ENDBRANCH   1  24
TORSDOF 8
ENDMDL
MODEL 10
REMARK VINA RESULT:      -6.8      3.242      4.443
REMARK  8 active torsions:
REMARK  status: ('A' for Active; 'I' for Inactive)
REMARK    1  A    between atoms: C_2  and  C_3 
REMARK    2  A    between atoms: C_3  and  N_4 
REMARK    3  A    between atoms: N_4  and  C_6 
REMARK    4  A    between atoms: N_4  and  C_23 
REMARK    5  A    between atoms: C_6  and  C_7 
REMARK       I    between atoms: C_7  and  N_8 
REMARK    6  A    between atoms: N_8  and  C_9 
REMARK    7  A    between atoms: C_23  and  C_24 
REMARK       I    between atoms: C_24  and  N_25 
REMARK    8  A    between atoms: N_25  and  C_26 
ROOT
HETATM    1  N   UNL     1     -42.974  56.890 -54.530  1.00  0.00    -0.055 N 
HETATM    2  H   UNL     1     -43.736  56.197 -54.464  1.00  0.00     0.281 HD
ENDROOT
BRANCH   1   3
HETATM    3  C   UNL     1     -43.584  58.250 -54.271  1.00  0.00     0.235 C 
BRANCH   3   4
HETATM    4  C   UNL     1     -44.738  58.582 -55.216  1.00  0.00     0.023 C 
HETATM    5  C   UNL     1     -45.321  59.972 -55.017  1.00  0.00     0.007 C 
ENDBRANCH   3   4
ENDBRANCH   1   3
BRANCH   1   6
HETATM    6  C   UNL     1     -42.321  56.745 -55.922  1.00  0.00     0.338 C 
BRANCH   6   7
HETATM    7  C   UNL     1     -42.852  55.531 -56.707  1.00  0.00     0.249 C 
HETATM    8  N   UNL     1     -43.116  55.566 -58.035  1.00  0.00    -0.304 N 
HETATM    9  H   UNL     1     -43.371  54.686 -58.470  1.00  0.00     0.171 HD
HETATM   10  O   UNL     1     -42.974  54.445 -56.125  1.00  0.00    -0.271 OA
BRANCH   8  11
HETATM   11  C   UNL     1     -43.165  56.669 -58.829  1.00  0.00     0.174 A 
HETATM   12  S   UNL     1     -44.726  57.305 -59.030  1.00  0.00    -0.050 SA
HETATM   13  C   UNL     1     -44.076  58.545 -60.033  1.00  0.00     0.040 A 
HETATM   14  C   UNL     1     -42.688  58.384 -60.110  1.00  0.00     0.079 A 
HETATM   15  C   UNL     1     -44.748  59.585 -60.693  1.00  0.00     0.061 A 
HETATM   16  N   UNL     1     -42.181  57.278 -59.431  1.00  0.00    -0.223 NA
HETATM   17  C   UNL     1     -41.937  59.325 -60.843  1.00  0.00     0.072 A 
HETATM   18  C   UNL     1     -42.594  60.386 -61.474  1.00  0.00     0.104 A 
HETATM   19  C   UNL     1     -43.984  60.493 -61.426  1.00  0.00     0.103 A 
HETATM   20  O   UNL     1     -41.797  61.290 -62.131  1.00  0.00    -0.346 OA
HETATM   21  O   UNL     1     -44.684  61.486 -62.066  1.00  0.00    -0.346 OA
HETATM   22  C   UNL     1     -43.871  62.182 -63.018  1.00  0.00     0.202 C 
HETATM   23  C   UNL     1     -42.510  62.501 -62.422  1.00  0.00     0.202 C 
ENDBRANCH   8  11
ENDBRANCH   6   7
ENDBRANCH   1   6
BRANCH   1  24
HETATM   24  C   UNL     1     -42.015  56.485 -53.392  1.00  0.00     0.338 C 
BRANCH  24  25
HETATM   25  C   UNL     1     -41.995  54.966 -53.190  1.00  0.00     0.248 C 
HETATM   26  N   UNL     1     -40.811  54.373 -53.576  1.00  0.00    -0.323 N 
HETATM   27  H   UNL     1     -40.068  54.958 -53.955  1.00  0.00     0.169 HD
HETATM   28  O   UNL     1     -42.970  54.422 -52.675  1.00  0.00    -0.271 OA
BRANCH  26  29
HETATM   29  C   UNL     1     -40.449  53.010 -53.465  1.00  0.00     0.077 A 
HETATM   30  C   UNL     1     -40.057  52.568 -52.192  1.00  0.00     0.184 A 
HETATM   31  F   UNL     1     -40.057  53.448 -51.176  1.00  0.00    -0.200 F 
HETATM   32  C   UNL     1     -39.693  51.248 -51.965  1.00  0.00     0.195 A 
HETATM   33  F   UNL     1     -39.338  50.851 -50.736  1.00  0.00    -0.199 F 
HETATM   34  C   UNL     1     -39.707  50.350 -53.019  1.00  0.00     0.158 A 
HETATM   35  F   UNL     1     -39.359  49.072 -52.822  1.00  0.00    -0.203 F 
HETATM   36  C   UNL     1     -40.085  50.765 -54.295  1.00  0.00     0.048 A 
HETATM   37  C   UNL     1     -40.459  52.097 -54.521  1.00  0.00     0.036 A 
ENDBRANCH  26  29
ENDBRANCH  24  25
ENDBRANCH   1  24
TORSDOF 8
ENDMDL
