MODEL 1
REMARK VINA RESULT:      -8.4      0.000      0.000
REMARK  5 active torsions:
REMARK  status: ('A' for Active; 'I' for Inactive)
REMARK    1  A    between atoms: C_4  and  N_5 
REMARK    2  A    between atoms: N_5  and  C_6 
REMARK    3  A    between atoms: C_6  and  C_7 
REMARK       I    between atoms: C_7  and  N_8 
REMARK    4  A    between atoms: N_8  and  N_9 
REMARK    5  A    between atoms: C_10  and  C_11 
ROOT
HETATM    1  C   UNL     1     -42.411  56.477 -55.713  1.00  0.00     0.250 C 
HETATM    2  N   UNL     1     -41.910  55.187 -55.860  1.00  0.00    -0.246 N 
HETATM    3  O   UNL     1     -42.745  57.016 -54.661  1.00  0.00    -0.270 OA
HETATM    4  H   UNL     1     -41.423  54.985 -56.732  1.00  0.00     0.192 HD
ENDROOT
BRANCH   2   5
HETATM    5  N   UNL     1     -41.648  54.285 -54.856  1.00  0.00    -0.184 NA
HETATM    6  C   UNL     1     -40.655  54.496 -54.053  1.00  0.00     0.152 C 
BRANCH   6   7
HETATM    7  C   UNL     1     -40.357  53.525 -53.017  1.00  0.00     0.011 A 
HETATM    8  C   UNL     1     -40.092  52.128 -53.200  1.00  0.00     0.004 A 
HETATM    9  C   UNL     1     -39.853  51.579 -51.940  1.00  0.00     0.043 A 
HETATM   10  C   UNL     1     -40.043  51.275 -54.324  1.00  0.00     0.014 A 
HETATM   11  C   UNL     1     -39.564  50.222 -51.747  1.00  0.00     0.030 A 
HETATM   12  N   UNL     1     -39.967  52.599 -51.026  1.00  0.00    -0.364 N 
HETATM   13  C   UNL     1     -39.523  49.400 -52.876  1.00  0.00     0.002 A 
HETATM   14  C   UNL     1     -39.759  49.915 -54.148  1.00  0.00     0.001 A 
HETATM   15  H   UNL     1     -39.845  52.492 -50.028  1.00  0.00     0.165 HD
HETATM   16  C   UNL     1     -40.276  53.772 -51.660  1.00  0.00     0.102 A 
ENDBRANCH   6   7
ENDBRANCH   2   5
BRANCH   1  17
HETATM   17  C   UNL     1     -42.507  57.211 -57.053  1.00  0.00     0.197 C 
BRANCH  17  18
HETATM   18  N   UNL     1     -42.506  56.240 -58.158  1.00  0.00    -0.284 NA
HETATM   19  H   UNL     1     -41.709  56.395 -58.777  1.00  0.00     0.128 HD
BRANCH  18  20
HETATM   20  C   UNL     1     -43.686  56.151 -58.922  1.00  0.00     0.009 A 
HETATM   21  C   UNL     1     -44.705  57.113 -58.878  1.00  0.00     0.030 A 
HETATM   22  C   UNL     1     -45.895  56.956 -59.610  1.00  0.00    -0.060 A 
HETATM   23  C   UNL     1     -46.949  58.022 -59.592  1.00  0.00     0.048 C 
HETATM   24  C   UNL     1     -46.069  55.811 -60.392  1.00  0.00     0.007 A 
HETATM   25  C   UNL     1     -45.091  54.821 -60.406  1.00  0.00     0.002 A 
HETATM   26  C   UNL     1     -43.920  54.984 -59.661  1.00  0.00     0.023 A 
ENDBRANCH  18  20
ENDBRANCH  17  18
ENDBRANCH   1  17
TORSDOF 5
ENDMDL
MODEL 2
REMARK VINA RESULT:      -8.1      2.449      3.255
REMARK  5 active torsions:
REMARK  status: ('A' for Active; 'I' for Inactive)
REMARK    1  A    between atoms: C_4  and  N_5 
REMARK    2  A    between atoms: N_5  and  C_6 
REMARK    3  A    between atoms: C_6  and  C_7 
REMARK       I    between atoms: C_7  and  N_8 
REMARK    4  A    between atoms: N_8  and  N_9 
REMARK    5  A    between atoms: C_10  and  C_11 
ROOT
HETATM    1  C   UNL     1     -41.538  58.816 -54.364  1.00  0.00     0.250 C 
HETATM    2  N   UNL     1     -41.870  57.468 -54.256  1.00  0.00    -0.246 N 
HETATM    3  O   UNL     1     -40.657  59.404 -53.741  1.00  0.00    -0.270 OA
HETATM    4  H   UNL     1     -42.414  57.072 -55.021  1.00  0.00     0.192 HD
ENDROOT
BRANCH   2   5
HETATM    5  N   UNL     1     -41.250  56.527 -53.469  1.00  0.00    -0.184 NA
HETATM    6  C   UNL     1     -41.526  55.273 -53.639  1.00  0.00     0.152 C 
BRANCH   6   7
HETATM    7  C   UNL     1     -40.900  54.283 -52.784  1.00  0.00     0.011 A 
HETATM    8  C   UNL     1     -40.538  52.943 -53.145  1.00  0.00     0.004 A 
HETATM    9  C   UNL     1     -39.962  52.349 -52.021  1.00  0.00     0.043 A 
HETATM   10  C   UNL     1     -40.656  52.175 -54.322  1.00  0.00     0.014 A 
HETATM   11  C   UNL     1     -39.495  51.029 -52.017  1.00  0.00     0.030 A 
HETATM   12  N   UNL     1     -39.972  53.288 -51.017  1.00  0.00    -0.364 N 
HETATM   13  C   UNL     1     -39.626  50.290 -53.196  1.00  0.00     0.002 A 
HETATM   14  C   UNL     1     -40.198  50.852 -54.335  1.00  0.00     0.001 A 
HETATM   15  H   UNL     1     -39.615  53.134 -50.084  1.00  0.00     0.165 HD
HETATM   16  C   UNL     1     -40.539  54.452 -51.461  1.00  0.00     0.102 A 
ENDBRANCH   6   7
ENDBRANCH   2   5
BRANCH   1  17
HETATM   17  C   UNL     1     -42.410  59.541 -55.392  1.00  0.00     0.197 C 
BRANCH  17  18
HETATM   18  N   UNL     1     -41.561  60.170 -56.415  1.00  0.00    -0.284 NA
HETATM   19  H   UNL     1     -41.601  61.188 -56.343  1.00  0.00     0.128 HD
BRANCH  18  20
HETATM   20  C   UNL     1     -41.788  59.782 -57.750  1.00  0.00     0.009 A 
HETATM   21  C   UNL     1     -41.980  58.450 -58.142  1.00  0.00     0.030 A 
HETATM   22  C   UNL     1     -42.143  58.099 -59.493  1.00  0.00    -0.060 A 
HETATM   23  C   UNL     1     -42.402  56.674 -59.886  1.00  0.00     0.048 C 
HETATM   24  C   UNL     1     -42.103  59.099 -60.468  1.00  0.00     0.007 A 
HETATM   25  C   UNL     1     -41.861  60.420 -60.102  1.00  0.00     0.002 A 
HETATM   26  C   UNL     1     -41.686  60.752 -58.756  1.00  0.00     0.023 A 
ENDBRANCH  18  20
ENDBRANCH  17  18
ENDBRANCH   1  17
TORSDOF 5
ENDMDL
MODEL 3
REMARK VINA RESULT:      -8.0      2.359      3.011
REMARK  5 active torsions:
REMARK  status: ('A' for Active; 'I' for Inactive)
REMARK    1  A    between atoms: C_4  and  N_5 
REMARK    2  A    between atoms: N_5  and  C_6 
REMARK    3  A    between atoms: C_6  and  C_7 
REMARK       I    between atoms: C_7  and  N_8 
REMARK    4  A    between atoms: N_8  and  N_9 
REMARK    5  A    between atoms: C_10  and  C_11 
ROOT
HETATM    1  C   UNL     1     -42.548  55.945 -55.996  1.00  0.00     0.250 C 
HETATM    2  N   UNL     1     -42.001  56.182 -54.738  1.00  0.00    -0.246 N 
HETATM    3  O   UNL     1     -42.840  54.850 -56.472  1.00  0.00    -0.270 OA
HETATM    4  H   UNL     1     -42.077  57.134 -54.382  1.00  0.00     0.192 HD
ENDROOT
BRANCH   2   5
HETATM    5  N   UNL     1     -41.725  55.246 -53.770  1.00  0.00    -0.184 NA
HETATM    6  C   UNL     1     -40.623  54.570 -53.834  1.00  0.00     0.152 C 
BRANCH   6   7
HETATM    7  C   UNL     1     -40.348  53.557 -52.833  1.00  0.00     0.011 A 
HETATM    8  C   UNL     1     -40.087  52.167 -53.067  1.00  0.00     0.004 A 
HETATM    9  C   UNL     1     -39.873  51.566 -51.826  1.00  0.00     0.043 A 
HETATM   10  C   UNL     1     -40.023  51.359 -54.223  1.00  0.00     0.014 A 
HETATM   11  C   UNL     1     -39.594  50.201 -51.682  1.00  0.00     0.030 A 
HETATM   12  N   UNL     1     -39.998  52.550 -50.874  1.00  0.00    -0.364 N 
HETATM   13  C   UNL     1     -39.538  49.425 -52.842  1.00  0.00     0.002 A 
HETATM   14  C   UNL     1     -39.749  49.992 -54.097  1.00  0.00     0.001 A 
HETATM   15  H   UNL     1     -39.894  52.402 -49.880  1.00  0.00     0.165 HD
HETATM   16  C   UNL     1     -40.290  53.749 -51.466  1.00  0.00     0.102 A 
ENDBRANCH   6   7
ENDBRANCH   2   5
BRANCH   1  17
HETATM   17  C   UNL     1     -42.776  57.242 -56.776  1.00  0.00     0.197 C 
BRANCH  17  18
HETATM   18  N   UNL     1     -42.168  57.138 -58.111  1.00  0.00    -0.284 NA
HETATM   19  H   UNL     1     -41.288  56.621 -58.069  1.00  0.00     0.128 HD
BRANCH  18  20
HETATM   20  C   UNL     1     -41.973  58.344 -58.812  1.00  0.00     0.009 A 
HETATM   21  C   UNL     1     -41.799  59.583 -58.179  1.00  0.00     0.030 A 
HETATM   22  C   UNL     1     -41.669  60.772 -58.917  1.00  0.00    -0.060 A 
HETATM   23  C   UNL     1     -41.429  62.080 -58.221  1.00  0.00     0.048 C 
HETATM   24  C   UNL     1     -41.724  60.720 -60.312  1.00  0.00     0.007 A 
HETATM   25  C   UNL     1     -41.949  59.507 -60.956  1.00  0.00     0.002 A 
HETATM   26  C   UNL     1     -42.092  58.335 -60.209  1.00  0.00     0.023 A 
ENDBRANCH  18  20
ENDBRANCH  17  18
ENDBRANCH   1  17
TORSDOF 5
ENDMDL
MODEL 4
REMARK VINA RESULT:      -8.0      1.384      1.885
REMARK  5 active torsions:
REMARK  status: ('A' for Active; 'I' for Inactive)
REMARK    1  A    between atoms: C_4  and  N_5 
REMARK    2  A    between atoms: N_5  and  C_6 
REMARK    3  A    between atoms: C_6  and  C_7 
REMARK       I    between atoms: C_7  and  N_8 
REMARK    4  A    between atoms: N_8  and  N_9 
REMARK    5  A    between atoms: C_10  and  C_11 
ROOT
HETATM    1  C   UNL     1     -42.796  57.322 -54.510  1.00  0.00     0.250 C 
HETATM    2  N   UNL     1     -41.618  56.583 -54.581  1.00  0.00    -0.246 N 
HETATM    3  O   UNL     1     -43.631  57.282 -53.609  1.00  0.00    -0.270 OA
HETATM    4  H   UNL     1     -40.907  56.923 -55.227  1.00  0.00     0.192 HD
ENDROOT
BRANCH   2   5
HETATM    5  N   UNL     1     -41.140  55.701 -53.642  1.00  0.00    -0.184 NA
HETATM    6  C   UNL     1     -41.012  54.451 -53.950  1.00  0.00     0.152 C 
BRANCH   6   7
HETATM    7  C   UNL     1     -40.542  53.514 -52.947  1.00  0.00     0.011 A 
HETATM    8  C   UNL     1     -40.228  52.129 -53.146  1.00  0.00     0.004 A 
HETATM    9  C   UNL     1     -39.811  51.614 -51.918  1.00  0.00     0.043 A 
HETATM   10  C   UNL     1     -40.270  51.260 -54.257  1.00  0.00     0.014 A 
HETATM   11  C   UNL     1     -39.431  50.277 -51.746  1.00  0.00     0.030 A 
HETATM   12  N   UNL     1     -39.868  52.643 -51.007  1.00  0.00    -0.364 N 
HETATM   13  C   UNL     1     -39.483  49.439 -52.862  1.00  0.00     0.002 A 
HETATM   14  C   UNL     1     -39.897  49.920 -54.102  1.00  0.00     0.001 A 
HETATM   15  H   UNL     1     -39.622  52.558 -50.031  1.00  0.00     0.165 HD
HETATM   16  C   UNL     1     -40.311  53.787 -51.612  1.00  0.00     0.102 A 
ENDBRANCH   6   7
ENDBRANCH   2   5
BRANCH   1  17
HETATM   17  C   UNL     1     -42.965  58.251 -55.715  1.00  0.00     0.197 C 
BRANCH  17  18
HETATM   18  N   UNL     1     -42.111  57.794 -56.823  1.00  0.00    -0.284 NA
HETATM   19  H   UNL     1     -41.404  58.496 -57.048  1.00  0.00     0.128 HD
BRANCH  18  20
HETATM   20  C   UNL     1     -42.768  57.391 -58.001  1.00  0.00     0.009 A 
HETATM   21  C   UNL     1     -43.275  56.098 -58.196  1.00  0.00     0.030 A 
HETATM   22  C   UNL     1     -43.870  55.719 -59.411  1.00  0.00    -0.060 A 
HETATM   23  C   UNL     1     -44.454  54.347 -59.580  1.00  0.00     0.048 C 
HETATM   24  C   UNL     1     -43.951  56.648 -60.452  1.00  0.00     0.007 A 
HETATM   25  C   UNL     1     -43.407  57.920 -60.295  1.00  0.00     0.002 A 
HETATM   26  C   UNL     1     -42.804  58.277 -59.086  1.00  0.00     0.023 A 
ENDBRANCH  18  20
ENDBRANCH  17  18
ENDBRANCH   1  17
TORSDOF 5
ENDMDL
MODEL 5
REMARK VINA RESULT:      -7.9      1.441      8.456
REMARK  5 active torsions:
REMARK  status: ('A' for Active; 'I' for Inactive)
REMARK    1  A    between atoms: C_4  and  N_5 
REMARK    2  A    between atoms: N_5  and  C_6 
REMARK    3  A    between atoms: C_6  and  C_7 
REMARK       I    between atoms: C_7  and  N_8 
REMARK    4  A    between atoms: N_8  and  N_9 
REMARK    5  A    between atoms: C_10  and  C_11 
ROOT
HETATM    1  C   UNL     1     -42.529  55.283 -52.650  1.00  0.00     0.250 C 
HETATM    2  N   UNL     1     -42.555  54.831 -53.966  1.00  0.00    -0.246 N 
HETATM    3  O   UNL     1     -42.909  56.379 -52.245  1.00  0.00    -0.270 OA
HETATM    4  H   UNL     1     -42.476  53.825 -54.103  1.00  0.00     0.192 HD
ENDROOT
BRANCH   2   5
HETATM    5  N   UNL     1     -43.050  55.503 -55.059  1.00  0.00    -0.184 NA
HETATM    6  C   UNL     1     -42.236  55.906 -55.981  1.00  0.00     0.152 C 
BRANCH   6   7
HETATM    7  C   UNL     1     -42.754  56.647 -57.115  1.00  0.00     0.011 A 
HETATM    8  C   UNL     1     -43.425  56.105 -58.261  1.00  0.00     0.004 A 
HETATM    9  C   UNL     1     -43.753  57.173 -59.098  1.00  0.00     0.043 A 
HETATM   10  C   UNL     1     -43.775  54.801 -58.670  1.00  0.00     0.014 A 
HETATM   11  C   UNL     1     -44.416  57.003 -60.319  1.00  0.00     0.030 A 
HETATM   12  N   UNL     1     -43.301  58.319 -58.487  1.00  0.00    -0.364 N 
HETATM   13  C   UNL     1     -44.751  55.701 -60.700  1.00  0.00     0.002 A 
HETATM   14  C   UNL     1     -44.436  54.613 -59.890  1.00  0.00     0.001 A 
HETATM   15  H   UNL     1     -43.401  59.249 -58.868  1.00  0.00     0.165 HD
HETATM   16  C   UNL     1     -42.694  58.016 -57.299  1.00  0.00     0.102 A 
ENDBRANCH   6   7
ENDBRANCH   2   5
BRANCH   1  17
HETATM   17  C   UNL     1     -41.962  54.231 -51.694  1.00  0.00     0.197 C 
BRANCH  17  18
HETATM   18  N   UNL     1     -40.557  53.952 -52.030  1.00  0.00    -0.284 NA
HETATM   19  H   UNL     1     -40.287  54.438 -52.887  1.00  0.00     0.128 HD
BRANCH  18  20
HETATM   20  C   UNL     1     -40.187  52.596 -52.120  1.00  0.00     0.009 A 
HETATM   21  C   UNL     1     -40.082  51.905 -53.335  1.00  0.00     0.030 A 
HETATM   22  C   UNL     1     -39.769  50.536 -53.377  1.00  0.00    -0.060 A 
HETATM   23  C   UNL     1     -39.608  49.828 -54.690  1.00  0.00     0.048 C 
HETATM   24  C   UNL     1     -39.565  49.846 -52.179  1.00  0.00     0.007 A 
HETATM   25  C   UNL     1     -39.715  50.502 -50.961  1.00  0.00     0.002 A 
HETATM   26  C   UNL     1     -40.043  51.860 -50.936  1.00  0.00     0.023 A 
ENDBRANCH  18  20
ENDBRANCH  17  18
ENDBRANCH   1  17
TORSDOF 5
ENDMDL
MODEL 6
REMARK VINA RESULT:      -7.8      1.382      9.244
REMARK  5 active torsions:
REMARK  status: ('A' for Active; 'I' for Inactive)
REMARK    1  A    between atoms: C_4  and  N_5 
REMARK    2  A    between atoms: N_5  and  C_6 
REMARK    3  A    between atoms: C_6  and  C_7 
REMARK       I    between atoms: C_7  and  N_8 
REMARK    4  A    between atoms: N_8  and  N_9 
REMARK    5  A    between atoms: C_10  and  C_11 
ROOT
HETATM    1  C   UNL     1     -42.197  55.385 -55.534  1.00  0.00     0.250 C 
HETATM    2  N   UNL     1     -42.060  56.003 -56.774  1.00  0.00    -0.246 N 
HETATM    3  O   UNL     1     -43.250  55.055 -54.994  1.00  0.00    -0.270 OA
HETATM    4  H   UNL     1     -41.137  55.957 -57.205  1.00  0.00     0.192 HD
ENDROOT
BRANCH   2   5
HETATM    5  N   UNL     1     -43.068  56.323 -57.651  1.00  0.00    -0.184 NA
HETATM    6  C   UNL     1     -43.425  55.464 -58.551  1.00  0.00     0.152 C 
BRANCH   6   7
HETATM    7  C   UNL     1     -44.464  55.816 -59.501  1.00  0.00     0.011 A 
HETATM    8  C   UNL     1     -45.391  56.905 -59.395  1.00  0.00     0.004 A 
HETATM    9  C   UNL     1     -46.205  56.873 -60.528  1.00  0.00     0.043 A 
HETATM   10  C   UNL     1     -45.620  57.911 -58.433  1.00  0.00     0.014 A 
HETATM   11  C   UNL     1     -47.233  57.798 -60.749  1.00  0.00     0.030 A 
HETATM   12  N   UNL     1     -45.791  55.808 -61.293  1.00  0.00    -0.364 N 
HETATM   13  C   UNL     1     -47.439  58.783 -59.780  1.00  0.00     0.002 A 
HETATM   14  C   UNL     1     -46.646  58.842 -58.636  1.00  0.00     0.001 A 
HETATM   15  H   UNL     1     -46.204  55.542 -62.176  1.00  0.00     0.165 HD
HETATM   16  C   UNL     1     -44.750  55.162 -60.684  1.00  0.00     0.102 A 
ENDBRANCH   6   7
ENDBRANCH   2   5
BRANCH   1  17
HETATM   17  C   UNL     1     -40.842  55.128 -54.868  1.00  0.00     0.197 C 
BRANCH  17  18
HETATM   18  N   UNL     1     -41.041  54.701 -53.474  1.00  0.00    -0.284 NA
HETATM   19  H   UNL     1     -40.705  55.415 -52.826  1.00  0.00     0.128 HD
BRANCH  18  20
HETATM   20  C   UNL     1     -40.508  53.448 -53.115  1.00  0.00     0.009 A 
HETATM   21  C   UNL     1     -40.399  52.374 -54.010  1.00  0.00     0.030 A 
HETATM   22  C   UNL     1     -39.917  51.120 -53.595  1.00  0.00    -0.060 A 
HETATM   23  C   UNL     1     -39.757  50.000 -54.580  1.00  0.00     0.048 C 
HETATM   24  C   UNL     1     -39.548  50.938 -52.260  1.00  0.00     0.007 A 
HETATM   25  C   UNL     1     -39.698  51.978 -51.347  1.00  0.00     0.002 A 
HETATM   26  C   UNL     1     -40.194  53.214 -51.770  1.00  0.00     0.023 A 
ENDBRANCH  18  20
ENDBRANCH  17  18
ENDBRANCH   1  17
TORSDOF 5
ENDMDL
MODEL 7
REMARK VINA RESULT:      -7.7      1.439      1.769
REMARK  5 active torsions:
REMARK  status: ('A' for Active; 'I' for Inactive)
REMARK    1  A    between atoms: C_4  and  N_5 
REMARK    2  A    between atoms: N_5  and  C_6 
REMARK    3  A    between atoms: C_6  and  C_7 
REMARK       I    between atoms: C_7  and  N_8 
REMARK    4  A    between atoms: N_8  and  N_9 
REMARK    5  A    between atoms: C_10  and  C_11 
ROOT
HETATM    1  C   UNL     1     -42.926  58.133 -56.121  1.00  0.00     0.250 C 
HETATM    2  N   UNL     1     -43.286  56.899 -55.585  1.00  0.00    -0.246 N 
HETATM    3  O   UNL     1     -42.089  58.910 -55.668  1.00  0.00    -0.270 OA
HETATM    4  H   UNL     1     -43.773  56.257 -56.209  1.00  0.00     0.192 HD
ENDROOT
BRANCH   2   5
HETATM    5  N   UNL     1     -42.747  56.294 -54.475  1.00  0.00    -0.184 NA
HETATM    6  C   UNL     1     -41.833  55.390 -54.625  1.00  0.00     0.152 C 
BRANCH   6   7
HETATM    7  C   UNL     1     -41.290  54.724 -53.455  1.00  0.00     0.011 A 
HETATM    8  C   UNL     1     -40.706  53.416 -53.405  1.00  0.00     0.004 A 
HETATM    9  C   UNL     1     -40.315  53.182 -52.086  1.00  0.00     0.043 A 
HETATM   10  C   UNL     1     -40.482  52.402 -54.361  1.00  0.00     0.014 A 
HETATM   11  C   UNL     1     -39.709  51.988 -51.676  1.00  0.00     0.030 A 
HETATM   12  N   UNL     1     -40.647  54.302 -51.361  1.00  0.00    -0.364 N 
HETATM   13  C   UNL     1     -39.500  51.001 -52.642  1.00  0.00     0.002 A 
HETATM   14  C   UNL     1     -39.880  51.201 -53.966  1.00  0.00     0.001 A 
HETATM   15  H   UNL     1     -40.480  54.414 -50.371  1.00  0.00     0.165 HD
HETATM   16  C   UNL     1     -41.239  55.233 -52.171  1.00  0.00     0.102 A 
ENDBRANCH   6   7
ENDBRANCH   2   5
BRANCH   1  17
HETATM   17  C   UNL     1     -43.701  58.449 -57.403  1.00  0.00     0.197 C 
BRANCH  17  18
HETATM   18  N   UNL     1     -44.894  57.593 -57.492  1.00  0.00    -0.284 NA
HETATM   19  H   UNL     1     -44.915  56.920 -56.724  1.00  0.00     0.128 HD
BRANCH  18  20
HETATM   20  C   UNL     1     -45.101  56.923 -58.713  1.00  0.00     0.009 A 
HETATM   21  C   UNL     1     -46.274  57.049 -59.471  1.00  0.00     0.030 A 
HETATM   22  C   UNL     1     -46.465  56.315 -60.654  1.00  0.00    -0.060 A 
HETATM   23  C   UNL     1     -47.704  56.506 -61.479  1.00  0.00     0.048 C 
HETATM   24  C   UNL     1     -45.469  55.433 -61.080  1.00  0.00     0.007 A 
HETATM   25  C   UNL     1     -44.321  55.256 -60.313  1.00  0.00     0.002 A 
HETATM   26  C   UNL     1     -44.151  55.981 -59.130  1.00  0.00     0.023 A 
ENDBRANCH  18  20
ENDBRANCH  17  18
ENDBRANCH   1  17
TORSDOF 5
ENDMDL
MODEL 8
REMARK VINA RESULT:      -7.6      2.198      3.017
REMARK  5 active torsions:
REMARK  status: ('A' for Active; 'I' for Inactive)
REMARK    1  A    between atoms: C_4  and  N_5 
REMARK    2  A    between atoms: N_5  and  C_6 
REMARK    3  A    between atoms: C_6  and  C_7 
REMARK       I    between atoms: C_7  and  N_8 
REMARK    4  A    between atoms: N_8  and  N_9 
REMARK    5  A    between atoms: C_10  and  C_11 
ROOT
HETATM    1  C   UNL     1     -44.335  57.163 -53.484  1.00  0.00     0.250 C 
HETATM    2  N   UNL     1     -43.884  55.931 -53.952  1.00  0.00    -0.246 N 
HETATM    3  O   UNL     1     -44.208  57.602 -52.344  1.00  0.00    -0.270 OA
HETATM    4  H   UNL     1     -43.812  55.829 -54.963  1.00  0.00     0.192 HD
ENDROOT
BRANCH   2   5
HETATM    5  N   UNL     1     -43.172  54.992 -53.246  1.00  0.00    -0.184 NA
HETATM    6  C   UNL     1     -41.891  55.128 -53.118  1.00  0.00     0.152 C 
BRANCH   6   7
HETATM    7  C   UNL     1     -41.134  54.116 -52.404  1.00  0.00     0.011 A 
HETATM    8  C   UNL     1     -40.681  52.858 -52.922  1.00  0.00     0.004 A 
HETATM    9  C   UNL     1     -39.992  52.208 -51.897  1.00  0.00     0.043 A 
HETATM   10  C   UNL     1     -40.803  52.205 -54.167  1.00  0.00     0.014 A 
HETATM   11  C   UNL     1     -39.417  50.941 -52.056  1.00  0.00     0.030 A 
HETATM   12  N   UNL     1     -40.023  53.036 -50.800  1.00  0.00    -0.364 N 
HETATM   13  C   UNL     1     -39.553  50.317 -53.298  1.00  0.00     0.002 A 
HETATM   14  C   UNL     1     -40.236  50.937 -54.342  1.00  0.00     0.001 A 
HETATM   15  H   UNL     1     -39.601  52.821 -49.907  1.00  0.00     0.165 HD
HETATM   16  C   UNL     1     -40.711  54.183 -51.090  1.00  0.00     0.102 A 
ENDBRANCH   6   7
ENDBRANCH   2   5
BRANCH   1  17
HETATM   17  C   UNL     1     -45.036  57.971 -54.579  1.00  0.00     0.197 C 
BRANCH  17  18
HETATM   18  N   UNL     1     -44.914  57.276 -55.871  1.00  0.00    -0.284 NA
HETATM   19  H   UNL     1     -44.755  56.277 -55.731  1.00  0.00     0.128 HD
BRANCH  18  20
HETATM   20  C   UNL     1     -43.960  57.785 -56.773  1.00  0.00     0.009 A 
HETATM   21  C   UNL     1     -43.534  57.091 -57.915  1.00  0.00     0.030 A 
HETATM   22  C   UNL     1     -42.534  57.608 -58.757  1.00  0.00    -0.060 A 
HETATM   23  C   UNL     1     -42.132  56.875 -60.003  1.00  0.00     0.048 C 
HETATM   24  C   UNL     1     -41.946  58.836 -58.445  1.00  0.00     0.007 A 
HETATM   25  C   UNL     1     -42.319  59.514 -57.288  1.00  0.00     0.002 A 
HETATM   26  C   UNL     1     -43.303  58.980 -56.452  1.00  0.00     0.023 A 
ENDBRANCH  18  20
ENDBRANCH  17  18
ENDBRANCH   1  17
TORSDOF 5
ENDMDL
MODEL 9
REMARK VINA RESULT:      -7.5      1.952      8.943
REMARK  5 active torsions:
REMARK  status: ('A' for Active; 'I' for Inactive)
REMARK    1  A    between atoms: C_4  and  N_5 
REMARK    2  A    between atoms: N_5  and  C_6 
REMARK    3  A    between atoms: C_6  and  C_7 
REMARK       I    between atoms: C_7  and  N_8 
REMARK    4  A    between atoms: N_8  and  N_9 
REMARK    5  A    between atoms: C_10  and  C_11 
ROOT
HETATM    1  C   UNL     1     -43.151  55.668 -53.940  1.00  0.00     0.250 C 
HETATM    2  N   UNL     1     -42.925  55.314 -55.268  1.00  0.00    -0.246 N 
HETATM    3  O   UNL     1     -43.753  56.662 -53.542  1.00  0.00    -0.270 OA
HETATM    4  H   UNL     1     -42.667  54.343 -55.442  1.00  0.00     0.192 HD
ENDROOT
BRANCH   2   5
HETATM    5  N   UNL     1     -43.368  55.980 -56.386  1.00  0.00    -0.184 NA
HETATM    6  C   UNL     1     -42.820  55.732 -57.532  1.00  0.00     0.152 C 
BRANCH   6   7
HETATM    7  C   UNL     1     -43.263  56.462 -58.706  1.00  0.00     0.011 A 
HETATM    8  C   UNL     1     -42.918  57.808 -59.060  1.00  0.00     0.004 A 
HETATM    9  C   UNL     1     -43.560  58.101 -60.264  1.00  0.00     0.043 A 
HETATM   10  C   UNL     1     -42.127  58.811 -58.461  1.00  0.00     0.014 A 
HETATM   11  C   UNL     1     -43.447  59.343 -60.901  1.00  0.00     0.030 A 
HETATM   12  N   UNL     1     -44.267  56.979 -60.629  1.00  0.00    -0.364 N 
HETATM   13  C   UNL     1     -42.658  60.318 -60.286  1.00  0.00     0.002 A 
HETATM   14  C   UNL     1     -42.005  60.060 -59.082  1.00  0.00     0.001 A 
HETATM   15  H   UNL     1     -44.831  56.904 -61.464  1.00  0.00     0.165 HD
HETATM   16  C   UNL     1     -44.101  55.990 -59.698  1.00  0.00     0.102 A 
ENDBRANCH   6   7
ENDBRANCH   2   5
BRANCH   1  17
HETATM   17  C   UNL     1     -42.558  54.647 -52.966  1.00  0.00     0.197 C 
BRANCH  17  18
HETATM   18  N   UNL     1     -41.117  54.492 -53.216  1.00  0.00    -0.284 NA
HETATM   19  H   UNL     1     -40.884  54.768 -54.172  1.00  0.00     0.128 HD
BRANCH  18  20
HETATM   20  C   UNL     1     -40.560  53.228 -52.940  1.00  0.00     0.009 A 
HETATM   21  C   UNL     1     -40.398  52.230 -53.911  1.00  0.00     0.030 A 
HETATM   22  C   UNL     1     -39.894  50.960 -53.581  1.00  0.00    -0.060 A 
HETATM   23  C   UNL     1     -39.678  49.924 -54.644  1.00  0.00     0.048 C 
HETATM   24  C   UNL     1     -39.556  50.684 -52.254  1.00  0.00     0.007 A 
HETATM   25  C   UNL     1     -39.758  51.645 -51.268  1.00  0.00     0.002 A 
HETATM   26  C   UNL     1     -40.275  52.898 -51.609  1.00  0.00     0.023 A 
ENDBRANCH  18  20
ENDBRANCH  17  18
ENDBRANCH   1  17
TORSDOF 5
ENDMDL
MODEL 10
REMARK VINA RESULT:      -7.3      2.707      9.780
REMARK  5 active torsions:
REMARK  status: ('A' for Active; 'I' for Inactive)
REMARK    1  A    between atoms: C_4  and  N_5 
REMARK    2  A    between atoms: N_5  and  C_6 
REMARK    3  A    between atoms: C_6  and  C_7 
REMARK       I    between atoms: C_7  and  N_8 
REMARK    4  A    between atoms: N_8  and  N_9 
REMARK    5  A    between atoms: C_10  and  C_11 
ROOT
HETATM    1  C   UNL     1     -42.320  55.866 -55.715  1.00  0.00     0.250 C 
HETATM    2  N   UNL     1     -42.197  56.003 -57.095  1.00  0.00    -0.246 N 
HETATM    3  O   UNL     1     -43.187  56.371 -55.005  1.00  0.00    -0.270 OA
HETATM    4  H   UNL     1     -41.615  55.314 -57.569  1.00  0.00     0.192 HD
ENDROOT
BRANCH   2   5
HETATM    5  N   UNL     1     -43.043  56.688 -57.934  1.00  0.00    -0.184 NA
HETATM    6  C   UNL     1     -42.546  57.440 -58.863  1.00  0.00     0.152 C 
BRANCH   6   7
HETATM    7  C   UNL     1     -43.438  58.192 -59.725  1.00  0.00     0.011 A 
HETATM    8  C   UNL     1     -43.090  59.308 -60.556  1.00  0.00     0.004 A 
HETATM    9  C   UNL     1     -44.252  59.718 -61.213  1.00  0.00     0.043 A 
HETATM   10  C   UNL     1     -41.895  60.016 -60.803  1.00  0.00     0.014 A 
HETATM   11  C   UNL     1     -44.277  60.796 -62.106  1.00  0.00     0.030 A 
HETATM   12  N   UNL     1     -45.266  58.887 -60.799  1.00  0.00    -0.364 N 
HETATM   13  C   UNL     1     -43.079  61.480 -62.332  1.00  0.00     0.002 A 
HETATM   14  C   UNL     1     -41.903  61.098 -61.691  1.00  0.00     0.001 A 
HETATM   15  H   UNL     1     -46.224  58.951 -61.112  1.00  0.00     0.165 HD
HETATM   16  C   UNL     1     -44.791  57.970 -59.900  1.00  0.00     0.102 A 
ENDBRANCH   6   7
ENDBRANCH   2   5
BRANCH   1  17
HETATM   17  C   UNL     1     -41.225  54.973 -55.127  1.00  0.00     0.197 C 
BRANCH  17  18
HETATM   18  N   UNL     1     -41.724  54.294 -53.921  1.00  0.00    -0.284 NA
HETATM   19  H   UNL     1     -41.900  54.967 -53.173  1.00  0.00     0.128 HD
BRANCH  18  20
HETATM   20  C   UNL     1     -40.943  53.231 -53.426  1.00  0.00     0.009 A 
HETATM   21  C   UNL     1     -40.623  52.095 -54.182  1.00  0.00     0.030 A 
HETATM   22  C   UNL     1     -39.892  51.029 -53.630  1.00  0.00    -0.060 A 
HETATM   23  C   UNL     1     -39.513  49.846 -54.471  1.00  0.00     0.048 C 
HETATM   24  C   UNL     1     -39.485  51.099 -52.295  1.00  0.00     0.007 A 
HETATM   25  C   UNL     1     -39.838  52.196 -51.515  1.00  0.00     0.002 A 
HETATM   26  C   UNL     1     -40.579  53.241 -52.073  1.00  0.00     0.023 A 
ENDBRANCH  18  20
ENDBRANCH  17  18
ENDBRANCH   1  17
TORSDOF 5
ENDMDL
