MODEL 1
REMARK VINA RESULT:      -8.3      0.000      0.000
REMARK  4 active torsions:
REMARK  status: ('A' for Active; 'I' for Inactive)
REMARK    1  A    between atoms: C_4  and  N_5 
REMARK       I    between atoms: N_5  and  C_6 
REMARK    2  A    between atoms: C_6  and  C_7 
REMARK    3  A    between atoms: C_7  and  C_8 
REMARK    4  A    between atoms: C_11  and  O_12 
ROOT
HETATM    1  N   UNL     1     -41.876  55.336 -54.254  1.00  0.00    -0.325 N 
HETATM    2  C   UNL     1     -43.195  55.460 -54.636  1.00  0.00     0.226 C 
HETATM    3  O   UNL     1     -44.076  54.615 -54.505  1.00  0.00    -0.273 OA
HETATM    4  H   UNL     1     -41.239  56.107 -54.447  1.00  0.00     0.169 HD
ENDROOT
BRANCH   1   5
HETATM    5  C   UNL     1     -41.225  54.235 -53.646  1.00  0.00     0.065 A 
HETATM    6  C   UNL     1     -40.905  53.057 -54.328  1.00  0.00     0.038 A 
HETATM    7  C   UNL     1     -40.258  52.007 -53.669  1.00  0.00    -0.059 A 
HETATM    8  C   UNL     1     -39.885  50.753 -54.405  1.00  0.00     0.048 C 
HETATM    9  C   UNL     1     -39.924  52.156 -52.320  1.00  0.00     0.020 A 
HETATM   10  C   UNL     1     -40.243  53.337 -51.629  1.00  0.00    -0.005 A 
HETATM   11  C   UNL     1     -40.903  54.395 -52.289  1.00  0.00     0.093 A 
HETATM   12  C   UNL     1     -39.919  53.499 -50.275  1.00  0.00     0.015 A 
HETATM   13  N   UNL     1     -41.226  55.545 -51.646  1.00  0.00    -0.258 NA
HETATM   14  C   UNL     1     -40.895  55.662 -50.341  1.00  0.00     0.117 A 
HETATM   15  C   UNL     1     -40.248  54.678 -49.620  1.00  0.00     0.020 A 
ENDBRANCH   1   5
BRANCH   2  16
HETATM   16  C   UNL     1     -43.495  56.808 -55.275  1.00  0.00     0.141 C 
BRANCH  16  17
HETATM   17  C   UNL     1     -43.043  56.879 -56.713  1.00  0.00    -0.049 A 
HETATM   18  C   UNL     1     -42.403  58.031 -57.195  1.00  0.00     0.010 A 
HETATM   19  C   UNL     1     -41.996  58.114 -58.528  1.00  0.00     0.037 A 
HETATM   20  C   UNL     1     -42.228  57.041 -59.380  1.00  0.00     0.065 A 
HETATM   21  C   UNL     1     -42.859  55.890 -58.922  1.00  0.00     0.037 A 
HETATM   22  C   UNL     1     -43.267  55.808 -57.589  1.00  0.00     0.010 A 
BRANCH  20  23
HETATM   23  O   UNL     1     -41.849  57.078 -60.690  1.00  0.00    -0.361 OA
HETATM   24  H   UNL     1     -41.488  56.208 -60.928  1.00  0.00     0.217 HD
ENDBRANCH  20  23
ENDBRANCH  16  17
ENDBRANCH   2  16
TORSDOF 4
ENDMDL
MODEL 2
REMARK VINA RESULT:      -8.0      2.301      7.015
REMARK  4 active torsions:
REMARK  status: ('A' for Active; 'I' for Inactive)
REMARK    1  A    between atoms: C_4  and  N_5 
REMARK       I    between atoms: N_5  and  C_6 
REMARK    2  A    between atoms: C_6  and  C_7 
REMARK    3  A    between atoms: C_7  and  C_8 
REMARK    4  A    between atoms: C_11  and  O_12 
ROOT
HETATM    1  N   UNL     1     -42.099  55.351 -54.727  1.00  0.00    -0.325 N 
HETATM    2  C   UNL     1     -40.861  54.903 -54.316  1.00  0.00     0.226 C 
HETATM    3  O   UNL     1     -39.809  54.988 -54.943  1.00  0.00    -0.273 OA
HETATM    4  H   UNL     1     -42.900  55.193 -54.118  1.00  0.00     0.169 HD
ENDROOT
BRANCH   1   5
HETATM    5  C   UNL     1     -42.458  55.988 -55.939  1.00  0.00     0.065 A 
HETATM    6  C   UNL     1     -42.886  55.295 -57.076  1.00  0.00     0.038 A 
HETATM    7  C   UNL     1     -43.229  55.985 -58.243  1.00  0.00    -0.059 A 
HETATM    8  C   UNL     1     -43.719  55.249 -59.455  1.00  0.00     0.048 C 
HETATM    9  C   UNL     1     -43.151  57.381 -58.253  1.00  0.00     0.020 A 
HETATM   10  C   UNL     1     -42.720  58.083 -57.115  1.00  0.00    -0.005 A 
HETATM   11  C   UNL     1     -42.366  57.389 -55.939  1.00  0.00     0.093 A 
HETATM   12  C   UNL     1     -42.632  59.482 -57.112  1.00  0.00     0.015 A 
HETATM   13  N   UNL     1     -41.945  58.041 -54.826  1.00  0.00    -0.258 NA
HETATM   14  C   UNL     1     -41.874  59.390 -54.864  1.00  0.00     0.117 A 
HETATM   15  C   UNL     1     -42.203  60.147 -55.971  1.00  0.00     0.020 A 
ENDBRANCH   1   5
BRANCH   2  16
HETATM   16  C   UNL     1     -40.900  54.254 -52.941  1.00  0.00     0.141 C 
BRANCH  16  17
HETATM   17  C   UNL     1     -40.451  52.814 -52.969  1.00  0.00    -0.049 A 
HETATM   18  C   UNL     1     -40.612  52.047 -54.133  1.00  0.00     0.010 A 
HETATM   19  C   UNL     1     -40.214  50.709 -54.165  1.00  0.00     0.037 A 
HETATM   20  C   UNL     1     -39.652  50.137 -53.029  1.00  0.00     0.065 A 
HETATM   21  C   UNL     1     -39.482  50.880 -51.867  1.00  0.00     0.037 A 
HETATM   22  C   UNL     1     -39.881  52.218 -51.835  1.00  0.00     0.010 A 
BRANCH  20  23
HETATM   23  O   UNL     1     -39.250  48.834 -53.014  1.00  0.00    -0.361 OA
HETATM   24  H   UNL     1     -38.375  48.789 -52.595  1.00  0.00     0.217 HD
ENDBRANCH  20  23
ENDBRANCH  16  17
ENDBRANCH   2  16
TORSDOF 4
ENDMDL
MODEL 3
REMARK VINA RESULT:      -7.9      3.453      6.467
REMARK  4 active torsions:
REMARK  status: ('A' for Active; 'I' for Inactive)
REMARK    1  A    between atoms: C_4  and  N_5 
REMARK       I    between atoms: N_5  and  C_6 
REMARK    2  A    between atoms: C_6  and  C_7 
REMARK    3  A    between atoms: C_7  and  C_8 
REMARK    4  A    between atoms: C_11  and  O_12 
ROOT
HETATM    1  N   UNL     1     -41.201  55.644 -52.004  1.00  0.00    -0.325 N 
HETATM    2  C   UNL     1     -41.445  54.431 -51.395  1.00  0.00     0.226 C 
HETATM    3  O   UNL     1     -42.536  54.003 -51.032  1.00  0.00    -0.273 OA
HETATM    4  H   UNL     1     -40.238  55.889 -52.232  1.00  0.00     0.169 HD
ENDROOT
BRANCH   1   5
HETATM    5  C   UNL     1     -42.115  56.671 -52.341  1.00  0.00     0.065 A 
HETATM    6  C   UNL     1     -43.129  56.518 -53.292  1.00  0.00     0.038 A 
HETATM    7  C   UNL     1     -44.003  57.572 -53.576  1.00  0.00    -0.059 A 
HETATM    8  C   UNL     1     -45.112  57.403 -54.573  1.00  0.00     0.048 C 
HETATM    9  C   UNL     1     -43.856  58.779 -52.886  1.00  0.00     0.020 A 
HETATM   10  C   UNL     1     -42.838  58.940 -51.931  1.00  0.00    -0.005 A 
HETATM   11  C   UNL     1     -41.951  57.881 -51.647  1.00  0.00     0.093 A 
HETATM   12  C   UNL     1     -42.676  60.146 -51.235  1.00  0.00     0.015 A 
HETATM   13  N   UNL     1     -40.958  58.008 -50.731  1.00  0.00    -0.258 NA
HETATM   14  C   UNL     1     -40.835  59.187 -50.082  1.00  0.00     0.117 A 
HETATM   15  C   UNL     1     -41.661  60.273 -50.296  1.00  0.00     0.020 A 
ENDBRANCH   1   5
BRANCH   2  16
HETATM   16  C   UNL     1     -40.178  53.612 -51.194  1.00  0.00     0.141 C 
BRANCH  16  17
HETATM   17  C   UNL     1     -40.068  52.469 -52.172  1.00  0.00    -0.049 A 
HETATM   18  C   UNL     1     -40.380  52.667 -53.526  1.00  0.00     0.010 A 
HETATM   19  C   UNL     1     -40.296  51.612 -54.437  1.00  0.00     0.037 A 
HETATM   20  C   UNL     1     -39.899  50.356 -53.992  1.00  0.00     0.065 A 
HETATM   21  C   UNL     1     -39.585  50.140 -52.656  1.00  0.00     0.037 A 
HETATM   22  C   UNL     1     -39.669  51.194 -51.745  1.00  0.00     0.010 A 
BRANCH  20  23
HETATM   23  O   UNL     1     -39.805  49.297 -54.846  1.00  0.00    -0.361 OA
HETATM   24  H   UNL     1     -38.897  49.260 -55.189  1.00  0.00     0.217 HD
ENDBRANCH  20  23
ENDBRANCH  16  17
ENDBRANCH   2  16
TORSDOF 4
ENDMDL
MODEL 4
REMARK VINA RESULT:      -7.7      1.975      2.985
REMARK  4 active torsions:
REMARK  status: ('A' for Active; 'I' for Inactive)
REMARK    1  A    between atoms: C_4  and  N_5 
REMARK       I    between atoms: N_5  and  C_6 
REMARK    2  A    between atoms: C_6  and  C_7 
REMARK    3  A    between atoms: C_7  and  C_8 
REMARK    4  A    between atoms: C_11  and  O_12 
ROOT
HETATM    1  N   UNL     1     -41.164  54.629 -54.833  1.00  0.00    -0.325 N 
HETATM    2  C   UNL     1     -42.379  54.773 -55.467  1.00  0.00     0.226 C 
HETATM    3  O   UNL     1     -43.315  53.978 -55.441  1.00  0.00    -0.273 OA
HETATM    4  H   UNL     1     -40.460  55.355 -54.960  1.00  0.00     0.169 HD
ENDROOT
BRANCH   1   5
HETATM    5  C   UNL     1     -40.700  53.561 -54.028  1.00  0.00     0.065 A 
HETATM    6  C   UNL     1     -40.313  52.320 -54.545  1.00  0.00     0.038 A 
HETATM    7  C   UNL     1     -39.860  51.305 -53.695  1.00  0.00    -0.059 A 
HETATM    8  C   UNL     1     -39.415  49.983 -54.248  1.00  0.00     0.048 C 
HETATM    9  C   UNL     1     -39.788  51.553 -52.321  1.00  0.00     0.020 A 
HETATM   10  C   UNL     1     -40.176  52.797 -51.796  1.00  0.00    -0.005 A 
HETATM   11  C   UNL     1     -40.641  53.820 -52.650  1.00  0.00     0.093 A 
HETATM   12  C   UNL     1     -40.114  53.059 -50.421  1.00  0.00     0.015 A 
HETATM   13  N   UNL     1     -41.024  55.030 -52.170  1.00  0.00    -0.258 NA
HETATM   14  C   UNL     1     -40.948  55.242 -50.837  1.00  0.00     0.117 A 
HETATM   15  C   UNL     1     -40.504  54.299 -49.932  1.00  0.00     0.020 A 
ENDBRANCH   1   5
BRANCH   2  16
HETATM   16  C   UNL     1     -42.479  56.071 -56.254  1.00  0.00     0.141 C 
BRANCH  16  17
HETATM   17  C   UNL     1     -43.394  57.075 -55.598  1.00  0.00    -0.049 A 
HETATM   18  C   UNL     1     -44.427  57.676 -56.335  1.00  0.00     0.010 A 
HETATM   19  C   UNL     1     -45.269  58.619 -55.742  1.00  0.00     0.037 A 
HETATM   20  C   UNL     1     -45.079  58.960 -54.407  1.00  0.00     0.065 A 
HETATM   21  C   UNL     1     -44.063  58.375 -53.660  1.00  0.00     0.037 A 
HETATM   22  C   UNL     1     -43.220  57.433 -54.253  1.00  0.00     0.010 A 
BRANCH  20  23
HETATM   23  O   UNL     1     -45.876  59.876 -53.788  1.00  0.00    -0.361 OA
HETATM   24  H   UNL     1     -46.665  59.419 -53.454  1.00  0.00     0.217 HD
ENDBRANCH  20  23
ENDBRANCH  16  17
ENDBRANCH   2  16
TORSDOF 4
ENDMDL
MODEL 5
REMARK VINA RESULT:      -7.7      2.430      7.349
REMARK  4 active torsions:
REMARK  status: ('A' for Active; 'I' for Inactive)
REMARK    1  A    between atoms: C_4  and  N_5 
REMARK       I    between atoms: N_5  and  C_6 
REMARK    2  A    between atoms: C_6  and  C_7 
REMARK    3  A    between atoms: C_7  and  C_8 
REMARK    4  A    between atoms: C_11  and  O_12 
ROOT
HETATM    1  N   UNL     1     -41.577  55.273 -54.379  1.00  0.00    -0.325 N 
HETATM    2  C   UNL     1     -41.594  53.918 -54.635  1.00  0.00     0.226 C 
HETATM    3  O   UNL     1     -42.590  53.212 -54.765  1.00  0.00    -0.273 OA
HETATM    4  H   UNL     1     -40.675  55.735 -54.267  1.00  0.00     0.169 HD
ENDROOT
BRANCH   1   5
HETATM    5  C   UNL     1     -42.666  56.159 -54.197  1.00  0.00     0.065 A 
HETATM    6  C   UNL     1     -43.189  56.487 -52.942  1.00  0.00     0.038 A 
HETATM    7  C   UNL     1     -44.266  57.373 -52.830  1.00  0.00    -0.059 A 
HETATM    8  C   UNL     1     -44.811  57.752 -51.485  1.00  0.00     0.048 C 
HETATM    9  C   UNL     1     -44.804  57.936 -53.991  1.00  0.00     0.020 A 
HETATM   10  C   UNL     1     -44.284  57.609 -55.255  1.00  0.00    -0.005 A 
HETATM   11  C   UNL     1     -43.203  56.710 -55.371  1.00  0.00     0.093 A 
HETATM   12  C   UNL     1     -44.816  58.161 -56.427  1.00  0.00     0.015 A 
HETATM   13  N   UNL     1     -42.682  56.375 -56.578  1.00  0.00    -0.258 NA
HETATM   14  C   UNL     1     -43.224  56.930 -57.685  1.00  0.00     0.117 A 
HETATM   15  C   UNL     1     -44.280  57.819 -57.662  1.00  0.00     0.020 A 
ENDBRANCH   1   5
BRANCH   2  16
HETATM   16  C   UNL     1     -40.197  53.325 -54.748  1.00  0.00     0.141 C 
BRANCH  16  17
HETATM   17  C   UNL     1     -39.985  52.164 -53.810  1.00  0.00    -0.049 A 
HETATM   18  C   UNL     1     -39.913  50.855 -54.311  1.00  0.00     0.010 A 
HETATM   19  C   UNL     1     -39.732  49.772 -53.450  1.00  0.00     0.037 A 
HETATM   20  C   UNL     1     -39.622  49.998 -52.083  1.00  0.00     0.065 A 
HETATM   21  C   UNL     1     -39.688  51.287 -51.566  1.00  0.00     0.037 A 
HETATM   22  C   UNL     1     -39.870  52.370 -52.427  1.00  0.00     0.010 A 
BRANCH  20  23
HETATM   23  O   UNL     1     -39.446  48.970 -51.204  1.00  0.00    -0.361 OA
HETATM   24  H   UNL     1     -39.683  48.141 -51.652  1.00  0.00     0.217 HD
ENDBRANCH  20  23
ENDBRANCH  16  17
ENDBRANCH   2  16
TORSDOF 4
ENDMDL
MODEL 6
REMARK VINA RESULT:      -7.7      2.484      6.718
REMARK  4 active torsions:
REMARK  status: ('A' for Active; 'I' for Inactive)
REMARK    1  A    between atoms: C_4  and  N_5 
REMARK       I    between atoms: N_5  and  C_6 
REMARK    2  A    between atoms: C_6  and  C_7 
REMARK    3  A    between atoms: C_7  and  C_8 
REMARK    4  A    between atoms: C_11  and  O_12 
ROOT
HETATM    1  N   UNL     1     -41.549  55.314 -54.762  1.00  0.00    -0.325 N 
HETATM    2  C   UNL     1     -41.540  53.935 -54.784  1.00  0.00     0.226 C 
HETATM    3  O   UNL     1     -42.522  53.199 -54.789  1.00  0.00    -0.273 OA
HETATM    4  H   UNL     1     -40.657  55.806 -54.733  1.00  0.00     0.169 HD
ENDROOT
BRANCH   1   5
HETATM    5  C   UNL     1     -42.656  56.196 -54.727  1.00  0.00     0.065 A 
HETATM    6  C   UNL     1     -43.221  56.768 -55.872  1.00  0.00     0.038 A 
HETATM    7  C   UNL     1     -44.316  57.631 -55.769  1.00  0.00    -0.059 A 
HETATM    8  C   UNL     1     -44.945  58.223 -56.996  1.00  0.00     0.048 C 
HETATM    9  C   UNL     1     -44.848  57.904 -54.505  1.00  0.00     0.020 A 
HETATM   10  C   UNL     1     -44.285  57.334 -53.351  1.00  0.00    -0.005 A 
HETATM   11  C   UNL     1     -43.175  56.469 -53.451  1.00  0.00     0.093 A 
HETATM   12  C   UNL     1     -44.804  57.602 -52.078  1.00  0.00     0.015 A 
HETATM   13  N   UNL     1     -42.609  55.906 -52.354  1.00  0.00    -0.258 NA
HETATM   14  C   UNL     1     -43.140  56.190 -51.144  1.00  0.00     0.117 A 
HETATM   15  C   UNL     1     -44.225  57.022 -50.956  1.00  0.00     0.020 A 
ENDBRANCH   1   5
BRANCH   2  16
HETATM   16  C   UNL     1     -40.132  53.359 -54.803  1.00  0.00     0.141 C 
BRANCH  16  17
HETATM   17  C   UNL     1     -39.966  52.207 -53.843  1.00  0.00    -0.049 A 
HETATM   18  C   UNL     1     -39.914  50.890 -54.324  1.00  0.00     0.010 A 
HETATM   19  C   UNL     1     -39.777  49.815 -53.443  1.00  0.00     0.037 A 
HETATM   20  C   UNL     1     -39.691  50.060 -52.077  1.00  0.00     0.065 A 
HETATM   21  C   UNL     1     -39.740  51.357 -51.581  1.00  0.00     0.037 A 
HETATM   22  C   UNL     1     -39.878  52.432 -52.461  1.00  0.00     0.010 A 
BRANCH  20  23
HETATM   23  O   UNL     1     -39.559  49.041 -51.180  1.00  0.00    -0.361 OA
HETATM   24  H   UNL     1     -39.254  48.252 -51.657  1.00  0.00     0.217 HD
ENDBRANCH  20  23
ENDBRANCH  16  17
ENDBRANCH   2  16
TORSDOF 4
ENDMDL
MODEL 7
REMARK VINA RESULT:      -7.6      2.749      6.935
REMARK  4 active torsions:
REMARK  status: ('A' for Active; 'I' for Inactive)
REMARK    1  A    between atoms: C_4  and  N_5 
REMARK       I    between atoms: N_5  and  C_6 
REMARK    2  A    between atoms: C_6  and  C_7 
REMARK    3  A    between atoms: C_7  and  C_8 
REMARK    4  A    between atoms: C_11  and  O_12 
ROOT
HETATM    1  N   UNL     1     -41.819  55.753 -52.083  1.00  0.00    -0.325 N 
HETATM    2  C   UNL     1     -41.882  54.509 -51.492  1.00  0.00     0.226 C 
HETATM    3  O   UNL     1     -42.901  53.902 -51.173  1.00  0.00    -0.273 OA
HETATM    4  H   UNL     1     -40.902  56.156 -52.271  1.00  0.00     0.169 HD
ENDROOT
BRANCH   1   5
HETATM    5  C   UNL     1     -42.877  56.620 -52.447  1.00  0.00     0.065 A 
HETATM    6  C   UNL     1     -43.675  57.294 -51.517  1.00  0.00     0.038 A 
HETATM    7  C   UNL     1     -44.704  58.140 -51.943  1.00  0.00    -0.059 A 
HETATM    8  C   UNL     1     -45.543  58.889 -50.950  1.00  0.00     0.048 C 
HETATM    9  C   UNL     1     -44.916  58.313 -53.314  1.00  0.00     0.020 A 
HETATM   10  C   UNL     1     -44.118  57.637 -54.254  1.00  0.00    -0.005 A 
HETATM   11  C   UNL     1     -43.085  56.777 -53.827  1.00  0.00     0.093 A 
HETATM   12  C   UNL     1     -44.322  57.797 -55.631  1.00  0.00     0.015 A 
HETATM   13  N   UNL     1     -42.301  56.111 -54.711  1.00  0.00    -0.258 NA
HETATM   14  C   UNL     1     -42.530  56.293 -56.031  1.00  0.00     0.117 A 
HETATM   15  C   UNL     1     -43.517  57.116 -56.535  1.00  0.00     0.020 A 
ENDBRANCH   1   5
BRANCH   2  16
HETATM   16  C   UNL     1     -40.506  53.906 -51.247  1.00  0.00     0.141 C 
BRANCH  16  17
HETATM   17  C   UNL     1     -40.232  52.715 -52.131  1.00  0.00    -0.049 A 
HETATM   18  C   UNL     1     -40.500  52.781 -53.507  1.00  0.00     0.010 A 
HETATM   19  C   UNL     1     -40.264  51.679 -54.331  1.00  0.00     0.037 A 
HETATM   20  C   UNL     1     -39.758  50.508 -53.778  1.00  0.00     0.065 A 
HETATM   21  C   UNL     1     -39.485  50.423 -52.417  1.00  0.00     0.037 A 
HETATM   22  C   UNL     1     -39.721  51.525 -51.593  1.00  0.00     0.010 A 
BRANCH  20  23
HETATM   23  O   UNL     1     -39.514  49.407 -54.544  1.00  0.00    -0.361 OA
HETATM   24  H   UNL     1     -38.968  49.676 -55.301  1.00  0.00     0.217 HD
ENDBRANCH  20  23
ENDBRANCH  16  17
ENDBRANCH   2  16
TORSDOF 4
ENDMDL
MODEL 8
REMARK VINA RESULT:      -7.5     14.576     16.266
REMARK  4 active torsions:
REMARK  status: ('A' for Active; 'I' for Inactive)
REMARK    1  A    between atoms: C_4  and  N_5 
REMARK       I    between atoms: N_5  and  C_6 
REMARK    2  A    between atoms: C_6  and  C_7 
REMARK    3  A    between atoms: C_7  and  C_8 
REMARK    4  A    between atoms: C_11  and  O_12 
ROOT
HETATM    1  N   UNL     1     -35.713  41.183 -54.221  1.00  0.00    -0.325 N 
HETATM    2  C   UNL     1     -36.875  40.460 -54.393  1.00  0.00     0.226 C 
HETATM    3  O   UNL     1     -37.079  39.308 -54.020  1.00  0.00    -0.273 OA
HETATM    4  H   UNL     1     -35.666  42.126 -54.605  1.00  0.00     0.169 HD
ENDROOT
BRANCH   1   5
HETATM    5  C   UNL     1     -34.502  40.789 -53.603  1.00  0.00     0.065 A 
HETATM    6  C   UNL     1     -34.310  40.787 -52.217  1.00  0.00     0.038 A 
HETATM    7  C   UNL     1     -33.088  40.383 -51.670  1.00  0.00    -0.059 A 
HETATM    8  C   UNL     1     -32.887  40.349 -50.183  1.00  0.00     0.048 C 
HETATM    9  C   UNL     1     -32.065  39.968 -52.527  1.00  0.00     0.020 A 
HETATM   10  C   UNL     1     -32.251  39.970 -53.919  1.00  0.00    -0.005 A 
HETATM   11  C   UNL     1     -33.479  40.384 -54.475  1.00  0.00     0.093 A 
HETATM   12  C   UNL     1     -31.232  39.562 -54.791  1.00  0.00     0.015 A 
HETATM   13  N   UNL     1     -33.687  40.398 -55.816  1.00  0.00    -0.258 NA
HETATM   14  C   UNL     1     -32.679  39.997 -56.622  1.00  0.00     0.117 A 
HETATM   15  C   UNL     1     -31.448  39.574 -56.163  1.00  0.00     0.020 A 
ENDBRANCH   1   5
BRANCH   2  16
HETATM   16  C   UNL     1     -37.951  41.245 -55.128  1.00  0.00     0.141 C 
BRANCH  16  17
HETATM   17  C   UNL     1     -37.793  41.177 -56.627  1.00  0.00    -0.049 A 
HETATM   18  C   UNL     1     -38.357  40.114 -57.348  1.00  0.00     0.010 A 
HETATM   19  C   UNL     1     -38.204  40.033 -58.733  1.00  0.00     0.037 A 
HETATM   20  C   UNL     1     -37.486  41.019 -59.399  1.00  0.00     0.065 A 
HETATM   21  C   UNL     1     -36.921  42.082 -58.703  1.00  0.00     0.037 A 
HETATM   22  C   UNL     1     -37.073  42.162 -57.318  1.00  0.00     0.010 A 
BRANCH  20  23
HETATM   23  O   UNL     1     -37.310  40.980 -60.751  1.00  0.00    -0.361 OA
HETATM   24  H   UNL     1     -36.480  41.438 -60.964  1.00  0.00     0.217 HD
ENDBRANCH  20  23
ENDBRANCH  16  17
ENDBRANCH   2  16
TORSDOF 4
ENDMDL
MODEL 9
REMARK VINA RESULT:      -7.5     14.412     15.914
REMARK  4 active torsions:
REMARK  status: ('A' for Active; 'I' for Inactive)
REMARK    1  A    between atoms: C_4  and  N_5 
REMARK       I    between atoms: N_5  and  C_6 
REMARK    2  A    between atoms: C_6  and  C_7 
REMARK    3  A    between atoms: C_7  and  C_8 
REMARK    4  A    between atoms: C_11  and  O_12 
ROOT
HETATM    1  N   UNL     1     -35.412  40.772 -55.241  1.00  0.00    -0.325 N 
HETATM    2  C   UNL     1     -35.849  42.002 -55.688  1.00  0.00     0.226 C 
HETATM    3  O   UNL     1     -35.201  43.044 -55.704  1.00  0.00    -0.273 OA
HETATM    4  H   UNL     1     -36.065  39.989 -55.258  1.00  0.00     0.169 HD
ENDROOT
BRANCH   1   5
HETATM    5  C   UNL     1     -34.155  40.418 -54.696  1.00  0.00     0.065 A 
HETATM    6  C   UNL     1     -33.086  39.948 -55.467  1.00  0.00     0.038 A 
HETATM    7  C   UNL     1     -31.867  39.618 -54.867  1.00  0.00    -0.059 A 
HETATM    8  C   UNL     1     -30.708  39.144 -55.693  1.00  0.00     0.048 C 
HETATM    9  C   UNL     1     -31.727  39.775 -53.485  1.00  0.00     0.020 A 
HETATM   10  C   UNL     1     -32.797  40.245 -52.705  1.00  0.00    -0.005 A 
HETATM   11  C   UNL     1     -34.030  40.572 -53.306  1.00  0.00     0.093 A 
HETATM   12  C   UNL     1     -32.673  40.403 -51.318  1.00  0.00     0.015 A 
HETATM   13  N   UNL     1     -35.081  41.026 -52.577  1.00  0.00    -0.258 NA
HETATM   14  C   UNL     1     -34.920  41.164 -51.243  1.00  0.00     0.117 A 
HETATM   15  C   UNL     1     -33.749  40.870 -50.574  1.00  0.00     0.020 A 
ENDBRANCH   1   5
BRANCH   2  16
HETATM   16  C   UNL     1     -37.285  41.967 -56.189  1.00  0.00     0.141 C 
BRANCH  16  17
HETATM   17  C   UNL     1     -37.392  41.436 -57.597  1.00  0.00    -0.049 A 
HETATM   18  C   UNL     1     -37.824  40.119 -57.824  1.00  0.00     0.010 A 
HETATM   19  C   UNL     1     -37.912  39.613 -59.121  1.00  0.00     0.037 A 
HETATM   20  C   UNL     1     -37.568  40.425 -60.196  1.00  0.00     0.065 A 
HETATM   21  C   UNL     1     -37.139  41.732 -59.993  1.00  0.00     0.037 A 
HETATM   22  C   UNL     1     -37.050  42.238 -58.695  1.00  0.00     0.010 A 
BRANCH  20  23
HETATM   23  O   UNL     1     -37.636  39.972 -61.480  1.00  0.00    -0.361 OA
HETATM   24  H   UNL     1     -37.068  40.533 -62.033  1.00  0.00     0.217 HD
ENDBRANCH  20  23
ENDBRANCH  16  17
ENDBRANCH   2  16
TORSDOF 4
ENDMDL
MODEL 10
REMARK VINA RESULT:      -7.5      2.616      7.221
REMARK  4 active torsions:
REMARK  status: ('A' for Active; 'I' for Inactive)
REMARK    1  A    between atoms: C_4  and  N_5 
REMARK       I    between atoms: N_5  and  C_6 
REMARK    2  A    between atoms: C_6  and  C_7 
REMARK    3  A    between atoms: C_7  and  C_8 
REMARK    4  A    between atoms: C_11  and  O_12 
ROOT
HETATM    1  N   UNL     1     -40.773  55.495 -54.313  1.00  0.00    -0.325 N 
HETATM    2  C   UNL     1     -41.286  54.218 -54.223  1.00  0.00     0.226 C 
HETATM    3  O   UNL     1     -42.386  53.903 -53.779  1.00  0.00    -0.273 OA
HETATM    4  H   UNL     1     -39.830  55.616 -54.679  1.00  0.00     0.169 HD
ENDROOT
BRANCH   1   5
HETATM    5  C   UNL     1     -41.362  56.721 -53.918  1.00  0.00     0.065 A 
HETATM    6  C   UNL     1     -41.230  57.259 -52.633  1.00  0.00     0.038 A 
HETATM    7  C   UNL     1     -41.835  58.477 -52.307  1.00  0.00    -0.059 A 
HETATM    8  C   UNL     1     -41.671  59.074 -50.941  1.00  0.00     0.048 C 
HETATM    9  C   UNL     1     -42.563  59.157 -53.288  1.00  0.00     0.020 A 
HETATM   10  C   UNL     1     -42.700  58.621 -54.580  1.00  0.00    -0.005 A 
HETATM   11  C   UNL     1     -42.098  57.388 -54.909  1.00  0.00     0.093 A 
HETATM   12  C   UNL     1     -43.431  59.288 -55.572  1.00  0.00     0.015 A 
HETATM   13  N   UNL     1     -42.215  56.846 -56.148  1.00  0.00    -0.258 NA
HETATM   14  C   UNL     1     -42.929  57.521 -57.076  1.00  0.00     0.117 A 
HETATM   15  C   UNL     1     -43.548  58.732 -56.839  1.00  0.00     0.020 A 
ENDBRANCH   1   5
BRANCH   2  16
HETATM   16  C   UNL     1     -40.324  53.163 -54.747  1.00  0.00     0.141 C 
BRANCH  16  17
HETATM   17  C   UNL     1     -40.066  52.067 -53.743  1.00  0.00    -0.049 A 
HETATM   18  C   UNL     1     -39.879  52.381 -52.388  1.00  0.00     0.010 A 
HETATM   19  C   UNL     1     -39.624  51.376 -51.454  1.00  0.00     0.037 A 
HETATM   20  C   UNL     1     -39.556  50.053 -51.875  1.00  0.00     0.065 A 
HETATM   21  C   UNL     1     -39.739  49.721 -53.213  1.00  0.00     0.037 A 
HETATM   22  C   UNL     1     -39.993  50.726 -54.148  1.00  0.00     0.010 A 
BRANCH  20  23
HETATM   23  O   UNL     1     -39.307  49.039 -50.998  1.00  0.00    -0.361 OA
HETATM   24  H   UNL     1     -38.635  49.341 -50.365  1.00  0.00     0.217 HD
ENDBRANCH  20  23
ENDBRANCH  16  17
ENDBRANCH   2  16
TORSDOF 4
ENDMDL
