MODEL 1
REMARK VINA RESULT:      -8.6      0.000      0.000
REMARK  6 active torsions:
REMARK  status: ('A' for Active; 'I' for Inactive)
REMARK    1  A    between atoms: O_2  and  C_3 
REMARK    2  A    between atoms: C_5  and  N_6 
REMARK    3  A    between atoms: C_8  and  C_9 
REMARK    4  A    between atoms: C_9  and  N_10 
REMARK       I    between atoms: N_10  and  C_11 
REMARK       I    between atoms: C_11  and  N_12 
REMARK    5  A    between atoms: N_12  and  C_13 
REMARK    6  A    between atoms: C_13  and  C_14 
ROOT
HETATM    1  N   UNL     1     -43.988  56.571 -55.731  1.00  0.00    -0.343 N 
HETATM    2  C   UNL     1     -42.640  56.357 -55.823  1.00  0.00     0.316 C 
HETATM    3  N   UNL     1     -42.332  55.041 -55.608  1.00  0.00    -0.339 N 
HETATM    4  O   UNL     1     -41.822  57.221 -56.107  1.00  0.00    -0.248 OA
HETATM    5  H   UNL     1     -44.579  55.753 -55.768  1.00  0.00     0.164 HD
HETATM    6  H   UNL     1     -42.945  54.537 -54.986  1.00  0.00     0.164 HD
ENDROOT
BRANCH   1   7
HETATM    7  C   UNL     1     -44.587  57.843 -56.095  1.00  0.00     0.130 C 
BRANCH   7   8
HETATM    8  C   UNL     1     -45.246  58.565 -54.908  1.00  0.00     0.023 C 
HETATM    9  C   UNL     1     -44.866  57.948 -53.558  1.00  0.00     0.129 C 
HETATM   10  N   UNL     1     -43.609  58.608 -53.206  1.00  0.00    -0.380 N 
HETATM   11  C   UNL     1     -43.415  59.830 -53.983  1.00  0.00     0.123 C 
HETATM   12  C   UNL     1     -44.724  59.995 -54.758  1.00  0.00     0.028 C 
BRANCH  10  13
HETATM   13  C   UNL     1     -42.708  58.117 -52.287  1.00  0.00     0.032 A 
HETATM   14  C   UNL     1     -42.981  56.966 -51.523  1.00  0.00     0.066 A 
HETATM   15  C   UNL     1     -42.079  56.472 -50.569  1.00  0.00     0.070 A 
HETATM   16  C   UNL     1     -40.877  57.141 -50.354  1.00  0.00     0.037 A 
HETATM   17  C   UNL     1     -40.569  58.271 -51.099  1.00  0.00     0.005 A 
HETATM   18  C   UNL     1     -41.473  58.744 -52.056  1.00  0.00     0.029 A 
BRANCH  15  19
HETATM   19  O   UNL     1     -42.264  55.367 -49.784  1.00  0.00    -0.356 OA
HETATM   20  C   UNL     1     -41.164  54.956 -48.984  1.00  0.00     0.210 C 
ENDBRANCH  15  19
ENDBRANCH  10  13
ENDBRANCH   7   8
ENDBRANCH   1   7
BRANCH   3  21
HETATM   21  C   UNL     1     -40.956  54.602 -55.653  1.00  0.00     0.162 C 
BRANCH  21  22
HETATM   22  C   UNL     1     -40.626  53.733 -54.468  1.00  0.00    -0.040 A 
HETATM   23  C   UNL     1     -40.330  52.372 -54.633  1.00  0.00     0.021 A 
HETATM   24  C   UNL     1     -40.053  51.549 -53.527  1.00  0.00    -0.025 A 
HETATM   25  C   UNL     1     -40.069  52.103 -52.227  1.00  0.00    -0.026 A 
HETATM   26  C   UNL     1     -39.764  50.183 -53.684  1.00  0.00     0.012 A 
HETATM   27  C   UNL     1     -40.364  53.465 -52.067  1.00  0.00     0.013 A 
HETATM   28  C   UNL     1     -39.796  51.280 -51.123  1.00  0.00     0.012 A 
HETATM   29  C   UNL     1     -40.643  54.269 -53.173  1.00  0.00     0.010 A 
HETATM   30  C   UNL     1     -39.514  49.924 -51.296  1.00  0.00     0.001 A 
HETATM   31  C   UNL     1     -39.498  49.377 -52.575  1.00  0.00     0.001 A 
ENDBRANCH  21  22
ENDBRANCH   3  21
TORSDOF 6
ENDMDL
MODEL 2
REMARK VINA RESULT:      -8.5      3.273      6.139
REMARK  6 active torsions:
REMARK  status: ('A' for Active; 'I' for Inactive)
REMARK    1  A    between atoms: O_2  and  C_3 
REMARK    2  A    between atoms: C_5  and  N_6 
REMARK    3  A    between atoms: C_8  and  C_9 
REMARK    4  A    between atoms: C_9  and  N_10 
REMARK       I    between atoms: N_10  and  C_11 
REMARK       I    between atoms: C_11  and  N_12 
REMARK    5  A    between atoms: N_12  and  C_13 
REMARK    6  A    between atoms: C_13  and  C_14 
ROOT
HETATM    1  N   UNL     1     -42.776  58.773 -55.577  1.00  0.00    -0.343 N 
HETATM    2  C   UNL     1     -41.902  58.443 -54.577  1.00  0.00     0.316 C 
HETATM    3  N   UNL     1     -42.153  57.187 -54.095  1.00  0.00    -0.339 N 
HETATM    4  O   UNL     1     -40.986  59.159 -54.197  1.00  0.00    -0.248 OA
HETATM    5  H   UNL     1     -43.299  58.014 -55.988  1.00  0.00     0.164 HD
HETATM    6  H   UNL     1     -43.112  56.880 -54.133  1.00  0.00     0.164 HD
ENDROOT
BRANCH   1   7
HETATM    7  C   UNL     1     -42.608  59.975 -56.373  1.00  0.00     0.130 C 
BRANCH   7   8
HETATM    8  C   UNL     1     -41.786  59.747 -57.652  1.00  0.00     0.023 C 
HETATM    9  C   UNL     1     -41.922  58.319 -58.193  1.00  0.00     0.129 C 
HETATM   10  N   UNL     1     -43.124  58.366 -59.024  1.00  0.00    -0.380 N 
HETATM   11  C   UNL     1     -43.479  59.741 -59.367  1.00  0.00     0.123 C 
HETATM   12  C   UNL     1     -42.320  60.576 -58.821  1.00  0.00     0.028 C 
BRANCH  10  13
HETATM   13  C   UNL     1     -43.848  57.256 -59.402  1.00  0.00     0.032 A 
HETATM   14  C   UNL     1     -45.235  57.321 -59.635  1.00  0.00     0.066 A 
HETATM   15  C   UNL     1     -45.985  56.193 -59.997  1.00  0.00     0.070 A 
HETATM   16  C   UNL     1     -45.349  54.961 -60.123  1.00  0.00     0.037 A 
HETATM   17  C   UNL     1     -43.980  54.862 -59.914  1.00  0.00     0.005 A 
HETATM   18  C   UNL     1     -43.244  56.000 -59.565  1.00  0.00     0.029 A 
BRANCH  15  19
HETATM   19  O   UNL     1     -47.332  56.165 -60.238  1.00  0.00    -0.356 OA
HETATM   20  C   UNL     1     -47.766  56.619 -61.513  1.00  0.00     0.210 C 
ENDBRANCH  15  19
ENDBRANCH  10  13
ENDBRANCH   7   8
ENDBRANCH   1   7
BRANCH   3  21
HETATM   21  C   UNL     1     -41.345  56.646 -53.026  1.00  0.00     0.162 C 
BRANCH  21  22
HETATM   22  C   UNL     1     -40.979  55.211 -53.299  1.00  0.00    -0.040 A 
HETATM   23  C   UNL     1     -40.613  54.350 -52.254  1.00  0.00     0.021 A 
HETATM   24  C   UNL     1     -40.240  53.017 -52.505  1.00  0.00    -0.025 A 
HETATM   25  C   UNL     1     -40.237  52.536 -53.834  1.00  0.00    -0.026 A 
HETATM   26  C   UNL     1     -39.863  52.153 -51.464  1.00  0.00     0.012 A 
HETATM   27  C   UNL     1     -40.606  53.400 -54.876  1.00  0.00     0.013 A 
HETATM   28  C   UNL     1     -39.860  51.208 -54.086  1.00  0.00     0.012 A 
HETATM   29  C   UNL     1     -40.968  54.722 -54.612  1.00  0.00     0.010 A 
HETATM   30  C   UNL     1     -39.486  50.362 -53.040  1.00  0.00     0.001 A 
HETATM   31  C   UNL     1     -39.488  50.834 -51.732  1.00  0.00     0.001 A 
ENDBRANCH  21  22
ENDBRANCH   3  21
TORSDOF 6
ENDMDL
MODEL 3
REMARK VINA RESULT:      -8.4      2.051      4.831
REMARK  6 active torsions:
REMARK  status: ('A' for Active; 'I' for Inactive)
REMARK    1  A    between atoms: O_2  and  C_3 
REMARK    2  A    between atoms: C_5  and  N_6 
REMARK    3  A    between atoms: C_8  and  C_9 
REMARK    4  A    between atoms: C_9  and  N_10 
REMARK       I    between atoms: N_10  and  C_11 
REMARK       I    between atoms: C_11  and  N_12 
REMARK    5  A    between atoms: N_12  and  C_13 
REMARK    6  A    between atoms: C_13  and  C_14 
ROOT
HETATM    1  N   UNL     1     -42.641  59.054 -51.525  1.00  0.00    -0.343 N 
HETATM    2  C   UNL     1     -43.284  57.846 -51.549  1.00  0.00     0.316 C 
HETATM    3  N   UNL     1     -42.690  56.952 -50.701  1.00  0.00    -0.339 N 
HETATM    4  O   UNL     1     -44.286  57.612 -52.209  1.00  0.00    -0.248 OA
HETATM    5  H   UNL     1     -42.011  59.214 -50.753  1.00  0.00     0.164 HD
HETATM    6  H   UNL     1     -41.698  57.064 -50.561  1.00  0.00     0.164 HD
ENDROOT
BRANCH   1   7
HETATM    7  C   UNL     1     -43.181  60.222 -52.198  1.00  0.00     0.130 C 
BRANCH   7   8
HETATM    8  C   UNL     1     -42.309  60.706 -53.368  1.00  0.00     0.023 C 
HETATM    9  C   UNL     1     -41.671  59.550 -54.145  1.00  0.00     0.129 C 
HETATM   10  N   UNL     1     -42.693  59.169 -55.120  1.00  0.00    -0.380 N 
HETATM   11  C   UNL     1     -43.690  60.224 -55.283  1.00  0.00     0.123 C 
HETATM   12  C   UNL     1     -43.147  61.387 -54.451  1.00  0.00     0.028 C 
BRANCH  10  13
HETATM   13  C   UNL     1     -42.729  57.955 -55.770  1.00  0.00     0.032 A 
HETATM   14  C   UNL     1     -43.102  57.851 -57.124  1.00  0.00     0.066 A 
HETATM   15  C   UNL     1     -43.164  56.617 -57.788  1.00  0.00     0.070 A 
HETATM   16  C   UNL     1     -42.860  55.450 -57.093  1.00  0.00     0.037 A 
HETATM   17  C   UNL     1     -42.475  55.516 -55.760  1.00  0.00     0.005 A 
HETATM   18  C   UNL     1     -42.406  56.756 -55.115  1.00  0.00     0.029 A 
BRANCH  15  19
HETATM   19  O   UNL     1     -43.518  56.424 -59.096  1.00  0.00    -0.356 OA
HETATM   20  C   UNL     1     -42.683  57.018 -60.082  1.00  0.00     0.210 C 
ENDBRANCH  15  19
ENDBRANCH  10  13
ENDBRANCH   7   8
ENDBRANCH   1   7
BRANCH   3  21
HETATM   21  C   UNL     1     -43.211  55.610 -50.581  1.00  0.00     0.162 C 
BRANCH  21  22
HETATM   22  C   UNL     1     -42.185  54.592 -51.004  1.00  0.00    -0.040 A 
HETATM   23  C   UNL     1     -42.134  54.127 -52.326  1.00  0.00     0.021 A 
HETATM   24  C   UNL     1     -41.199  53.154 -52.720  1.00  0.00    -0.025 A 
HETATM   25  C   UNL     1     -40.292  52.636 -51.767  1.00  0.00    -0.026 A 
HETATM   26  C   UNL     1     -41.148  52.677 -54.040  1.00  0.00     0.012 A 
HETATM   27  C   UNL     1     -40.346  53.105 -50.445  1.00  0.00     0.013 A 
HETATM   28  C   UNL     1     -39.362  51.661 -52.158  1.00  0.00     0.012 A 
HETATM   29  C   UNL     1     -41.284  54.067 -50.068  1.00  0.00     0.010 A 
HETATM   30  C   UNL     1     -39.326  51.197 -53.474  1.00  0.00     0.001 A 
HETATM   31  C   UNL     1     -40.218  51.705 -54.413  1.00  0.00     0.001 A 
ENDBRANCH  21  22
ENDBRANCH   3  21
TORSDOF 6
ENDMDL
MODEL 4
REMARK VINA RESULT:      -8.3      1.795      4.807
REMARK  6 active torsions:
REMARK  status: ('A' for Active; 'I' for Inactive)
REMARK    1  A    between atoms: O_2  and  C_3 
REMARK    2  A    between atoms: C_5  and  N_6 
REMARK    3  A    between atoms: C_8  and  C_9 
REMARK    4  A    between atoms: C_9  and  N_10 
REMARK       I    between atoms: N_10  and  C_11 
REMARK       I    between atoms: C_11  and  N_12 
REMARK    5  A    between atoms: N_12  and  C_13 
REMARK    6  A    between atoms: C_13  and  C_14 
ROOT
HETATM    1  N   UNL     1     -41.397  58.209 -51.279  1.00  0.00    -0.343 N 
HETATM    2  C   UNL     1     -41.699  56.958 -50.814  1.00  0.00     0.316 C 
HETATM    3  N   UNL     1     -40.564  56.243 -50.546  1.00  0.00    -0.339 N 
HETATM    4  O   UNL     1     -42.835  56.551 -50.619  1.00  0.00    -0.248 OA
HETATM    5  H   UNL     1     -40.449  58.527 -51.138  1.00  0.00     0.164 HD
HETATM    6  H   UNL     1     -39.759  56.457 -51.114  1.00  0.00     0.164 HD
ENDROOT
BRANCH   1   7
HETATM    7  C   UNL     1     -42.419  59.224 -51.464  1.00  0.00     0.130 C 
BRANCH   7   8
HETATM    8  C   UNL     1     -42.201  60.084 -52.720  1.00  0.00     0.023 C 
HETATM    9  C   UNL     1     -41.649  59.276 -53.899  1.00  0.00     0.129 C 
HETATM   10  N   UNL     1     -42.841  58.721 -54.539  1.00  0.00    -0.380 N 
HETATM   11  C   UNL     1     -44.047  59.435 -54.126  1.00  0.00     0.123 C 
HETATM   12  C   UNL     1     -43.524  60.601 -53.286  1.00  0.00     0.028 C 
BRANCH  10  13
HETATM   13  C   UNL     1     -42.829  57.639 -55.391  1.00  0.00     0.032 A 
HETATM   14  C   UNL     1     -42.916  57.795 -56.788  1.00  0.00     0.066 A 
HETATM   15  C   UNL     1     -42.928  56.698 -57.662  1.00  0.00     0.070 A 
HETATM   16  C   UNL     1     -42.864  55.408 -57.143  1.00  0.00     0.037 A 
HETATM   17  C   UNL     1     -42.764  55.217 -55.771  1.00  0.00     0.005 A 
HETATM   18  C   UNL     1     -42.740  56.322 -54.913  1.00  0.00     0.029 A 
BRANCH  15  19
HETATM   19  O   UNL     1     -43.012  56.758 -59.027  1.00  0.00    -0.356 OA
HETATM   20  C   UNL     1     -42.078  57.597 -59.692  1.00  0.00     0.210 C 
ENDBRANCH  15  19
ENDBRANCH  10  13
ENDBRANCH   7   8
ENDBRANCH   1   7
BRANCH   3  21
HETATM   21  C   UNL     1     -40.661  54.889 -50.050  1.00  0.00     0.162 C 
BRANCH  21  22
HETATM   22  C   UNL     1     -40.531  53.892 -51.171  1.00  0.00    -0.040 A 
HETATM   23  C   UNL     1     -40.146  52.567 -50.916  1.00  0.00     0.021 A 
HETATM   24  C   UNL     1     -39.993  51.640 -51.962  1.00  0.00    -0.025 A 
HETATM   25  C   UNL     1     -40.234  52.048 -53.293  1.00  0.00    -0.026 A 
HETATM   26  C   UNL     1     -39.599  50.314 -51.714  1.00  0.00     0.012 A 
HETATM   27  C   UNL     1     -40.621  53.373 -53.543  1.00  0.00     0.013 A 
HETATM   28  C   UNL     1     -40.077  51.124 -54.337  1.00  0.00     0.012 A 
HETATM   29  C   UNL     1     -40.763  54.285 -52.496  1.00  0.00     0.010 A 
HETATM   30  C   UNL     1     -39.683  49.811 -54.075  1.00  0.00     0.001 A 
HETATM   31  C   UNL     1     -39.444  49.407 -52.765  1.00  0.00     0.001 A 
ENDBRANCH  21  22
ENDBRANCH   3  21
TORSDOF 6
ENDMDL
MODEL 5
REMARK VINA RESULT:      -8.3     15.112     17.408
REMARK  6 active torsions:
REMARK  status: ('A' for Active; 'I' for Inactive)
REMARK    1  A    between atoms: O_2  and  C_3 
REMARK    2  A    between atoms: C_5  and  N_6 
REMARK    3  A    between atoms: C_8  and  C_9 
REMARK    4  A    between atoms: C_9  and  N_10 
REMARK       I    between atoms: N_10  and  C_11 
REMARK       I    between atoms: C_11  and  N_12 
REMARK    5  A    between atoms: N_12  and  C_13 
REMARK    6  A    between atoms: C_13  and  C_14 
ROOT
HETATM    1  N   UNL     1     -37.241  42.278 -55.451  1.00  0.00    -0.343 N 
HETATM    2  C   UNL     1     -37.386  41.332 -54.473  1.00  0.00     0.316 C 
HETATM    3  N   UNL     1     -37.288  41.888 -53.227  1.00  0.00    -0.339 N 
HETATM    4  O   UNL     1     -37.620  40.151 -54.687  1.00  0.00    -0.248 OA
HETATM    5  H   UNL     1     -37.330  43.241 -55.163  1.00  0.00     0.164 HD
HETATM    6  H   UNL     1     -36.694  42.698 -53.148  1.00  0.00     0.164 HD
ENDROOT
BRANCH   1   7
HETATM    7  C   UNL     1     -37.483  41.976 -56.850  1.00  0.00     0.130 C 
BRANCH   7   8
HETATM    8  C   UNL     1     -36.198  41.931 -57.693  1.00  0.00     0.023 C 
HETATM    9  C   UNL     1     -34.931  41.880 -56.833  1.00  0.00     0.129 C 
HETATM   10  N   UNL     1     -34.746  40.456 -56.554  1.00  0.00    -0.380 N 
HETATM   11  C   UNL     1     -35.514  39.630 -57.483  1.00  0.00     0.123 C 
HETATM   12  C   UNL     1     -36.090  40.630 -58.488  1.00  0.00     0.028 C 
BRANCH  10  13
HETATM   13  C   UNL     1     -33.978  39.962 -55.524  1.00  0.00     0.032 A 
HETATM   14  C   UNL     1     -34.440  38.930 -54.684  1.00  0.00     0.066 A 
HETATM   15  C   UNL     1     -33.674  38.435 -53.619  1.00  0.00     0.070 A 
HETATM   16  C   UNL     1     -32.419  38.983 -53.367  1.00  0.00     0.037 A 
HETATM   17  C   UNL     1     -31.926  39.992 -54.183  1.00  0.00     0.005 A 
HETATM   18  C   UNL     1     -32.697  40.466 -55.249  1.00  0.00     0.029 A 
BRANCH  15  19
HETATM   19  O   UNL     1     -34.045  37.441 -52.754  1.00  0.00    -0.356 OA
HETATM   20  C   UNL     1     -33.016  36.858 -51.967  1.00  0.00     0.210 C 
ENDBRANCH  15  19
ENDBRANCH  10  13
ENDBRANCH   7   8
ENDBRANCH   1   7
BRANCH   3  21
HETATM   21  C   UNL     1     -37.407  41.057 -52.051  1.00  0.00     0.162 C 
BRANCH  21  22
HETATM   22  C   UNL     1     -36.058  40.803 -51.430  1.00  0.00    -0.040 A 
HETATM   23  C   UNL     1     -35.870  39.754 -50.519  1.00  0.00     0.021 A 
HETATM   24  C   UNL     1     -34.621  39.531 -49.912  1.00  0.00    -0.025 A 
HETATM   25  C   UNL     1     -33.535  40.377 -50.230  1.00  0.00    -0.026 A 
HETATM   26  C   UNL     1     -34.429  38.488 -48.992  1.00  0.00     0.012 A 
HETATM   27  C   UNL     1     -33.726  41.425 -51.144  1.00  0.00     0.013 A 
HETATM   28  C   UNL     1     -32.289  40.158 -49.621  1.00  0.00     0.012 A 
HETATM   29  C   UNL     1     -34.973  41.637 -51.733  1.00  0.00     0.010 A 
HETATM   30  C   UNL     1     -32.115  39.118 -48.706  1.00  0.00     0.001 A 
HETATM   31  C   UNL     1     -33.184  38.285 -48.392  1.00  0.00     0.001 A 
ENDBRANCH  21  22
ENDBRANCH   3  21
TORSDOF 6
ENDMDL
MODEL 6
REMARK VINA RESULT:      -8.0      1.934      3.041
REMARK  6 active torsions:
REMARK  status: ('A' for Active; 'I' for Inactive)
REMARK    1  A    between atoms: O_2  and  C_3 
REMARK    2  A    between atoms: C_5  and  N_6 
REMARK    3  A    between atoms: C_8  and  C_9 
REMARK    4  A    between atoms: C_9  and  N_10 
REMARK       I    between atoms: N_10  and  C_11 
REMARK       I    between atoms: C_11  and  N_12 
REMARK    5  A    between atoms: N_12  and  C_13 
REMARK    6  A    between atoms: C_13  and  C_14 
ROOT
HETATM    1  N   UNL     1     -44.342  57.083 -56.269  1.00  0.00    -0.343 N 
HETATM    2  C   UNL     1     -43.508  56.016 -56.463  1.00  0.00     0.316 C 
HETATM    3  N   UNL     1     -43.698  55.058 -55.505  1.00  0.00    -0.339 N 
HETATM    4  O   UNL     1     -42.729  55.911 -57.400  1.00  0.00    -0.248 OA
HETATM    5  H   UNL     1     -45.120  56.940 -55.642  1.00  0.00     0.164 HD
HETATM    6  H   UNL     1     -43.995  55.388 -54.599  1.00  0.00     0.164 HD
ENDROOT
BRANCH   1   7
HETATM    7  C   UNL     1     -44.463  58.147 -57.249  1.00  0.00     0.130 C 
BRANCH   7   8
HETATM    8  C   UNL     1     -44.532  59.549 -56.620  1.00  0.00     0.023 C 
HETATM    9  C   UNL     1     -44.411  59.515 -55.093  1.00  0.00     0.129 C 
HETATM   10  N   UNL     1     -42.968  59.524 -54.850  1.00  0.00    -0.380 N 
HETATM   11  C   UNL     1     -42.234  59.972 -56.031  1.00  0.00     0.123 C 
HETATM   12  C   UNL     1     -43.326  60.403 -57.012  1.00  0.00     0.028 C 
BRANCH  10  13
HETATM   13  C   UNL     1     -42.379  59.124 -53.671  1.00  0.00     0.032 A 
HETATM   14  C   UNL     1     -41.046  59.457 -53.359  1.00  0.00     0.066 A 
HETATM   15  C   UNL     1     -40.430  59.035 -52.172  1.00  0.00     0.070 A 
HETATM   16  C   UNL     1     -41.146  58.252 -51.271  1.00  0.00     0.037 A 
HETATM   17  C   UNL     1     -42.466  57.917 -51.539  1.00  0.00     0.005 A 
HETATM   18  C   UNL     1     -43.071  58.356 -52.722  1.00  0.00     0.029 A 
BRANCH  15  19
HETATM   19  O   UNL     1     -39.144  59.309 -51.792  1.00  0.00    -0.356 OA
HETATM   20  C   UNL     1     -38.933  59.622 -50.422  1.00  0.00     0.210 C 
ENDBRANCH  15  19
ENDBRANCH  10  13
ENDBRANCH   7   8
ENDBRANCH   1   7
BRANCH   3  21
HETATM   21  C   UNL     1     -42.910  53.847 -55.523  1.00  0.00     0.162 C 
BRANCH  21  22
HETATM   22  C   UNL     1     -42.130  53.691 -54.244  1.00  0.00    -0.040 A 
HETATM   23  C   UNL     1     -42.616  54.211 -53.036  1.00  0.00     0.021 A 
HETATM   24  C   UNL     1     -41.877  54.096 -51.845  1.00  0.00    -0.025 A 
HETATM   25  C   UNL     1     -40.625  53.441 -51.865  1.00  0.00    -0.026 A 
HETATM   26  C   UNL     1     -42.353  54.623 -50.633  1.00  0.00     0.012 A 
HETATM   27  C   UNL     1     -40.143  52.920 -53.075  1.00  0.00     0.013 A 
HETATM   28  C   UNL     1     -39.886  53.330 -50.677  1.00  0.00     0.012 A 
HETATM   29  C   UNL     1     -40.885  53.047 -54.251  1.00  0.00     0.010 A 
HETATM   30  C   UNL     1     -40.372  53.861 -49.481  1.00  0.00     0.001 A 
HETATM   31  C   UNL     1     -41.604  54.507 -49.460  1.00  0.00     0.001 A 
ENDBRANCH  21  22
ENDBRANCH   3  21
TORSDOF 6
ENDMDL
MODEL 7
REMARK VINA RESULT:      -8.0      2.379      5.166
REMARK  6 active torsions:
REMARK  status: ('A' for Active; 'I' for Inactive)
REMARK    1  A    between atoms: O_2  and  C_3 
REMARK    2  A    between atoms: C_5  and  N_6 
REMARK    3  A    between atoms: C_8  and  C_9 
REMARK    4  A    between atoms: C_9  and  N_10 
REMARK       I    between atoms: N_10  and  C_11 
REMARK       I    between atoms: C_11  and  N_12 
REMARK    5  A    between atoms: N_12  and  C_13 
REMARK    6  A    between atoms: C_13  and  C_14 
ROOT
HETATM    1  N   UNL     1     -43.433  57.173 -53.522  1.00  0.00    -0.343 N 
HETATM    2  C   UNL     1     -42.945  56.810 -52.296  1.00  0.00     0.316 C 
HETATM    3  N   UNL     1     -41.843  56.008 -52.420  1.00  0.00    -0.339 N 
HETATM    4  O   UNL     1     -43.406  57.193 -51.230  1.00  0.00    -0.248 OA
HETATM    5  H   UNL     1     -42.821  57.031 -54.312  1.00  0.00     0.164 HD
HETATM    6  H   UNL     1     -41.810  55.422 -53.239  1.00  0.00     0.164 HD
ENDROOT
BRANCH   1   7
HETATM    7  C   UNL     1     -44.484  58.164 -53.664  1.00  0.00     0.130 C 
BRANCH   7   8
HETATM    8  C   UNL     1     -44.034  59.424 -54.423  1.00  0.00     0.023 C 
HETATM    9  C   UNL     1     -43.019  59.114 -55.528  1.00  0.00     0.129 C 
HETATM   10  N   UNL     1     -43.846  58.765 -56.683  1.00  0.00    -0.380 N 
HETATM   11  C   UNL     1     -45.221  59.228 -56.511  1.00  0.00     0.123 C 
HETATM   12  C   UNL     1     -45.184  60.044 -55.217  1.00  0.00     0.028 C 
BRANCH  10  13
HETATM   13  C   UNL     1     -43.393  58.058 -57.774  1.00  0.00     0.032 A 
HETATM   14  C   UNL     1     -43.918  56.795 -58.109  1.00  0.00     0.066 A 
HETATM   15  C   UNL     1     -43.447  56.057 -59.205  1.00  0.00     0.070 A 
HETATM   16  C   UNL     1     -42.419  56.575 -59.987  1.00  0.00     0.037 A 
HETATM   17  C   UNL     1     -41.886  57.824 -59.695  1.00  0.00     0.005 A 
HETATM   18  C   UNL     1     -42.375  58.553 -58.606  1.00  0.00     0.029 A 
BRANCH  15  19
HETATM   19  O   UNL     1     -43.896  54.826 -59.599  1.00  0.00    -0.356 OA
HETATM   20  C   UNL     1     -44.883  54.799 -60.621  1.00  0.00     0.210 C 
ENDBRANCH  15  19
ENDBRANCH  10  13
ENDBRANCH   7   8
ENDBRANCH   1   7
BRANCH   3  21
HETATM   21  C   UNL     1     -41.176  55.507 -51.240  1.00  0.00     0.162 C 
BRANCH  21  22
HETATM   22  C   UNL     1     -40.730  54.082 -51.436  1.00  0.00    -0.040 A 
HETATM   23  C   UNL     1     -40.598  53.538 -52.722  1.00  0.00     0.021 A 
HETATM   24  C   UNL     1     -40.213  52.199 -52.910  1.00  0.00    -0.025 A 
HETATM   25  C   UNL     1     -39.952  51.387 -51.784  1.00  0.00    -0.026 A 
HETATM   26  C   UNL     1     -40.088  51.646 -54.195  1.00  0.00     0.012 A 
HETATM   27  C   UNL     1     -40.083  51.935 -50.499  1.00  0.00     0.013 A 
HETATM   28  C   UNL     1     -39.572  50.049 -51.972  1.00  0.00     0.012 A 
HETATM   29  C   UNL     1     -40.472  53.264 -50.327  1.00  0.00     0.010 A 
HETATM   30  C   UNL     1     -39.454  49.514 -53.255  1.00  0.00     0.001 A 
HETATM   31  C   UNL     1     -39.712  50.312 -54.366  1.00  0.00     0.001 A 
ENDBRANCH  21  22
ENDBRANCH   3  21
TORSDOF 6
ENDMDL
MODEL 8
REMARK VINA RESULT:      -8.0      2.053      5.020
REMARK  6 active torsions:
REMARK  status: ('A' for Active; 'I' for Inactive)
REMARK    1  A    between atoms: O_2  and  C_3 
REMARK    2  A    between atoms: C_5  and  N_6 
REMARK    3  A    between atoms: C_8  and  C_9 
REMARK    4  A    between atoms: C_9  and  N_10 
REMARK       I    between atoms: N_10  and  C_11 
REMARK       I    between atoms: C_11  and  N_12 
REMARK    5  A    between atoms: N_12  and  C_13 
REMARK    6  A    between atoms: C_13  and  C_14 
ROOT
HETATM    1  N   UNL     1     -41.985  58.834 -53.290  1.00  0.00    -0.343 N 
HETATM    2  C   UNL     1     -42.173  57.857 -52.351  1.00  0.00     0.316 C 
HETATM    3  N   UNL     1     -41.250  56.856 -52.487  1.00  0.00    -0.339 N 
HETATM    4  O   UNL     1     -43.025  57.897 -51.475  1.00  0.00    -0.248 OA
HETATM    5  H   UNL     1     -41.099  58.831 -53.774  1.00  0.00     0.164 HD
HETATM    6  H   UNL     1     -40.913  56.686 -53.421  1.00  0.00     0.164 HD
ENDROOT
BRANCH   1   7
HETATM    7  C   UNL     1     -42.717  60.087 -53.247  1.00  0.00     0.130 C 
BRANCH   7   8
HETATM    8  C   UNL     1     -42.799  60.790 -54.612  1.00  0.00     0.023 C 
HETATM    9  C   UNL     1     -42.330  59.895 -55.765  1.00  0.00     0.129 C 
HETATM   10  N   UNL     1     -43.524  59.135 -56.133  1.00  0.00    -0.380 N 
HETATM   11  C   UNL     1     -44.736  59.765 -55.613  1.00  0.00     0.123 C 
HETATM   12  C   UNL     1     -44.246  61.082 -55.010  1.00  0.00     0.028 C 
BRANCH  10  13
HETATM   13  C   UNL     1     -43.503  57.956 -56.845  1.00  0.00     0.032 A 
HETATM   14  C   UNL     1     -44.205  57.810 -58.057  1.00  0.00     0.066 A 
HETATM   15  C   UNL     1     -44.207  56.607 -58.778  1.00  0.00     0.070 A 
HETATM   16  C   UNL     1     -43.506  55.511 -58.282  1.00  0.00     0.037 A 
HETATM   17  C   UNL     1     -42.792  55.623 -57.097  1.00  0.00     0.005 A 
HETATM   18  C   UNL     1     -42.789  56.834 -56.396  1.00  0.00     0.029 A 
BRANCH  15  19
HETATM   19  O   UNL     1     -44.862  56.377 -59.957  1.00  0.00    -0.356 OA
HETATM   20  C   UNL     1     -44.624  55.127 -60.591  1.00  0.00     0.210 C 
ENDBRANCH  15  19
ENDBRANCH  10  13
ENDBRANCH   7   8
ENDBRANCH   1   7
BRANCH   3  21
HETATM   21  C   UNL     1     -41.276  55.719 -51.594  1.00  0.00     0.162 C 
BRANCH  21  22
HETATM   22  C   UNL     1     -40.973  54.443 -52.334  1.00  0.00    -0.040 A 
HETATM   23  C   UNL     1     -40.518  53.306 -51.652  1.00  0.00     0.021 A 
HETATM   24  C   UNL     1     -40.203  52.121 -52.341  1.00  0.00    -0.025 A 
HETATM   25  C   UNL     1     -40.350  52.075 -53.746  1.00  0.00    -0.026 A 
HETATM   26  C   UNL     1     -39.738  50.981 -51.665  1.00  0.00     0.012 A 
HETATM   27  C   UNL     1     -40.808  53.215 -54.424  1.00  0.00     0.013 A 
HETATM   28  C   UNL     1     -40.032  50.894 -54.434  1.00  0.00     0.012 A 
HETATM   29  C   UNL     1     -41.111  54.385 -53.728  1.00  0.00     0.010 A 
HETATM   30  C   UNL     1     -39.569  49.771 -53.748  1.00  0.00     0.001 A 
HETATM   31  C   UNL     1     -39.422  49.814 -52.365  1.00  0.00     0.001 A 
ENDBRANCH  21  22
ENDBRANCH   3  21
TORSDOF 6
ENDMDL
MODEL 9
REMARK VINA RESULT:      -7.9      4.125      6.835
REMARK  6 active torsions:
REMARK  status: ('A' for Active; 'I' for Inactive)
REMARK    1  A    between atoms: O_2  and  C_3 
REMARK    2  A    between atoms: C_5  and  N_6 
REMARK    3  A    between atoms: C_8  and  C_9 
REMARK    4  A    between atoms: C_9  and  N_10 
REMARK       I    between atoms: N_10  and  C_11 
REMARK       I    between atoms: C_11  and  N_12 
REMARK    5  A    between atoms: N_12  and  C_13 
REMARK    6  A    between atoms: C_13  and  C_14 
ROOT
HETATM    1  N   UNL     1     -43.022  55.770 -57.229  1.00  0.00    -0.343 N 
HETATM    2  C   UNL     1     -42.533  56.190 -56.022  1.00  0.00     0.316 C 
HETATM    3  N   UNL     1     -41.544  55.358 -55.572  1.00  0.00    -0.339 N 
HETATM    4  O   UNL     1     -42.900  57.203 -55.444  1.00  0.00    -0.248 OA
HETATM    5  H   UNL     1     -42.464  55.096 -57.732  1.00  0.00     0.164 HD
HETATM    6  H   UNL     1     -41.616  54.392 -55.850  1.00  0.00     0.164 HD
ENDROOT
BRANCH   1   7
HETATM    7  C   UNL     1     -43.949  56.578 -58.001  1.00  0.00     0.130 C 
BRANCH   7   8
HETATM    8  C   UNL     1     -43.868  56.316 -59.514  1.00  0.00     0.023 C 
HETATM    9  C   UNL     1     -44.275  57.538 -60.346  1.00  0.00     0.129 C 
HETATM   10  N   UNL     1     -43.043  58.318 -60.458  1.00  0.00    -0.380 N 
HETATM   11  C   UNL     1     -41.870  57.506 -60.145  1.00  0.00     0.123 C 
HETATM   12  C   UNL     1     -42.426  56.092 -59.971  1.00  0.00     0.028 C 
BRANCH  10  13
HETATM   13  C   UNL     1     -43.001  59.656 -60.781  1.00  0.00     0.032 A 
HETATM   14  C   UNL     1     -41.798  60.388 -60.751  1.00  0.00     0.066 A 
HETATM   15  C   UNL     1     -41.749  61.756 -61.056  1.00  0.00     0.070 A 
HETATM   16  C   UNL     1     -42.924  62.425 -61.388  1.00  0.00     0.037 A 
HETATM   17  C   UNL     1     -44.126  61.733 -61.441  1.00  0.00     0.005 A 
HETATM   18  C   UNL     1     -44.156  60.365 -61.146  1.00  0.00     0.029 A 
BRANCH  15  19
HETATM   19  O   UNL     1     -40.629  62.542 -61.049  1.00  0.00    -0.356 OA
HETATM   20  C   UNL     1     -40.073  62.879 -62.313  1.00  0.00     0.210 C 
ENDBRANCH  15  19
ENDBRANCH  10  13
ENDBRANCH   7   8
ENDBRANCH   1   7
BRANCH   3  21
HETATM   21  C   UNL     1     -40.895  55.620 -54.308  1.00  0.00     0.162 C 
BRANCH  21  22
HETATM   22  C   UNL     1     -40.556  54.336 -53.598  1.00  0.00    -0.040 A 
HETATM   23  C   UNL     1     -40.361  53.147 -54.315  1.00  0.00     0.021 A 
HETATM   24  C   UNL     1     -40.075  51.938 -53.656  1.00  0.00    -0.025 A 
HETATM   25  C   UNL     1     -39.979  51.921 -52.246  1.00  0.00    -0.026 A 
HETATM   26  C   UNL     1     -39.887  50.741 -54.368  1.00  0.00     0.012 A 
HETATM   27  C   UNL     1     -40.173  53.114 -51.533  1.00  0.00     0.013 A 
HETATM   28  C   UNL     1     -39.699  50.714 -51.588  1.00  0.00     0.012 A 
HETATM   29  C   UNL     1     -40.463  54.305 -52.200  1.00  0.00     0.010 A 
HETATM   30  C   UNL     1     -39.517  49.533 -52.310  1.00  0.00     0.001 A 
HETATM   31  C   UNL     1     -39.611  49.547 -53.698  1.00  0.00     0.001 A 
ENDBRANCH  21  22
ENDBRANCH   3  21
TORSDOF 6
ENDMDL
MODEL 10
REMARK VINA RESULT:      -7.8      3.910      6.919
REMARK  6 active torsions:
REMARK  status: ('A' for Active; 'I' for Inactive)
REMARK    1  A    between atoms: O_2  and  C_3 
REMARK    2  A    between atoms: C_5  and  N_6 
REMARK    3  A    between atoms: C_8  and  C_9 
REMARK    4  A    between atoms: C_9  and  N_10 
REMARK       I    between atoms: N_10  and  C_11 
REMARK       I    between atoms: C_11  and  N_12 
REMARK    5  A    between atoms: N_12  and  C_13 
REMARK    6  A    between atoms: C_13  and  C_14 
ROOT
HETATM    1  N   UNL     1     -42.448  55.570 -57.362  1.00  0.00    -0.343 N 
HETATM    2  C   UNL     1     -42.426  55.796 -56.013  1.00  0.00     0.316 C 
HETATM    3  N   UNL     1     -41.198  55.509 -55.483  1.00  0.00    -0.339 N 
HETATM    4  O   UNL     1     -43.367  56.243 -55.374  1.00  0.00    -0.248 OA
HETATM    5  H   UNL     1     -41.553  55.471 -57.818  1.00  0.00     0.164 HD
HETATM    6  H   UNL     1     -40.674  54.781 -55.944  1.00  0.00     0.164 HD
ENDROOT
BRANCH   1   7
HETATM    7  C   UNL     1     -43.575  55.967 -58.186  1.00  0.00     0.130 C 
BRANCH   7   8
HETATM    8  C   UNL     1     -43.252  55.988 -59.690  1.00  0.00     0.023 C 
HETATM    9  C   UNL     1     -44.323  56.712 -60.512  1.00  0.00     0.129 C 
HETATM   10  N   UNL     1     -43.929  58.119 -60.452  1.00  0.00    -0.380 N 
HETATM   11  C   UNL     1     -42.535  58.263 -60.038  1.00  0.00     0.123 C 
HETATM   12  C   UNL     1     -42.008  56.827 -59.987  1.00  0.00     0.028 C 
BRANCH  10  13
HETATM   13  C   UNL     1     -44.777  59.172 -60.713  1.00  0.00     0.032 A 
HETATM   14  C   UNL     1     -46.129  59.151 -60.320  1.00  0.00     0.066 A 
HETATM   15  C   UNL     1     -47.006  60.208 -60.602  1.00  0.00     0.070 A 
HETATM   16  C   UNL     1     -46.537  61.316 -61.303  1.00  0.00     0.037 A 
HETATM   17  C   UNL     1     -45.206  61.378 -61.694  1.00  0.00     0.005 A 
HETATM   18  C   UNL     1     -44.342  60.320 -61.394  1.00  0.00     0.029 A 
BRANCH  15  19
HETATM   19  O   UNL     1     -48.330  60.269 -60.263  1.00  0.00    -0.356 OA
HETATM   20  C   UNL     1     -49.271  60.162 -61.323  1.00  0.00     0.210 C 
ENDBRANCH  15  19
ENDBRANCH  10  13
ENDBRANCH   7   8
ENDBRANCH   1   7
BRANCH   3  21
HETATM   21  C   UNL     1     -40.963  55.674 -54.067  1.00  0.00     0.162 C 
BRANCH  21  22
HETATM   22  C   UNL     1     -40.600  54.362 -53.422  1.00  0.00    -0.040 A 
HETATM   23  C   UNL     1     -40.413  53.207 -54.195  1.00  0.00     0.021 A 
HETATM   24  C   UNL     1     -40.106  51.972 -53.597  1.00  0.00    -0.025 A 
HETATM   25  C   UNL     1     -39.980  51.894 -52.191  1.00  0.00    -0.026 A 
HETATM   26  C   UNL     1     -39.927  50.810 -54.364  1.00  0.00     0.012 A 
HETATM   27  C   UNL     1     -40.166  53.053 -51.421  1.00  0.00     0.013 A 
HETATM   28  C   UNL     1     -39.678  50.661 -51.593  1.00  0.00     0.012 A 
HETATM   29  C   UNL     1     -40.476  54.270 -52.029  1.00  0.00     0.010 A 
HETATM   30  C   UNL     1     -39.504  49.515 -52.370  1.00  0.00     0.001 A 
HETATM   31  C   UNL     1     -39.629  49.589 -53.754  1.00  0.00     0.001 A 
ENDBRANCH  21  22
ENDBRANCH   3  21
TORSDOF 6
ENDMDL
