MODEL 1
REMARK VINA RESULT:      -7.5      0.000      0.000
REMARK  9 active torsions:
REMARK  status: ('A' for Active; 'I' for Inactive)
REMARK    1  A    between atoms: C_2  and  C_3 
REMARK    2  A    between atoms: C_4  and  N_5 
REMARK       I    between atoms: N_5  and  C_6 
REMARK    3  A    between atoms: C_6  and  C_7 
REMARK    4  A    between atoms: C_7  and  S_8 
REMARK    5  A    between atoms: S_8  and  C_9 
REMARK    6  A    between atoms: C_13  and  C_14 
REMARK       I    between atoms: C_14  and  N_15 
REMARK    7  A    between atoms: N_15  and  C_16 
REMARK    8  A    between atoms: C_17  and  O_18 
REMARK    9  A    between atoms: C_25  and  C_26 
ROOT
HETATM    1  C   UNL     1     -43.267  60.513 -55.380  1.00  0.00     0.088 C 
HETATM    2  N   UNL     1     -43.538  60.652 -54.028  1.00  0.00    -0.353 N 
HETATM    3  C   UNL     1     -42.720  60.129 -53.028  1.00  0.00     0.019 C 
HETATM    4  C   UNL     1     -42.727  60.940 -51.756  1.00  0.00     0.069 C 
HETATM    5  C   UNL     1     -41.905  59.081 -53.306  1.00  0.00     0.046 C 
HETATM    6  C   UNL     1     -41.810  58.579 -54.764  1.00  0.00     0.106 C 
HETATM    7  C   UNL     1     -42.450  59.519 -55.793  1.00  0.00     0.069 C 
HETATM    8  C   UNL     1     -42.043  59.358 -57.153  1.00  0.00     0.099 C 
HETATM    9  N   UNL     1     -41.705  59.213 -58.253  1.00  0.00    -0.192 NA
HETATM   10  H   UNL     1     -43.961  61.554 -53.816  1.00  0.00     0.166 HD
ENDROOT
BRANCH   1  11
HETATM   11  S   UNL     1     -43.806  61.784 -56.457  1.00  0.00    -0.102 SA
BRANCH  11  12
HETATM   12  C   UNL     1     -45.448  61.202 -56.982  1.00  0.00     0.184 C 
BRANCH  12  13
HETATM   13  C   UNL     1     -45.260  60.364 -58.246  1.00  0.00     0.231 C 
HETATM   14  N   UNL     1     -45.679  59.049 -58.084  1.00  0.00    -0.326 N 
HETATM   15  H   UNL     1     -45.876  58.761 -57.136  1.00  0.00     0.169 HD
HETATM   16  O   UNL     1     -44.778  60.847 -59.265  1.00  0.00    -0.272 OA
BRANCH  14  17
HETATM   17  C   UNL     1     -45.991  58.112 -59.096  1.00  0.00     0.041 A 
HETATM   18  C   UNL     1     -45.255  56.908 -59.172  1.00  0.00    -0.032 A 
HETATM   19  C   UNL     1     -45.642  55.924 -60.103  1.00  0.00     0.009 A 
HETATM   20  C   UNL     1     -46.723  56.128 -60.956  1.00  0.00     0.001 A 
HETATM   21  C   UNL     1     -47.430  57.322 -60.895  1.00  0.00     0.002 A 
HETATM   22  C   UNL     1     -47.065  58.307 -59.974  1.00  0.00     0.030 A 
BRANCH  18  23
HETATM   23  C   UNL     1     -44.057  56.608 -58.298  1.00  0.00     0.036 C 
HETATM   24  C   UNL     1     -42.959  55.870 -59.050  1.00  0.00     0.010 C 
ENDBRANCH  18  23
ENDBRANCH  14  17
ENDBRANCH  12  13
ENDBRANCH  11  12
ENDBRANCH   1  11
BRANCH   6  25
HETATM   25  C   UNL     1     -42.275  57.140 -54.970  1.00  0.00    -0.044 A 
HETATM   26  C   UNL     1     -41.414  56.141 -55.443  1.00  0.00     0.008 A 
HETATM   27  C   UNL     1     -41.852  54.818 -55.548  1.00  0.00     0.001 A 
HETATM   28  C   UNL     1     -43.152  54.477 -55.180  1.00  0.00     0.000 A 
HETATM   29  C   UNL     1     -44.018  55.457 -54.704  1.00  0.00     0.001 A 
HETATM   30  C   UNL     1     -43.584  56.779 -54.601  1.00  0.00     0.008 A 
ENDBRANCH   6  25
BRANCH   5  31
HETATM   31  C   UNL     1     -40.806  58.556 -52.430  1.00  0.00     0.255 C 
HETATM   32  N   UNL     1     -40.894  57.490 -51.592  1.00  0.00    -0.321 N 
HETATM   33  H   UNL     1     -40.161  57.548 -50.894  1.00  0.00     0.169 HD
HETATM   34  O   UNL     1     -39.759  59.212 -52.357  1.00  0.00    -0.268 OA
BRANCH  32  35
HETATM   35  C   UNL     1     -41.743  56.378 -51.478  1.00  0.00     0.068 A 
HETATM   36  C   UNL     1     -43.068  56.404 -51.032  1.00  0.00     0.095 A 
HETATM   37  C   UNL     1     -43.780  55.202 -50.894  1.00  0.00     0.039 A 
HETATM   38  C   UNL     1     -43.204  53.988 -51.267  1.00  0.00     0.003 A 
HETATM   39  C   UNL     1     -41.916  53.967 -51.792  1.00  0.00     0.002 A 
HETATM   40  C   UNL     1     -41.196  55.157 -51.906  1.00  0.00     0.032 A 
BRANCH  36  41
HETATM   41  O   UNL     1     -43.668  57.609 -50.782  1.00  0.00    -0.354 OA
HETATM   42  C   UNL     1     -44.998  57.671 -51.303  1.00  0.00     0.210 C 
ENDBRANCH  36  41
ENDBRANCH  32  35
ENDBRANCH   5  31
TORSDOF 9
ENDMDL
MODEL 2
REMARK VINA RESULT:      -7.3      2.983      8.808
REMARK  9 active torsions:
REMARK  status: ('A' for Active; 'I' for Inactive)
REMARK    1  A    between atoms: C_2  and  C_3 
REMARK    2  A    between atoms: C_4  and  N_5 
REMARK       I    between atoms: N_5  and  C_6 
REMARK    3  A    between atoms: C_6  and  C_7 
REMARK    4  A    between atoms: C_7  and  S_8 
REMARK    5  A    between atoms: S_8  and  C_9 
REMARK    6  A    between atoms: C_13  and  C_14 
REMARK       I    between atoms: C_14  and  N_15 
REMARK    7  A    between atoms: N_15  and  C_16 
REMARK    8  A    between atoms: C_17  and  O_18 
REMARK    9  A    between atoms: C_25  and  C_26 
ROOT
HETATM    1  C   UNL     1     -42.947  56.944 -55.754  1.00  0.00     0.088 C 
HETATM    2  N   UNL     1     -43.586  56.175 -56.714  1.00  0.00    -0.353 N 
HETATM    3  C   UNL     1     -43.573  56.486 -58.073  1.00  0.00     0.019 C 
HETATM    4  C   UNL     1     -43.638  55.275 -58.970  1.00  0.00     0.069 C 
HETATM    5  C   UNL     1     -43.358  57.766 -58.468  1.00  0.00     0.046 C 
HETATM    6  C   UNL     1     -43.001  58.824 -57.400  1.00  0.00     0.106 C 
HETATM    7  C   UNL     1     -42.654  58.236 -56.027  1.00  0.00     0.069 C 
HETATM    8  C   UNL     1     -41.919  59.073 -55.135  1.00  0.00     0.099 C 
HETATM    9  N   UNL     1     -41.324  59.768 -54.420  1.00  0.00    -0.192 NA
HETATM   10  H   UNL     1     -43.542  55.182 -56.496  1.00  0.00     0.166 HD
ENDROOT
BRANCH   1  11
HETATM   11  S   UNL     1     -42.338  56.132 -54.328  1.00  0.00    -0.102 SA
BRANCH  11  12
HETATM   12  C   UNL     1     -40.911  55.204 -54.968  1.00  0.00     0.184 C 
BRANCH  12  13
HETATM   13  C   UNL     1     -41.095  53.739 -54.575  1.00  0.00     0.231 C 
HETATM   14  N   UNL     1     -39.912  53.143 -54.157  1.00  0.00    -0.326 N 
HETATM   15  H   UNL     1     -39.066  53.667 -54.331  1.00  0.00     0.169 HD
HETATM   16  O   UNL     1     -42.191  53.193 -54.648  1.00  0.00    -0.272 OA
BRANCH  14  17
HETATM   17  C   UNL     1     -39.763  51.958 -53.399  1.00  0.00     0.041 A 
HETATM   18  C   UNL     1     -39.795  52.033 -51.988  1.00  0.00    -0.032 A 
HETATM   19  C   UNL     1     -39.767  50.843 -51.236  1.00  0.00     0.009 A 
HETATM   20  C   UNL     1     -39.691  49.600 -51.861  1.00  0.00     0.001 A 
HETATM   21  C   UNL     1     -39.636  49.531 -53.247  1.00  0.00     0.002 A 
HETATM   22  C   UNL     1     -39.670  50.701 -54.009  1.00  0.00     0.030 A 
BRANCH  18  23
HETATM   23  C   UNL     1     -39.860  53.339 -51.225  1.00  0.00     0.036 C 
HETATM   24  C   UNL     1     -40.349  53.153 -49.797  1.00  0.00     0.010 C 
ENDBRANCH  18  23
ENDBRANCH  14  17
ENDBRANCH  12  13
ENDBRANCH  11  12
ENDBRANCH   1  11
BRANCH   6  25
HETATM   25  C   UNL     1     -44.013  59.960 -57.272  1.00  0.00    -0.044 A 
HETATM   26  C   UNL     1     -43.666  61.294 -57.522  1.00  0.00     0.008 A 
HETATM   27  C   UNL     1     -44.635  62.300 -57.470  1.00  0.00     0.001 A 
HETATM   28  C   UNL     1     -45.959  61.986 -57.170  1.00  0.00     0.000 A 
HETATM   29  C   UNL     1     -46.319  60.665 -56.923  1.00  0.00     0.001 A 
HETATM   30  C   UNL     1     -45.354  59.659 -56.972  1.00  0.00     0.008 A 
ENDBRANCH   6  25
BRANCH   5  31
HETATM   31  C   UNL     1     -43.080  58.226 -59.869  1.00  0.00     0.255 C 
HETATM   32  N   UNL     1     -43.998  58.718 -60.743  1.00  0.00    -0.321 N 
HETATM   33  H   UNL     1     -43.639  58.638 -61.688  1.00  0.00     0.169 HD
HETATM   34  O   UNL     1     -41.948  58.034 -60.329  1.00  0.00    -0.268 OA
BRANCH  32  35
HETATM   35  C   UNL     1     -45.279  59.279 -60.634  1.00  0.00     0.068 A 
HETATM   36  C   UNL     1     -46.460  58.576 -60.377  1.00  0.00     0.095 A 
HETATM   37  C   UNL     1     -47.689  59.255 -60.371  1.00  0.00     0.039 A 
HETATM   38  C   UNL     1     -47.735  60.639 -60.544  1.00  0.00     0.003 A 
HETATM   39  C   UNL     1     -46.556  61.354 -60.714  1.00  0.00     0.002 A 
HETATM   40  C   UNL     1     -45.335  60.678 -60.747  1.00  0.00     0.032 A 
BRANCH  36  41
HETATM   41  O   UNL     1     -46.396  57.239 -60.089  1.00  0.00    -0.354 OA
HETATM   42  C   UNL     1     -47.271  56.464 -60.913  1.00  0.00     0.210 C 
ENDBRANCH  36  41
ENDBRANCH  32  35
ENDBRANCH   5  31
TORSDOF 9
ENDMDL
MODEL 3
REMARK VINA RESULT:      -7.2      1.520      2.032
REMARK  9 active torsions:
REMARK  status: ('A' for Active; 'I' for Inactive)
REMARK    1  A    between atoms: C_2  and  C_3 
REMARK    2  A    between atoms: C_4  and  N_5 
REMARK       I    between atoms: N_5  and  C_6 
REMARK    3  A    between atoms: C_6  and  C_7 
REMARK    4  A    between atoms: C_7  and  S_8 
REMARK    5  A    between atoms: S_8  and  C_9 
REMARK    6  A    between atoms: C_13  and  C_14 
REMARK       I    between atoms: C_14  and  N_15 
REMARK    7  A    between atoms: N_15  and  C_16 
REMARK    8  A    between atoms: C_17  and  O_18 
REMARK    9  A    between atoms: C_25  and  C_26 
ROOT
HETATM    1  C   UNL     1     -44.261  60.058 -54.857  1.00  0.00     0.088 C 
HETATM    2  N   UNL     1     -44.989  59.799 -53.706  1.00  0.00    -0.353 N 
HETATM    3  C   UNL     1     -44.397  59.473 -52.487  1.00  0.00     0.019 C 
HETATM    4  C   UNL     1     -45.189  59.936 -51.288  1.00  0.00     0.069 C 
HETATM    5  C   UNL     1     -43.152  58.935 -52.466  1.00  0.00     0.046 C 
HETATM    6  C   UNL     1     -42.369  58.820 -53.792  1.00  0.00     0.106 C 
HETATM    7  C   UNL     1     -42.995  59.595 -54.958  1.00  0.00     0.069 C 
HETATM    8  C   UNL     1     -42.143  59.893 -56.065  1.00  0.00     0.099 C 
HETATM    9  N   UNL     1     -41.439  60.123 -56.958  1.00  0.00    -0.192 NA
HETATM   10  H   UNL     1     -45.821  60.382 -53.643  1.00  0.00     0.166 HD
ENDROOT
BRANCH   1  11
HETATM   11  S   UNL     1     -44.940  61.178 -56.018  1.00  0.00    -0.102 SA
BRANCH  11  12
HETATM   12  C   UNL     1     -46.239  60.192 -56.823  1.00  0.00     0.184 C 
BRANCH  12  13
HETATM   13  C   UNL     1     -45.623  59.527 -58.053  1.00  0.00     0.231 C 
HETATM   14  N   UNL     1     -45.557  58.144 -57.939  1.00  0.00    -0.326 N 
HETATM   15  H   UNL     1     -45.742  57.767 -57.021  1.00  0.00     0.169 HD
HETATM   16  O   UNL     1     -45.235  60.192 -59.009  1.00  0.00    -0.272 OA
BRANCH  14  17
HETATM   17  C   UNL     1     -45.395  57.200 -58.979  1.00  0.00     0.041 A 
HETATM   18  C   UNL     1     -44.126  56.614 -59.188  1.00  0.00    -0.032 A 
HETATM   19  C   UNL     1     -43.993  55.588 -60.144  1.00  0.00     0.009 A 
HETATM   20  C   UNL     1     -45.085  55.157 -60.893  1.00  0.00     0.001 A 
HETATM   21  C   UNL     1     -46.326  55.751 -60.701  1.00  0.00     0.002 A 
HETATM   22  C   UNL     1     -46.479  56.765 -59.753  1.00  0.00     0.030 A 
BRANCH  18  23
HETATM   23  C   UNL     1     -42.882  57.031 -58.434  1.00  0.00     0.036 C 
HETATM   24  C   UNL     1     -41.852  57.693 -59.336  1.00  0.00     0.010 C 
ENDBRANCH  18  23
ENDBRANCH  14  17
ENDBRANCH  12  13
ENDBRANCH  11  12
ENDBRANCH   1  11
BRANCH   6  25
HETATM   25  C   UNL     1     -42.027  57.390 -54.204  1.00  0.00    -0.044 A 
HETATM   26  C   UNL     1     -40.763  56.833 -53.970  1.00  0.00     0.008 A 
HETATM   27  C   UNL     1     -40.507  55.496 -54.291  1.00  0.00     0.001 A 
HETATM   28  C   UNL     1     -41.510  54.702 -54.845  1.00  0.00     0.000 A 
HETATM   29  C   UNL     1     -42.771  55.241 -55.079  1.00  0.00     0.001 A 
HETATM   30  C   UNL     1     -43.029  56.575 -54.762  1.00  0.00     0.008 A 
ENDBRANCH   6  25
BRANCH   5  31
HETATM   31  C   UNL     1     -42.287  58.749 -51.254  1.00  0.00     0.255 C 
HETATM   32  N   UNL     1     -42.130  57.593 -50.556  1.00  0.00    -0.321 N 
HETATM   33  H   UNL     1     -41.782  57.805 -49.628  1.00  0.00     0.169 HD
HETATM   34  O   UNL     1     -41.761  59.753 -50.757  1.00  0.00    -0.268 OA
BRANCH  32  35
HETATM   35  C   UNL     1     -42.340  56.231 -50.822  1.00  0.00     0.068 A 
HETATM   36  C   UNL     1     -41.402  55.210 -50.643  1.00  0.00     0.095 A 
HETATM   37  C   UNL     1     -41.721  53.897 -51.023  1.00  0.00     0.039 A 
HETATM   38  C   UNL     1     -42.991  53.587 -51.508  1.00  0.00     0.003 A 
HETATM   39  C   UNL     1     -43.956  54.584 -51.607  1.00  0.00     0.002 A 
HETATM   40  C   UNL     1     -43.633  55.895 -51.255  1.00  0.00     0.032 A 
BRANCH  36  41
HETATM   41  O   UNL     1     -40.200  55.499 -50.055  1.00  0.00    -0.354 OA
HETATM   42  C   UNL     1     -39.542  54.328 -49.564  1.00  0.00     0.210 C 
ENDBRANCH  36  41
ENDBRANCH  32  35
ENDBRANCH   5  31
TORSDOF 9
ENDMDL
MODEL 4
REMARK VINA RESULT:      -7.2      2.492      8.138
REMARK  9 active torsions:
REMARK  status: ('A' for Active; 'I' for Inactive)
REMARK    1  A    between atoms: C_2  and  C_3 
REMARK    2  A    between atoms: C_4  and  N_5 
REMARK       I    between atoms: N_5  and  C_6 
REMARK    3  A    between atoms: C_6  and  C_7 
REMARK    4  A    between atoms: C_7  and  S_8 
REMARK    5  A    between atoms: S_8  and  C_9 
REMARK    6  A    between atoms: C_13  and  C_14 
REMARK       I    between atoms: C_14  and  N_15 
REMARK    7  A    between atoms: N_15  and  C_16 
REMARK    8  A    between atoms: C_17  and  O_18 
REMARK    9  A    between atoms: C_25  and  C_26 
ROOT
HETATM    1  C   UNL     1     -44.380  57.408 -53.971  1.00  0.00     0.088 C 
HETATM    2  N   UNL     1     -44.173  56.271 -54.736  1.00  0.00    -0.353 N 
HETATM    3  C   UNL     1     -43.609  56.300 -56.010  1.00  0.00     0.019 C 
HETATM    4  C   UNL     1     -42.821  55.060 -56.351  1.00  0.00     0.069 C 
HETATM    5  C   UNL     1     -43.675  57.437 -56.748  1.00  0.00     0.046 C 
HETATM    6  C   UNL     1     -44.258  58.712 -56.100  1.00  0.00     0.106 C 
HETATM    7  C   UNL     1     -44.445  58.613 -54.581  1.00  0.00     0.069 C 
HETATM    8  C   UNL     1     -44.563  59.843 -53.865  1.00  0.00     0.099 C 
HETATM    9  N   UNL     1     -44.661  60.851 -53.298  1.00  0.00    -0.192 NA
HETATM   10  H   UNL     1     -43.910  55.471 -54.163  1.00  0.00     0.166 HD
ENDROOT
BRANCH   1  11
HETATM   11  S   UNL     1     -44.304  57.247 -52.229  1.00  0.00    -0.102 SA
BRANCH  11  12
HETATM   12  C   UNL     1     -42.576  56.759 -51.942  1.00  0.00     0.184 C 
BRANCH  12  13
HETATM   13  C   UNL     1     -42.448  55.276 -52.285  1.00  0.00     0.231 C 
HETATM   14  N   UNL     1     -41.197  54.947 -52.791  1.00  0.00    -0.326 N 
HETATM   15  H   UNL     1     -40.602  55.725 -53.039  1.00  0.00     0.169 HD
HETATM   16  O   UNL     1     -43.387  54.501 -52.121  1.00  0.00    -0.272 OA
BRANCH  14  17
HETATM   17  C   UNL     1     -40.609  53.664 -52.871  1.00  0.00     0.041 A 
HETATM   18  C   UNL     1     -40.019  53.102 -51.716  1.00  0.00    -0.032 A 
HETATM   19  C   UNL     1     -39.539  51.778 -51.765  1.00  0.00     0.009 A 
HETATM   20  C   UNL     1     -39.623  51.026 -52.934  1.00  0.00     0.001 A 
HETATM   21  C   UNL     1     -40.182  51.590 -54.074  1.00  0.00     0.002 A 
HETATM   22  C   UNL     1     -40.669  52.898 -54.043  1.00  0.00     0.030 A 
BRANCH  18  23
HETATM   23  C   UNL     1     -39.870  53.850 -50.409  1.00  0.00     0.036 C 
HETATM   24  C   UNL     1     -40.601  53.167 -49.263  1.00  0.00     0.010 C 
ENDBRANCH  18  23
ENDBRANCH  14  17
ENDBRANCH  12  13
ENDBRANCH  11  12
ENDBRANCH   1  11
BRANCH   6  25
HETATM   25  C   UNL     1     -45.520  59.245 -56.775  1.00  0.00    -0.044 A 
HETATM   26  C   UNL     1     -45.611  60.563 -57.242  1.00  0.00     0.008 A 
HETATM   27  C   UNL     1     -46.752  60.996 -57.923  1.00  0.00     0.001 A 
HETATM   28  C   UNL     1     -47.812  60.120 -58.147  1.00  0.00     0.000 A 
HETATM   29  C   UNL     1     -47.734  58.807 -57.692  1.00  0.00     0.001 A 
HETATM   30  C   UNL     1     -46.597  58.372 -57.010  1.00  0.00     0.008 A 
ENDBRANCH   6  25
BRANCH   5  31
HETATM   31  C   UNL     1     -42.928  57.713 -58.020  1.00  0.00     0.255 C 
HETATM   32  N   UNL     1     -43.395  57.508 -59.279  1.00  0.00    -0.321 N 
HETATM   33  H   UNL     1     -42.614  57.451 -59.923  1.00  0.00     0.169 HD
HETATM   34  O   UNL     1     -41.736  58.036 -57.934  1.00  0.00    -0.268 OA
BRANCH  32  35
HETATM   35  C   UNL     1     -44.663  57.358 -59.860  1.00  0.00     0.068 A 
HETATM   36  C   UNL     1     -45.404  58.371 -60.479  1.00  0.00     0.095 A 
HETATM   37  C   UNL     1     -46.698  58.098 -60.951  1.00  0.00     0.039 A 
HETATM   38  C   UNL     1     -47.223  56.808 -60.877  1.00  0.00     0.003 A 
HETATM   39  C   UNL     1     -46.457  55.779 -60.341  1.00  0.00     0.002 A 
HETATM   40  C   UNL     1     -45.181  56.053 -59.847  1.00  0.00     0.032 A 
BRANCH  36  41
HETATM   41  O   UNL     1     -44.837  59.604 -60.656  1.00  0.00    -0.354 OA
HETATM   42  C   UNL     1     -45.656  60.468 -61.446  1.00  0.00     0.210 C 
ENDBRANCH  36  41
ENDBRANCH  32  35
ENDBRANCH   5  31
TORSDOF 9
ENDMDL
MODEL 5
REMARK VINA RESULT:      -7.0      1.848      3.638
REMARK  9 active torsions:
REMARK  status: ('A' for Active; 'I' for Inactive)
REMARK    1  A    between atoms: C_2  and  C_3 
REMARK    2  A    between atoms: C_4  and  N_5 
REMARK       I    between atoms: N_5  and  C_6 
REMARK    3  A    between atoms: C_6  and  C_7 
REMARK    4  A    between atoms: C_7  and  S_8 
REMARK    5  A    between atoms: S_8  and  C_9 
REMARK    6  A    between atoms: C_13  and  C_14 
REMARK       I    between atoms: C_14  and  N_15 
REMARK    7  A    between atoms: N_15  and  C_16 
REMARK    8  A    between atoms: C_17  and  O_18 
REMARK    9  A    between atoms: C_25  and  C_26 
ROOT
HETATM    1  C   UNL     1     -43.682  60.051 -54.875  1.00  0.00     0.088 C 
HETATM    2  N   UNL     1     -43.884  58.695 -55.081  1.00  0.00    -0.353 N 
HETATM    3  C   UNL     1     -44.261  57.817 -54.067  1.00  0.00     0.019 C 
HETATM    4  C   UNL     1     -45.104  56.663 -54.549  1.00  0.00     0.069 C 
HETATM    5  C   UNL     1     -43.992  58.127 -52.774  1.00  0.00     0.046 C 
HETATM    6  C   UNL     1     -43.390  59.513 -52.451  1.00  0.00     0.106 C 
HETATM    7  C   UNL     1     -43.425  60.500 -53.625  1.00  0.00     0.069 C 
HETATM    8  C   UNL     1     -43.295  61.885 -53.306  1.00  0.00     0.099 C 
HETATM    9  N   UNL     1     -43.185  63.007 -53.031  1.00  0.00    -0.192 NA
HETATM   10  H   UNL     1     -44.295  58.507 -55.993  1.00  0.00     0.166 HD
ENDROOT
BRANCH   1  11
HETATM   11  S   UNL     1     -44.011  61.139 -56.206  1.00  0.00    -0.102 SA
BRANCH  11  12
HETATM   12  C   UNL     1     -45.512  60.428 -56.949  1.00  0.00     0.184 C 
BRANCH  12  13
HETATM   13  C   UNL     1     -45.089  59.648 -58.193  1.00  0.00     0.231 C 
HETATM   14  N   UNL     1     -45.339  58.286 -58.083  1.00  0.00    -0.326 N 
HETATM   15  H   UNL     1     -45.586  57.955 -57.162  1.00  0.00     0.169 HD
HETATM   16  O   UNL     1     -44.580  60.213 -59.156  1.00  0.00    -0.272 OA
BRANCH  14  17
HETATM   17  C   UNL     1     -45.420  57.336 -59.128  1.00  0.00     0.041 A 
HETATM   18  C   UNL     1     -44.319  56.484 -59.372  1.00  0.00    -0.032 A 
HETATM   19  C   UNL     1     -44.442  55.461 -60.332  1.00  0.00     0.009 A 
HETATM   20  C   UNL     1     -45.623  55.289 -61.051  1.00  0.00     0.001 A 
HETATM   21  C   UNL     1     -46.695  56.143 -60.825  1.00  0.00     0.002 A 
HETATM   22  C   UNL     1     -46.593  57.159 -59.873  1.00  0.00     0.030 A 
BRANCH  18  23
HETATM   23  C   UNL     1     -42.994  56.608 -58.652  1.00  0.00     0.036 C 
HETATM   24  C   UNL     1     -42.915  55.715 -57.423  1.00  0.00     0.010 C 
ENDBRANCH  18  23
ENDBRANCH  14  17
ENDBRANCH  12  13
ENDBRANCH  11  12
ENDBRANCH   1  11
BRANCH   6  25
HETATM   25  C   UNL     1     -42.005  59.468 -51.811  1.00  0.00    -0.044 A 
HETATM   26  C   UNL     1     -41.793  59.827 -50.473  1.00  0.00     0.008 A 
HETATM   27  C   UNL     1     -40.525  59.702 -49.898  1.00  0.00     0.001 A 
HETATM   28  C   UNL     1     -39.457  59.216 -50.650  1.00  0.00     0.000 A 
HETATM   29  C   UNL     1     -39.653  58.852 -51.979  1.00  0.00     0.001 A 
HETATM   30  C   UNL     1     -40.917  58.978 -52.556  1.00  0.00     0.008 A 
ENDBRANCH   6  25
BRANCH   5  31
HETATM   31  C   UNL     1     -44.529  57.423 -51.562  1.00  0.00     0.255 C 
HETATM   32  N   UNL     1     -44.019  56.292 -51.008  1.00  0.00    -0.321 N 
HETATM   33  H   UNL     1     -44.729  55.848 -50.435  1.00  0.00     0.169 HD
HETATM   34  O   UNL     1     -45.600  57.819 -51.088  1.00  0.00    -0.268 OA
BRANCH  32  35
HETATM   35  C   UNL     1     -42.785  55.625 -51.055  1.00  0.00     0.068 A 
HETATM   36  C   UNL     1     -42.436  54.615 -51.956  1.00  0.00     0.095 A 
HETATM   37  C   UNL     1     -41.191  53.978 -51.841  1.00  0.00     0.039 A 
HETATM   38  C   UNL     1     -40.267  54.394 -50.883  1.00  0.00     0.003 A 
HETATM   39  C   UNL     1     -40.576  55.455 -50.040  1.00  0.00     0.002 A 
HETATM   40  C   UNL     1     -41.824  56.073 -50.134  1.00  0.00     0.032 A 
BRANCH  36  41
HETATM   41  O   UNL     1     -43.299  54.293 -52.970  1.00  0.00    -0.354 OA
HETATM   42  C   UNL     1     -42.614  53.978 -54.185  1.00  0.00     0.210 C 
ENDBRANCH  36  41
ENDBRANCH  32  35
ENDBRANCH   5  31
TORSDOF 9
ENDMDL
MODEL 6
REMARK VINA RESULT:      -6.9      2.686      8.099
REMARK  9 active torsions:
REMARK  status: ('A' for Active; 'I' for Inactive)
REMARK    1  A    between atoms: C_2  and  C_3 
REMARK    2  A    between atoms: C_4  and  N_5 
REMARK       I    between atoms: N_5  and  C_6 
REMARK    3  A    between atoms: C_6  and  C_7 
REMARK    4  A    between atoms: C_7  and  S_8 
REMARK    5  A    between atoms: S_8  and  C_9 
REMARK    6  A    between atoms: C_13  and  C_14 
REMARK       I    between atoms: C_14  and  N_15 
REMARK    7  A    between atoms: N_15  and  C_16 
REMARK    8  A    between atoms: C_17  and  O_18 
REMARK    9  A    between atoms: C_25  and  C_26 
ROOT
HETATM    1  C   UNL     1     -42.322  57.611 -54.326  1.00  0.00     0.088 C 
HETATM    2  N   UNL     1     -43.016  58.805 -54.207  1.00  0.00    -0.353 N 
HETATM    3  C   UNL     1     -44.214  59.060 -54.872  1.00  0.00     0.019 C 
HETATM    4  C   UNL     1     -45.138  59.985 -54.119  1.00  0.00     0.069 C 
HETATM    5  C   UNL     1     -44.512  58.378 -56.006  1.00  0.00     0.046 C 
HETATM    6  C   UNL     1     -43.572  57.238 -56.457  1.00  0.00     0.106 C 
HETATM    7  C   UNL     1     -42.540  56.821 -55.401  1.00  0.00     0.069 C 
HETATM    8  C   UNL     1     -41.940  55.535 -55.559  1.00  0.00     0.099 C 
HETATM    9  N   UNL     1     -41.459  54.489 -55.704  1.00  0.00    -0.192 NA
HETATM   10  H   UNL     1     -42.951  59.190 -53.267  1.00  0.00     0.166 HD
ENDROOT
BRANCH   1  11
HETATM   11  S   UNL     1     -41.377  57.075 -52.953  1.00  0.00    -0.102 SA
BRANCH  11  12
HETATM   12  C   UNL     1     -42.600  56.189 -51.939  1.00  0.00     0.184 C 
BRANCH  12  13
HETATM   13  C   UNL     1     -42.408  54.693 -52.180  1.00  0.00     0.231 C 
HETATM   14  N   UNL     1     -41.082  54.353 -52.414  1.00  0.00    -0.326 N 
HETATM   15  H   UNL     1     -40.450  55.124 -52.576  1.00  0.00     0.169 HD
HETATM   16  O   UNL     1     -43.360  53.918 -52.168  1.00  0.00    -0.272 OA
BRANCH  14  17
HETATM   17  C   UNL     1     -40.489  53.073 -52.316  1.00  0.00     0.041 A 
HETATM   18  C   UNL     1     -40.281  52.504 -51.039  1.00  0.00    -0.032 A 
HETATM   19  C   UNL     1     -39.801  51.183 -50.945  1.00  0.00     0.009 A 
HETATM   20  C   UNL     1     -39.515  50.440 -52.088  1.00  0.00     0.001 A 
HETATM   21  C   UNL     1     -39.698  51.010 -53.341  1.00  0.00     0.002 A 
HETATM   22  C   UNL     1     -40.179  52.316 -53.454  1.00  0.00     0.030 A 
BRANCH  18  23
HETATM   23  C   UNL     1     -40.548  53.243 -49.745  1.00  0.00     0.036 C 
HETATM   24  C   UNL     1     -39.491  54.296 -49.450  1.00  0.00     0.010 C 
ENDBRANCH  18  23
ENDBRANCH  14  17
ENDBRANCH  12  13
ENDBRANCH  11  12
ENDBRANCH   1  11
BRANCH   6  25
HETATM   25  C   UNL     1     -42.909  57.464 -57.814  1.00  0.00    -0.044 A 
HETATM   26  C   UNL     1     -43.035  56.544 -58.864  1.00  0.00     0.008 A 
HETATM   27  C   UNL     1     -42.478  56.818 -60.117  1.00  0.00     0.001 A 
HETATM   28  C   UNL     1     -41.793  58.012 -60.336  1.00  0.00     0.000 A 
HETATM   29  C   UNL     1     -41.663  58.936 -59.303  1.00  0.00     0.001 A 
HETATM   30  C   UNL     1     -42.215  58.664 -58.051  1.00  0.00     0.008 A 
ENDBRANCH   6  25
BRANCH   5  31
HETATM   31  C   UNL     1     -45.840  58.356 -56.705  1.00  0.00     0.255 C 
HETATM   32  N   UNL     1     -46.201  59.141 -57.754  1.00  0.00    -0.321 N 
HETATM   33  H   UNL     1     -47.212  59.173 -57.818  1.00  0.00     0.169 HD
HETATM   34  O   UNL     1     -46.740  57.659 -56.220  1.00  0.00    -0.268 OA
BRANCH  32  35
HETATM   35  C   UNL     1     -45.515  59.890 -58.722  1.00  0.00     0.068 A 
HETATM   36  C   UNL     1     -44.893  61.125 -58.511  1.00  0.00     0.095 A 
HETATM   37  C   UNL     1     -44.307  61.804 -59.591  1.00  0.00     0.039 A 
HETATM   38  C   UNL     1     -44.273  61.225 -60.859  1.00  0.00     0.003 A 
HETATM   39  C   UNL     1     -44.814  59.959 -61.056  1.00  0.00     0.002 A 
HETATM   40  C   UNL     1     -45.421  59.293 -59.990  1.00  0.00     0.032 A 
BRANCH  36  41
HETATM   41  O   UNL     1     -44.825  61.632 -57.241  1.00  0.00    -0.354 OA
HETATM   42  C   UNL     1     -43.610  62.350 -57.010  1.00  0.00     0.210 C 
ENDBRANCH  36  41
ENDBRANCH  32  35
ENDBRANCH   5  31
TORSDOF 9
ENDMDL
MODEL 7
REMARK VINA RESULT:      -6.9      2.970      8.661
REMARK  9 active torsions:
REMARK  status: ('A' for Active; 'I' for Inactive)
REMARK    1  A    between atoms: C_2  and  C_3 
REMARK    2  A    between atoms: C_4  and  N_5 
REMARK       I    between atoms: N_5  and  C_6 
REMARK    3  A    between atoms: C_6  and  C_7 
REMARK    4  A    between atoms: C_7  and  S_8 
REMARK    5  A    between atoms: S_8  and  C_9 
REMARK    6  A    between atoms: C_13  and  C_14 
REMARK       I    between atoms: C_14  and  N_15 
REMARK    7  A    between atoms: N_15  and  C_16 
REMARK    8  A    between atoms: C_17  and  O_18 
REMARK    9  A    between atoms: C_25  and  C_26 
ROOT
HETATM    1  C   UNL     1     -44.018  58.419 -56.216  1.00  0.00     0.088 C 
HETATM    2  N   UNL     1     -44.741  58.101 -57.355  1.00  0.00    -0.353 N 
HETATM    3  C   UNL     1     -44.162  57.977 -58.616  1.00  0.00     0.019 C 
HETATM    4  C   UNL     1     -44.859  56.978 -59.506  1.00  0.00     0.069 C 
HETATM    5  C   UNL     1     -42.992  58.609 -58.884  1.00  0.00     0.046 C 
HETATM    6  C   UNL     1     -42.264  59.344 -57.736  1.00  0.00     0.106 C 
HETATM    7  C   UNL     1     -42.820  59.034 -56.341  1.00  0.00     0.069 C 
HETATM    8  C   UNL     1     -41.968  59.315 -55.230  1.00  0.00     0.099 C 
HETATM    9  N   UNL     1     -41.265  59.552 -54.339  1.00  0.00    -0.192 NA
HETATM   10  H   UNL     1     -45.494  57.445 -57.156  1.00  0.00     0.166 HD
ENDROOT
BRANCH   1  11
HETATM   11  S   UNL     1     -44.585  57.787 -54.685  1.00  0.00    -0.102 SA
BRANCH  11  12
HETATM   12  C   UNL     1     -43.984  56.070 -54.706  1.00  0.00     0.184 C 
BRANCH  12  13
HETATM   13  C   UNL     1     -43.124  55.863 -53.460  1.00  0.00     0.231 C 
HETATM   14  N   UNL     1     -43.027  54.528 -53.092  1.00  0.00    -0.326 N 
HETATM   15  H   UNL     1     -43.660  53.893 -53.557  1.00  0.00     0.169 HD
HETATM   16  O   UNL     1     -42.605  56.812 -52.880  1.00  0.00    -0.272 OA
BRANCH  14  17
HETATM   17  C   UNL     1     -42.060  53.934 -52.247  1.00  0.00     0.041 A 
HETATM   18  C   UNL     1     -40.992  53.211 -52.823  1.00  0.00    -0.032 A 
HETATM   19  C   UNL     1     -39.966  52.721 -51.991  1.00  0.00     0.009 A 
HETATM   20  C   UNL     1     -40.000  52.925 -50.614  1.00  0.00     0.001 A 
HETATM   21  C   UNL     1     -41.063  53.616 -50.048  1.00  0.00     0.002 A 
HETATM   22  C   UNL     1     -42.086  54.115 -50.858  1.00  0.00     0.030 A 
BRANCH  18  23
HETATM   23  C   UNL     1     -40.882  52.927 -54.306  1.00  0.00     0.036 C 
HETATM   24  C   UNL     1     -40.143  54.025 -55.054  1.00  0.00     0.010 C 
ENDBRANCH  18  23
ENDBRANCH  14  17
ENDBRANCH  12  13
ENDBRANCH  11  12
ENDBRANCH   1  11
BRANCH   6  25
HETATM   25  C   UNL     1     -42.110  60.849 -57.945  1.00  0.00    -0.044 A 
HETATM   26  C   UNL     1     -40.855  61.450 -58.114  1.00  0.00     0.008 A 
HETATM   27  C   UNL     1     -40.756  62.819 -58.379  1.00  0.00     0.001 A 
HETATM   28  C   UNL     1     -41.905  63.601 -58.480  1.00  0.00     0.000 A 
HETATM   29  C   UNL     1     -43.158  63.017 -58.318  1.00  0.00     0.001 A 
HETATM   30  C   UNL     1     -43.260  61.651 -58.051  1.00  0.00     0.008 A 
ENDBRANCH   6  25
BRANCH   5  31
HETATM   31  C   UNL     1     -42.124  58.395 -60.089  1.00  0.00     0.255 C 
HETATM   32  N   UNL     1     -42.100  59.174 -61.203  1.00  0.00    -0.321 N 
HETATM   33  H   UNL     1     -41.701  58.649 -61.973  1.00  0.00     0.169 HD
HETATM   34  O   UNL     1     -41.456  57.355 -60.147  1.00  0.00    -0.268 OA
BRANCH  32  35
HETATM   35  C   UNL     1     -42.495  60.485 -61.512  1.00  0.00     0.068 A 
HETATM   36  C   UNL     1     -43.814  60.933 -61.637  1.00  0.00     0.095 A 
HETATM   37  C   UNL     1     -44.066  62.258 -62.028  1.00  0.00     0.039 A 
HETATM   38  C   UNL     1     -43.013  63.153 -62.222  1.00  0.00     0.003 A 
HETATM   39  C   UNL     1     -41.703  62.735 -62.016  1.00  0.00     0.002 A 
HETATM   40  C   UNL     1     -41.449  61.412 -61.652  1.00  0.00     0.032 A 
BRANCH  36  41
HETATM   41  O   UNL     1     -44.842  60.084 -61.329  1.00  0.00    -0.354 OA
HETATM   42  C   UNL     1     -45.887  60.739 -60.605  1.00  0.00     0.210 C 
ENDBRANCH  36  41
ENDBRANCH  32  35
ENDBRANCH   5  31
TORSDOF 9
ENDMDL
MODEL 8
REMARK VINA RESULT:      -6.8      2.363      8.241
REMARK  9 active torsions:
REMARK  status: ('A' for Active; 'I' for Inactive)
REMARK    1  A    between atoms: C_2  and  C_3 
REMARK    2  A    between atoms: C_4  and  N_5 
REMARK       I    between atoms: N_5  and  C_6 
REMARK    3  A    between atoms: C_6  and  C_7 
REMARK    4  A    between atoms: C_7  and  S_8 
REMARK    5  A    between atoms: S_8  and  C_9 
REMARK    6  A    between atoms: C_13  and  C_14 
REMARK       I    between atoms: C_14  and  N_15 
REMARK    7  A    between atoms: N_15  and  C_16 
REMARK    8  A    between atoms: C_17  and  O_18 
REMARK    9  A    between atoms: C_25  and  C_26 
ROOT
HETATM    1  C   UNL     1     -44.296  57.570 -54.482  1.00  0.00     0.088 C 
HETATM    2  N   UNL     1     -44.107  56.502 -55.345  1.00  0.00    -0.353 N 
HETATM    3  C   UNL     1     -43.649  56.650 -56.653  1.00  0.00     0.019 C 
HETATM    4  C   UNL     1     -42.843  55.475 -57.148  1.00  0.00     0.069 C 
HETATM    5  C   UNL     1     -43.819  57.833 -57.295  1.00  0.00     0.046 C 
HETATM    6  C   UNL     1     -44.398  59.030 -56.508  1.00  0.00     0.106 C 
HETATM    7  C   UNL     1     -44.457  58.813 -54.991  1.00  0.00     0.069 C 
HETATM    8  C   UNL     1     -44.566  59.980 -54.176  1.00  0.00     0.099 C 
HETATM    9  N   UNL     1     -44.657  60.939 -53.529  1.00  0.00    -0.192 NA
HETATM   10  H   UNL     1     -43.767  55.675 -54.857  1.00  0.00     0.166 HD
ENDROOT
BRANCH   1  11
HETATM   11  S   UNL     1     -44.074  57.287 -52.769  1.00  0.00    -0.102 SA
BRANCH  11  12
HETATM   12  C   UNL     1     -42.320  57.698 -52.514  1.00  0.00     0.184 C 
BRANCH  12  13
HETATM   13  C   UNL     1     -41.695  56.576 -51.685  1.00  0.00     0.231 C 
HETATM   14  N   UNL     1     -42.002  55.313 -52.174  1.00  0.00    -0.326 N 
HETATM   15  H   UNL     1     -42.725  55.275 -52.879  1.00  0.00     0.169 HD
HETATM   16  O   UNL     1     -41.011  56.821 -50.696  1.00  0.00    -0.272 OA
BRANCH  14  17
HETATM   17  C   UNL     1     -41.334  54.097 -51.904  1.00  0.00     0.041 A 
HETATM   18  C   UNL     1     -40.869  53.310 -52.982  1.00  0.00    -0.032 A 
HETATM   19  C   UNL     1     -40.100  52.161 -52.712  1.00  0.00     0.009 A 
HETATM   20  C   UNL     1     -39.808  51.783 -51.404  1.00  0.00     0.001 A 
HETATM   21  C   UNL     1     -40.286  52.545 -50.346  1.00  0.00     0.002 A 
HETATM   22  C   UNL     1     -41.044  53.692 -50.594  1.00  0.00     0.030 A 
BRANCH  18  23
HETATM   23  C   UNL     1     -41.153  53.635 -54.432  1.00  0.00     0.036 C 
HETATM   24  C   UNL     1     -39.987  54.339 -55.109  1.00  0.00     0.010 C 
ENDBRANCH  18  23
ENDBRANCH  14  17
ENDBRANCH  12  13
ENDBRANCH  11  12
ENDBRANCH   1  11
BRANCH   6  25
HETATM   25  C   UNL     1     -45.730  59.553 -57.041  1.00  0.00    -0.044 A 
HETATM   26  C   UNL     1     -46.833  58.712 -57.237  1.00  0.00     0.008 A 
HETATM   27  C   UNL     1     -48.059  59.237 -57.654  1.00  0.00     0.001 A 
HETATM   28  C   UNL     1     -48.199  60.605 -57.876  1.00  0.00     0.000 A 
HETATM   29  C   UNL     1     -47.114  61.454 -57.682  1.00  0.00     0.001 A 
HETATM   30  C   UNL     1     -45.887  60.932 -57.268  1.00  0.00     0.008 A 
ENDBRANCH   6  25
BRANCH   5  31
HETATM   31  C   UNL     1     -43.188  58.235 -58.596  1.00  0.00     0.255 C 
HETATM   32  N   UNL     1     -43.786  58.199 -59.816  1.00  0.00    -0.321 N 
HETATM   33  H   UNL     1     -43.076  58.193 -60.539  1.00  0.00     0.169 HD
HETATM   34  O   UNL     1     -41.981  58.506 -58.596  1.00  0.00    -0.268 OA
BRANCH  32  35
HETATM   35  C   UNL     1     -45.111  58.162 -60.277  1.00  0.00     0.068 A 
HETATM   36  C   UNL     1     -45.928  57.028 -60.326  1.00  0.00     0.095 A 
HETATM   37  C   UNL     1     -47.212  57.118 -60.885  1.00  0.00     0.039 A 
HETATM   38  C   UNL     1     -47.710  58.344 -61.326  1.00  0.00     0.003 A 
HETATM   39  C   UNL     1     -46.934  59.491 -61.202  1.00  0.00     0.002 A 
HETATM   40  C   UNL     1     -45.647  59.400 -60.670  1.00  0.00     0.032 A 
BRANCH  36  41
HETATM   41  O   UNL     1     -45.479  55.854 -59.782  1.00  0.00    -0.354 OA
HETATM   42  C   UNL     1     -44.984  54.952 -60.775  1.00  0.00     0.210 C 
ENDBRANCH  36  41
ENDBRANCH  32  35
ENDBRANCH   5  31
TORSDOF 9
ENDMDL
MODEL 9
REMARK VINA RESULT:      -6.8      1.874      3.635
REMARK  9 active torsions:
REMARK  status: ('A' for Active; 'I' for Inactive)
REMARK    1  A    between atoms: C_2  and  C_3 
REMARK    2  A    between atoms: C_4  and  N_5 
REMARK       I    between atoms: N_5  and  C_6 
REMARK    3  A    between atoms: C_6  and  C_7 
REMARK    4  A    between atoms: C_7  and  S_8 
REMARK    5  A    between atoms: S_8  and  C_9 
REMARK    6  A    between atoms: C_13  and  C_14 
REMARK       I    between atoms: C_14  and  N_15 
REMARK    7  A    between atoms: N_15  and  C_16 
REMARK    8  A    between atoms: C_17  and  O_18 
REMARK    9  A    between atoms: C_25  and  C_26 
ROOT
HETATM    1  C   UNL     1     -42.302  60.004 -56.180  1.00  0.00     0.088 C 
HETATM    2  N   UNL     1     -42.213  58.664 -56.527  1.00  0.00    -0.353 N 
HETATM    3  C   UNL     1     -42.916  57.658 -55.867  1.00  0.00     0.019 C 
HETATM    4  C   UNL     1     -43.280  56.493 -56.754  1.00  0.00     0.069 C 
HETATM    5  C   UNL     1     -43.332  57.854 -54.591  1.00  0.00     0.046 C 
HETATM    6  C   UNL     1     -43.131  59.245 -53.948  1.00  0.00     0.106 C 
HETATM    7  C   UNL     1     -42.725  60.341 -54.941  1.00  0.00     0.069 C 
HETATM    8  C   UNL     1     -42.934  61.692 -54.530  1.00  0.00     0.099 C 
HETATM    9  N   UNL     1     -43.107  62.785 -54.179  1.00  0.00    -0.192 NA
HETATM   10  H   UNL     1     -42.116  58.538 -57.532  1.00  0.00     0.166 HD
ENDROOT
BRANCH   1  11
HETATM   11  S   UNL     1     -42.091  61.192 -57.448  1.00  0.00    -0.102 SA
BRANCH  11  12
HETATM   12  C   UNL     1     -43.794  61.738 -57.781  1.00  0.00     0.184 C 
BRANCH  12  13
HETATM   13  C   UNL     1     -44.662  60.489 -57.926  1.00  0.00     0.231 C 
HETATM   14  N   UNL     1     -44.640  59.968 -59.213  1.00  0.00    -0.326 N 
HETATM   15  H   UNL     1     -44.221  60.553 -59.921  1.00  0.00     0.169 HD
HETATM   16  O   UNL     1     -45.298  60.042 -56.977  1.00  0.00    -0.272 OA
BRANCH  14  17
HETATM   17  C   UNL     1     -45.009  58.665 -59.623  1.00  0.00     0.041 A 
HETATM   18  C   UNL     1     -44.019  57.797 -60.136  1.00  0.00    -0.032 A 
HETATM   19  C   UNL     1     -44.361  56.463 -60.432  1.00  0.00     0.009 A 
HETATM   20  C   UNL     1     -45.659  55.996 -60.243  1.00  0.00     0.001 A 
HETATM   21  C   UNL     1     -46.636  56.858 -59.761  1.00  0.00     0.002 A 
HETATM   22  C   UNL     1     -46.313  58.182 -59.455  1.00  0.00     0.030 A 
BRANCH  18  23
HETATM   23  C   UNL     1     -42.589  58.223 -60.390  1.00  0.00     0.036 C 
HETATM   24  C   UNL     1     -41.587  57.139 -60.022  1.00  0.00     0.010 C 
ENDBRANCH  18  23
ENDBRANCH  14  17
ENDBRANCH  12  13
ENDBRANCH  11  12
ENDBRANCH   1  11
BRANCH   6  25
HETATM   25  C   UNL     1     -42.222  59.250 -52.722  1.00  0.00    -0.044 A 
HETATM   26  C   UNL     1     -40.895  58.804 -52.780  1.00  0.00     0.008 A 
HETATM   27  C   UNL     1     -40.067  58.893 -51.657  1.00  0.00     0.001 A 
HETATM   28  C   UNL     1     -40.553  59.430 -50.466  1.00  0.00     0.000 A 
HETATM   29  C   UNL     1     -41.868  59.880 -50.395  1.00  0.00     0.001 A 
HETATM   30  C   UNL     1     -42.697  59.790 -51.513  1.00  0.00     0.008 A 
ENDBRANCH   6  25
BRANCH   5  31
HETATM   31  C   UNL     1     -44.289  56.986 -53.826  1.00  0.00     0.255 C 
HETATM   32  N   UNL     1     -43.948  56.004 -52.951  1.00  0.00    -0.321 N 
HETATM   33  H   UNL     1     -44.730  55.369 -52.836  1.00  0.00     0.169 HD
HETATM   34  O   UNL     1     -45.493  57.071 -54.097  1.00  0.00    -0.268 OA
BRANCH  32  35
HETATM   35  C   UNL     1     -42.802  55.684 -52.208  1.00  0.00     0.068 A 
HETATM   36  C   UNL     1     -41.691  54.978 -52.682  1.00  0.00     0.095 A 
HETATM   37  C   UNL     1     -40.642  54.658 -51.806  1.00  0.00     0.039 A 
HETATM   38  C   UNL     1     -40.662  55.102 -50.483  1.00  0.00     0.003 A 
HETATM   39  C   UNL     1     -41.724  55.876 -50.029  1.00  0.00     0.002 A 
HETATM   40  C   UNL     1     -42.781  56.174 -50.891  1.00  0.00     0.032 A 
BRANCH  36  41
HETATM   41  O   UNL     1     -41.622  54.650 -54.009  1.00  0.00    -0.354 OA
HETATM   42  C   UNL     1     -40.463  55.196 -54.643  1.00  0.00     0.210 C 
ENDBRANCH  36  41
ENDBRANCH  32  35
ENDBRANCH   5  31
TORSDOF 9
ENDMDL
MODEL 10
REMARK VINA RESULT:      -6.8      2.650      3.893
REMARK  9 active torsions:
REMARK  status: ('A' for Active; 'I' for Inactive)
REMARK    1  A    between atoms: C_2  and  C_3 
REMARK    2  A    between atoms: C_4  and  N_5 
REMARK       I    between atoms: N_5  and  C_6 
REMARK    3  A    between atoms: C_6  and  C_7 
REMARK    4  A    between atoms: C_7  and  S_8 
REMARK    5  A    between atoms: S_8  and  C_9 
REMARK    6  A    between atoms: C_13  and  C_14 
REMARK       I    between atoms: C_14  and  N_15 
REMARK    7  A    between atoms: N_15  and  C_16 
REMARK    8  A    between atoms: C_17  and  O_18 
REMARK    9  A    between atoms: C_25  and  C_26 
ROOT
HETATM    1  C   UNL     1     -44.622  57.671 -57.550  1.00  0.00     0.088 C 
HETATM    2  N   UNL     1     -45.168  58.292 -56.437  1.00  0.00    -0.353 N 
HETATM    3  C   UNL     1     -44.400  58.771 -55.377  1.00  0.00     0.019 C 
HETATM    4  C   UNL     1     -44.998  59.976 -54.693  1.00  0.00     0.069 C 
HETATM    5  C   UNL     1     -43.169  58.248 -55.148  1.00  0.00     0.046 C 
HETATM    6  C   UNL     1     -42.598  57.225 -56.154  1.00  0.00     0.106 C 
HETATM    7  C   UNL     1     -43.388  57.125 -57.465  1.00  0.00     0.069 C 
HETATM    8  C   UNL     1     -42.713  56.548 -58.583  1.00  0.00     0.099 C 
HETATM    9  N   UNL     1     -42.151  56.074 -59.481  1.00  0.00    -0.192 NA
HETATM   10  H   UNL     1     -45.977  58.861 -56.678  1.00  0.00     0.166 HD
ENDROOT
BRANCH   1  11
HETATM   11  S   UNL     1     -45.463  57.842 -59.076  1.00  0.00    -0.102 SA
BRANCH  11  12
HETATM   12  C   UNL     1     -45.408  59.636 -59.371  1.00  0.00     0.184 C 
BRANCH  12  13
HETATM   13  C   UNL     1     -44.204  59.923 -60.266  1.00  0.00     0.231 C 
HETATM   14  N   UNL     1     -43.871  61.271 -60.302  1.00  0.00    -0.326 N 
HETATM   15  H   UNL     1     -44.546  61.905 -59.900  1.00  0.00     0.169 HD
HETATM   16  O   UNL     1     -43.633  59.022 -60.874  1.00  0.00    -0.272 OA
BRANCH  14  17
HETATM   17  C   UNL     1     -42.644  61.846 -60.709  1.00  0.00     0.041 A 
HETATM   18  C   UNL     1     -41.623  62.044 -59.752  1.00  0.00    -0.032 A 
HETATM   19  C   UNL     1     -40.362  62.505 -60.178  1.00  0.00     0.009 A 
HETATM   20  C   UNL     1     -40.116  62.784 -61.520  1.00  0.00     0.001 A 
HETATM   21  C   UNL     1     -41.128  62.612 -62.455  1.00  0.00     0.002 A 
HETATM   22  C   UNL     1     -42.383  62.148 -62.052  1.00  0.00     0.030 A 
BRANCH  18  23
HETATM   23  C   UNL     1     -41.807  61.784 -58.273  1.00  0.00     0.036 C 
HETATM   24  C   UNL     1     -41.500  60.343 -57.894  1.00  0.00     0.010 C 
ENDBRANCH  18  23
ENDBRANCH  14  17
ENDBRANCH  12  13
ENDBRANCH  11  12
ENDBRANCH   1  11
BRANCH   6  25
HETATM   25  C   UNL     1     -42.330  55.841 -55.567  1.00  0.00    -0.044 A 
HETATM   26  C   UNL     1     -41.040  55.299 -55.501  1.00  0.00     0.008 A 
HETATM   27  C   UNL     1     -40.821  54.062 -54.888  1.00  0.00     0.001 A 
HETATM   28  C   UNL     1     -41.885  53.354 -54.334  1.00  0.00     0.000 A 
HETATM   29  C   UNL     1     -43.172  53.881 -54.388  1.00  0.00     0.001 A 
HETATM   30  C   UNL     1     -43.394  55.115 -55.001  1.00  0.00     0.008 A 
ENDBRANCH   6  25
BRANCH   5  31
HETATM   31  C   UNL     1     -42.131  58.799 -54.215  1.00  0.00     0.255 C 
HETATM   32  N   UNL     1     -41.916  58.396 -52.935  1.00  0.00    -0.321 N 
HETATM   33  H   UNL     1     -41.416  59.122 -52.433  1.00  0.00     0.169 HD
HETATM   34  O   UNL     1     -41.489  59.790 -54.582  1.00  0.00    -0.268 OA
BRANCH  32  35
HETATM   35  C   UNL     1     -42.226  57.253 -52.183  1.00  0.00     0.068 A 
HETATM   36  C   UNL     1     -43.494  56.908 -51.705  1.00  0.00     0.095 A 
HETATM   37  C   UNL     1     -43.649  55.771 -50.897  1.00  0.00     0.039 A 
HETATM   38  C   UNL     1     -42.562  54.939 -50.627  1.00  0.00     0.003 A 
HETATM   39  C   UNL     1     -41.316  55.231 -51.171  1.00  0.00     0.002 A 
HETATM   40  C   UNL     1     -41.154  56.375 -51.953  1.00  0.00     0.032 A 
BRANCH  36  41
HETATM   41  O   UNL     1     -44.577  57.661 -52.072  1.00  0.00    -0.354 OA
HETATM   42  C   UNL     1     -45.005  58.540 -51.028  1.00  0.00     0.210 C 
ENDBRANCH  36  41
ENDBRANCH  32  35
ENDBRANCH   5  31
TORSDOF 9
ENDMDL
