MODEL 1
REMARK VINA RESULT:     -10.0      0.000      0.000
REMARK  8 active torsions:
REMARK  status: ('A' for Active; 'I' for Inactive)
REMARK    1  A    between atoms: C_2  and  O_3 
REMARK    2  A    between atoms: O_3  and  C_4 
REMARK    3  A    between atoms: C_7  and  N_8 
REMARK       I    between atoms: N_8  and  C_9 
REMARK       I    between atoms: C_9  and  N_10 
REMARK    4  A    between atoms: N_10  and  C_11 
REMARK    5  A    between atoms: C_12  and  N_13 
REMARK    6  A    between atoms: C_29  and  C_30 
REMARK       I    between atoms: C_30  and  N_31 
REMARK    7  A    between atoms: N_31  and  C_32 
REMARK    8  A    between atoms: C_32  and  C_33 
ROOT
HETATM    1  C   UNL     1     -42.064  57.160 -54.488  1.00  0.00     0.043 A 
HETATM    2  C   UNL     1     -42.959  58.150 -54.018  1.00  0.00     0.052 A 
HETATM    3  C   UNL     1     -43.193  58.134 -52.628  1.00  0.00     0.032 A 
HETATM    4  C   UNL     1     -42.547  57.240 -51.754  1.00  0.00     0.019 A 
HETATM    5  C   UNL     1     -41.639  56.309 -52.245  1.00  0.00     0.033 A 
HETATM    6  C   UNL     1     -41.424  56.255 -53.616  1.00  0.00     0.043 A 
ENDROOT
BRANCH   1   7
HETATM    7  N   UNL     1     -41.747  56.990 -55.865  1.00  0.00    -0.213 NA
HETATM    8  C   UNL     1     -42.641  56.194 -56.572  1.00  0.00     0.281 C 
HETATM    9  N   UNL     1     -42.731  56.557 -57.910  1.00  0.00    -0.215 NA
HETATM   10  O   UNL     1     -43.335  55.340 -56.022  1.00  0.00    -0.260 OA
HETATM   11  H   UNL     1     -42.470  57.526 -58.039  1.00  0.00     0.138 HD
HETATM   12  H   UNL     1     -40.783  56.732 -56.031  1.00  0.00     0.138 HD
BRANCH   9  13
HETATM   13  C   UNL     1     -43.915  56.145 -58.576  1.00  0.00     0.016 C 
HETATM   14  C   UNL     1     -43.856  55.024 -59.406  1.00  0.00     0.026 C 
HETATM   15  C   UNL     1     -44.812  54.873 -60.412  1.00  0.00     0.038 C 
HETATM   16  C   UNL     1     -45.817  55.830 -60.551  1.00  0.00     0.068 C 
HETATM   17  C   UNL     1     -45.994  56.829 -59.597  1.00  0.00     0.038 C 
HETATM   18  C   UNL     1     -45.035  56.987 -58.604  1.00  0.00     0.026 C 
BRANCH  16  19
HETATM   19  O   UNL     1     -46.551  55.829 -61.709  1.00  0.00    -0.352 OA
BRANCH  19  20
HETATM   20  C   UNL     1     -47.754  56.597 -61.504  1.00  0.00     0.171 C 
HETATM   21  C   UNL     1     -48.497  56.715 -62.820  1.00  0.00     0.034 C 
ENDBRANCH  19  20
ENDBRANCH  16  19
ENDBRANCH   9  13
ENDBRANCH   1   7
BRANCH   2  22
HETATM   22  N   UNL     1     -43.550  59.107 -54.851  1.00  0.00    -0.378 N 
HETATM   23  C   UNL     1     -45.014  59.283 -54.882  1.00  0.00     0.133 C 
HETATM   24  C   UNL     1     -45.478  60.653 -54.332  1.00  0.00     0.054 C 
HETATM   25  C   UNL     1     -44.765  61.765 -55.094  1.00  0.00     0.020 C 
HETATM   26  C   UNL     1     -45.245  60.816 -52.839  1.00  0.00     0.020 A 
HETATM   27  C   UNL     1     -43.280  61.616 -54.808  1.00  0.00     0.023 C 
HETATM   28  C   UNL     1     -43.004  61.814 -53.314  1.00  0.00     0.138 C 
HETATM   29  C   UNL     1     -42.755  60.264 -55.307  1.00  0.00     0.129 C 
HETATM   30  N   UNL     1     -44.029  61.339 -52.389  1.00  0.00    -0.317 N 
HETATM   31  C   UNL     1     -43.749  61.525 -51.030  1.00  0.00     0.247 A 
HETATM   32  O   UNL     1     -42.714  62.017 -50.587  1.00  0.00    -0.268 OA
HETATM   33  C   UNL     1     -44.810  61.115 -50.078  1.00  0.00     0.074 A 
HETATM   34  C   UNL     1     -45.971  60.634 -50.533  1.00  0.00     0.007 A 
HETATM   35  C   UNL     1     -46.198  60.489 -51.948  1.00  0.00     0.026 A 
ENDBRANCH   2  22
BRANCH   5  36
HETATM   36  C   UNL     1     -40.951  55.373 -51.311  1.00  0.00     0.251 C 
HETATM   37  N   UNL     1     -40.697  54.108 -51.797  1.00  0.00    -0.353 N 
HETATM   38  H   UNL     1     -40.736  53.945 -52.795  1.00  0.00     0.163 HD
HETATM   39  O   UNL     1     -40.636  55.744 -50.185  1.00  0.00    -0.268 OA
BRANCH  37  40
HETATM   40  C   UNL     1     -40.018  53.110 -51.003  1.00  0.00     0.161 C 
BRANCH  40  41
HETATM   41  C   UNL     1     -39.872  51.822 -51.774  1.00  0.00    -0.041 A 
HETATM   42  C   UNL     1     -39.894  51.810 -53.175  1.00  0.00     0.009 A 
HETATM   43  C   UNL     1     -39.744  50.611 -53.876  1.00  0.00     0.001 A 
HETATM   44  C   UNL     1     -39.573  49.413 -53.186  1.00  0.00     0.000 A 
HETATM   45  C   UNL     1     -39.552  49.411 -51.793  1.00  0.00     0.001 A 
HETATM   46  C   UNL     1     -39.700  50.607 -51.090  1.00  0.00     0.009 A 
ENDBRANCH  40  41
ENDBRANCH  37  40
ENDBRANCH   5  36
TORSDOF 8
ENDMDL
MODEL 2
REMARK VINA RESULT:      -9.4      2.221      9.024
REMARK  8 active torsions:
REMARK  status: ('A' for Active; 'I' for Inactive)
REMARK    1  A    between atoms: C_2  and  O_3 
REMARK    2  A    between atoms: O_3  and  C_4 
REMARK    3  A    between atoms: C_7  and  N_8 
REMARK       I    between atoms: N_8  and  C_9 
REMARK       I    between atoms: C_9  and  N_10 
REMARK    4  A    between atoms: N_10  and  C_11 
REMARK    5  A    between atoms: C_12  and  N_13 
REMARK    6  A    between atoms: C_29  and  C_30 
REMARK       I    between atoms: C_30  and  N_31 
REMARK    7  A    between atoms: N_31  and  C_32 
REMARK    8  A    between atoms: C_32  and  C_33 
ROOT
HETATM    1  C   UNL     1     -43.075  58.818 -55.342  1.00  0.00     0.043 A 
HETATM    2  C   UNL     1     -43.453  58.445 -56.653  1.00  0.00     0.052 A 
HETATM    3  C   UNL     1     -44.705  58.936 -57.077  1.00  0.00     0.032 A 
HETATM    4  C   UNL     1     -45.504  59.781 -56.285  1.00  0.00     0.019 A 
HETATM    5  C   UNL     1     -45.080  60.164 -55.017  1.00  0.00     0.033 A 
HETATM    6  C   UNL     1     -43.879  59.656 -54.541  1.00  0.00     0.043 A 
ENDROOT
BRANCH   1   7
HETATM    7  N   UNL     1     -41.871  58.375 -54.725  1.00  0.00    -0.213 NA
HETATM    8  C   UNL     1     -41.974  57.160 -54.059  1.00  0.00     0.281 C 
HETATM    9  N   UNL     1     -40.778  56.452 -54.059  1.00  0.00    -0.215 NA
HETATM   10  O   UNL     1     -43.044  56.742 -53.618  1.00  0.00    -0.260 OA
HETATM   11  H   UNL     1     -40.198  56.725 -54.841  1.00  0.00     0.138 HD
HETATM   12  H   UNL     1     -41.415  59.086 -54.168  1.00  0.00     0.138 HD
BRANCH   9  13
HETATM   13  C   UNL     1     -40.897  55.054 -53.839  1.00  0.00     0.016 C 
HETATM   14  C   UNL     1     -41.043  54.596 -52.529  1.00  0.00     0.026 C 
HETATM   15  C   UNL     1     -40.690  53.280 -52.226  1.00  0.00     0.038 C 
HETATM   16  C   UNL     1     -40.223  52.445 -53.240  1.00  0.00     0.068 C 
HETATM   17  C   UNL     1     -40.274  52.839 -54.575  1.00  0.00     0.038 C 
HETATM   18  C   UNL     1     -40.614  54.153 -54.875  1.00  0.00     0.026 C 
BRANCH  16  19
HETATM   19  O   UNL     1     -39.605  51.276 -52.878  1.00  0.00    -0.352 OA
BRANCH  19  20
HETATM   20  C   UNL     1     -39.541  51.204 -51.440  1.00  0.00     0.171 C 
HETATM   21  C   UNL     1     -39.641  49.754 -51.011  1.00  0.00     0.034 C 
ENDBRANCH  19  20
ENDBRANCH  16  19
ENDBRANCH   9  13
ENDBRANCH   1   7
BRANCH   2  22
HETATM   22  N   UNL     1     -42.642  57.677 -57.496  1.00  0.00    -0.378 N 
HETATM   23  C   UNL     1     -43.002  56.286 -57.831  1.00  0.00     0.133 C 
HETATM   24  C   UNL     1     -43.353  56.088 -59.326  1.00  0.00     0.054 C 
HETATM   25  C   UNL     1     -42.194  56.589 -60.182  1.00  0.00     0.020 C 
HETATM   26  C   UNL     1     -44.641  56.780 -59.742  1.00  0.00     0.020 A 
HETATM   27  C   UNL     1     -42.060  58.079 -59.919  1.00  0.00     0.023 C 
HETATM   28  C   UNL     1     -43.329  58.814 -60.364  1.00  0.00     0.138 C 
HETATM   29  C   UNL     1     -41.735  58.351 -58.444  1.00  0.00     0.129 C 
HETATM   30  N   UNL     1     -44.593  58.101 -60.196  1.00  0.00    -0.317 N 
HETATM   31  C   UNL     1     -45.737  58.798 -60.603  1.00  0.00     0.247 A 
HETATM   32  O   UNL     1     -45.741  59.943 -61.047  1.00  0.00    -0.268 OA
HETATM   33  C   UNL     1     -47.022  58.063 -60.508  1.00  0.00     0.074 A 
HETATM   34  C   UNL     1     -47.040  56.794 -60.087  1.00  0.00     0.007 A 
HETATM   35  C   UNL     1     -45.820  56.133 -59.703  1.00  0.00     0.026 A 
ENDBRANCH   2  22
BRANCH   5  36
HETATM   36  C   UNL     1     -45.926  61.068 -54.188  1.00  0.00     0.251 C 
HETATM   37  N   UNL     1     -46.308  60.582 -52.956  1.00  0.00    -0.353 N 
HETATM   38  H   UNL     1     -45.815  59.793 -52.561  1.00  0.00     0.163 HD
HETATM   39  O   UNL     1     -46.239  62.178 -54.607  1.00  0.00    -0.268 OA
BRANCH  37  40
HETATM   40  C   UNL     1     -47.112  61.365 -52.045  1.00  0.00     0.161 C 
BRANCH  40  41
HETATM   41  C   UNL     1     -46.323  61.726 -50.810  1.00  0.00    -0.041 A 
HETATM   42  C   UNL     1     -46.735  62.766 -49.967  1.00  0.00     0.009 A 
HETATM   43  C   UNL     1     -46.003  63.080 -48.819  1.00  0.00     0.001 A 
HETATM   44  C   UNL     1     -44.852  62.360 -48.504  1.00  0.00     0.000 A 
HETATM   45  C   UNL     1     -44.431  61.324 -49.336  1.00  0.00     0.001 A 
HETATM   46  C   UNL     1     -45.162  61.008 -50.482  1.00  0.00     0.009 A 
ENDBRANCH  40  41
ENDBRANCH  37  40
ENDBRANCH   5  36
TORSDOF 8
ENDMDL
MODEL 3
REMARK VINA RESULT:      -9.4      2.902      9.612
REMARK  8 active torsions:
REMARK  status: ('A' for Active; 'I' for Inactive)
REMARK    1  A    between atoms: C_2  and  O_3 
REMARK    2  A    between atoms: O_3  and  C_4 
REMARK    3  A    between atoms: C_7  and  N_8 
REMARK       I    between atoms: N_8  and  C_9 
REMARK       I    between atoms: C_9  and  N_10 
REMARK    4  A    between atoms: N_10  and  C_11 
REMARK    5  A    between atoms: C_12  and  N_13 
REMARK    6  A    between atoms: C_29  and  C_30 
REMARK       I    between atoms: C_30  and  N_31 
REMARK    7  A    between atoms: N_31  and  C_32 
REMARK    8  A    between atoms: C_32  and  C_33 
ROOT
HETATM    1  C   UNL     1     -43.196  58.927 -55.263  1.00  0.00     0.043 A 
HETATM    2  C   UNL     1     -43.555  58.532 -56.573  1.00  0.00     0.052 A 
HETATM    3  C   UNL     1     -44.802  59.014 -57.022  1.00  0.00     0.032 A 
HETATM    4  C   UNL     1     -45.613  59.870 -56.254  1.00  0.00     0.019 A 
HETATM    5  C   UNL     1     -45.208  60.274 -54.988  1.00  0.00     0.033 A 
HETATM    6  C   UNL     1     -44.013  59.775 -54.486  1.00  0.00     0.043 A 
ENDROOT
BRANCH   1   7
HETATM    7  N   UNL     1     -42.000  58.496 -54.622  1.00  0.00    -0.213 NA
HETATM    8  C   UNL     1     -42.089  57.256 -54.001  1.00  0.00     0.281 C 
HETATM    9  N   UNL     1     -40.875  56.581 -53.986  1.00  0.00    -0.215 NA
HETATM   10  O   UNL     1     -43.160  56.793 -53.610  1.00  0.00    -0.260 OA
HETATM   11  H   UNL     1     -40.278  56.898 -54.739  1.00  0.00     0.138 HD
HETATM   12  H   UNL     1     -41.583  59.199 -54.026  1.00  0.00     0.138 HD
BRANCH   9  13
HETATM   13  C   UNL     1     -40.960  55.174 -53.818  1.00  0.00     0.016 C 
HETATM   14  C   UNL     1     -41.074  54.664 -52.523  1.00  0.00     0.026 C 
HETATM   15  C   UNL     1     -40.688  53.346 -52.277  1.00  0.00     0.038 C 
HETATM   16  C   UNL     1     -40.221  52.560 -53.330  1.00  0.00     0.068 C 
HETATM   17  C   UNL     1     -40.304  53.002 -54.648  1.00  0.00     0.038 C 
HETATM   18  C   UNL     1     -40.676  54.319 -54.891  1.00  0.00     0.026 C 
BRANCH  16  19
HETATM   19  O   UNL     1     -39.572  51.391 -53.023  1.00  0.00    -0.352 OA
BRANCH  19  20
HETATM   20  C   UNL     1     -39.477  51.269 -51.590  1.00  0.00     0.171 C 
HETATM   21  C   UNL     1     -39.573  49.805 -51.210  1.00  0.00     0.034 C 
ENDBRANCH  19  20
ENDBRANCH  16  19
ENDBRANCH   9  13
ENDBRANCH   1   7
BRANCH   2  22
HETATM   22  N   UNL     1     -42.731  57.752 -57.392  1.00  0.00    -0.378 N 
HETATM   23  C   UNL     1     -43.099  56.365 -57.734  1.00  0.00     0.133 C 
HETATM   24  C   UNL     1     -43.411  56.169 -59.238  1.00  0.00     0.054 C 
HETATM   25  C   UNL     1     -42.224  56.653 -60.063  1.00  0.00     0.020 C 
HETATM   26  C   UNL     1     -44.679  56.875 -59.689  1.00  0.00     0.020 A 
HETATM   27  C   UNL     1     -42.079  58.142 -59.799  1.00  0.00     0.023 C 
HETATM   28  C   UNL     1     -43.326  58.891 -60.279  1.00  0.00     0.138 C 
HETATM   29  C   UNL     1     -41.790  58.414 -58.317  1.00  0.00     0.129 C 
HETATM   30  N   UNL     1     -44.602  58.194 -60.144  1.00  0.00    -0.317 N 
HETATM   31  C   UNL     1     -45.726  58.904 -60.584  1.00  0.00     0.247 A 
HETATM   32  O   UNL     1     -45.704  60.048 -61.030  1.00  0.00    -0.268 OA
HETATM   33  C   UNL     1     -47.022  58.185 -60.523  1.00  0.00     0.074 A 
HETATM   34  C   UNL     1     -47.067  56.917 -60.100  1.00  0.00     0.007 A 
HETATM   35  C   UNL     1     -45.866  56.242 -59.682  1.00  0.00     0.026 A 
ENDBRANCH   2  22
BRANCH   5  36
HETATM   36  C   UNL     1     -46.067  61.189 -54.185  1.00  0.00     0.251 C 
HETATM   37  N   UNL     1     -46.950  61.973 -54.895  1.00  0.00    -0.353 N 
HETATM   38  H   UNL     1     -47.170  61.728 -55.852  1.00  0.00     0.163 HD
HETATM   39  O   UNL     1     -45.970  61.212 -52.962  1.00  0.00    -0.268 OA
BRANCH  37  40
HETATM   40  C   UNL     1     -47.854  62.889 -54.237  1.00  0.00     0.161 C 
BRANCH  40  41
HETATM   41  C   UNL     1     -49.274  62.384 -54.311  1.00  0.00    -0.041 A 
HETATM   42  C   UNL     1     -49.904  62.174 -55.545  1.00  0.00     0.009 A 
HETATM   43  C   UNL     1     -51.215  61.693 -55.599  1.00  0.00     0.001 A 
HETATM   44  C   UNL     1     -51.910  61.421 -54.423  1.00  0.00     0.000 A 
HETATM   45  C   UNL     1     -51.296  61.628 -53.189  1.00  0.00     0.001 A 
HETATM   46  C   UNL     1     -49.986  62.106 -53.133  1.00  0.00     0.009 A 
ENDBRANCH  40  41
ENDBRANCH  37  40
ENDBRANCH   5  36
TORSDOF 8
ENDMDL
MODEL 4
REMARK VINA RESULT:      -9.2      2.339      7.980
REMARK  8 active torsions:
REMARK  status: ('A' for Active; 'I' for Inactive)
REMARK    1  A    between atoms: C_2  and  O_3 
REMARK    2  A    between atoms: O_3  and  C_4 
REMARK    3  A    between atoms: C_7  and  N_8 
REMARK       I    between atoms: N_8  and  C_9 
REMARK       I    between atoms: C_9  and  N_10 
REMARK    4  A    between atoms: N_10  and  C_11 
REMARK    5  A    between atoms: C_12  and  N_13 
REMARK    6  A    between atoms: C_29  and  C_30 
REMARK       I    between atoms: C_30  and  N_31 
REMARK    7  A    between atoms: N_31  and  C_32 
REMARK    8  A    between atoms: C_32  and  C_33 
ROOT
HETATM    1  C   UNL     1     -42.240  59.444 -54.304  1.00  0.00     0.043 A 
HETATM    2  C   UNL     1     -42.368  59.244 -55.698  1.00  0.00     0.052 A 
HETATM    3  C   UNL     1     -42.430  57.895 -56.106  1.00  0.00     0.032 A 
HETATM    4  C   UNL     1     -42.423  56.821 -55.197  1.00  0.00     0.019 A 
HETATM    5  C   UNL     1     -42.343  57.057 -53.830  1.00  0.00     0.033 A 
HETATM    6  C   UNL     1     -42.222  58.369 -53.391  1.00  0.00     0.043 A 
ENDROOT
BRANCH   1   7
HETATM    7  N   UNL     1     -42.111  60.733 -53.713  1.00  0.00    -0.213 NA
HETATM    8  C   UNL     1     -43.210  61.143 -52.968  1.00  0.00     0.281 C 
HETATM    9  N   UNL     1     -42.859  61.988 -51.923  1.00  0.00    -0.215 NA
HETATM   10  O   UNL     1     -44.342  60.706 -53.175  1.00  0.00    -0.260 OA
HETATM   11  H   UNL     1     -41.898  61.839 -51.647  1.00  0.00     0.138 HD
HETATM   12  H   UNL     1     -41.791  61.445 -54.357  1.00  0.00     0.138 HD
BRANCH   9  13
HETATM   13  C   UNL     1     -43.799  62.070 -50.862  1.00  0.00     0.016 C 
HETATM   14  C   UNL     1     -44.537  63.246 -50.717  1.00  0.00     0.026 C 
HETATM   15  C   UNL     1     -45.087  63.553 -49.471  1.00  0.00     0.038 C 
HETATM   16  C   UNL     1     -44.909  62.669 -48.407  1.00  0.00     0.068 C 
HETATM   17  C   UNL     1     -44.354  61.408 -48.607  1.00  0.00     0.038 C 
HETATM   18  C   UNL     1     -43.795  61.108 -49.844  1.00  0.00     0.026 C 
BRANCH  16  19
HETATM   19  O   UNL     1     -45.187  63.120 -47.142  1.00  0.00    -0.352 OA
BRANCH  19  20
HETATM   20  C   UNL     1     -45.482  61.991 -46.296  1.00  0.00     0.171 C 
HETATM   21  C   UNL     1     -46.985  61.827 -46.195  1.00  0.00     0.034 C 
ENDBRANCH  19  20
ENDBRANCH  16  19
ENDBRANCH   9  13
ENDBRANCH   1   7
BRANCH   2  22
HETATM   22  N   UNL     1     -42.463  60.294 -56.619  1.00  0.00    -0.378 N 
HETATM   23  C   UNL     1     -41.487  60.429 -57.717  1.00  0.00     0.133 C 
HETATM   24  C   UNL     1     -42.110  60.217 -59.118  1.00  0.00     0.054 C 
HETATM   25  C   UNL     1     -43.285  61.174 -59.293  1.00  0.00     0.020 C 
HETATM   26  C   UNL     1     -42.563  58.789 -59.369  1.00  0.00     0.020 A 
HETATM   27  C   UNL     1     -44.323  60.796 -58.250  1.00  0.00     0.023 C 
HETATM   28  C   UNL     1     -44.831  59.372 -58.497  1.00  0.00     0.138 C 
HETATM   29  C   UNL     1     -43.763  60.959 -56.830  1.00  0.00     0.129 C 
HETATM   30  N   UNL     1     -43.863  58.412 -59.021  1.00  0.00    -0.317 N 
HETATM   31  C   UNL     1     -44.352  57.116 -59.231  1.00  0.00     0.247 A 
HETATM   32  O   UNL     1     -45.496  56.748 -58.980  1.00  0.00    -0.268 OA
HETATM   33  C   UNL     1     -43.403  56.146 -59.831  1.00  0.00     0.074 A 
HETATM   34  C   UNL     1     -42.171  56.535 -60.171  1.00  0.00     0.007 A 
HETATM   35  C   UNL     1     -41.742  57.891 -59.945  1.00  0.00     0.026 A 
ENDBRANCH   2  22
BRANCH   5  36
HETATM   36  C   UNL     1     -42.347  55.914 -52.873  1.00  0.00     0.251 C 
HETATM   37  N   UNL     1     -41.113  55.413 -52.519  1.00  0.00    -0.353 N 
HETATM   38  H   UNL     1     -40.286  55.968 -52.693  1.00  0.00     0.163 HD
HETATM   39  O   UNL     1     -43.408  55.475 -52.440  1.00  0.00    -0.268 OA
BRANCH  37  40
HETATM   40  C   UNL     1     -40.975  54.319 -51.584  1.00  0.00     0.161 C 
BRANCH  40  41
HETATM   41  C   UNL     1     -40.497  53.072 -52.287  1.00  0.00    -0.041 A 
HETATM   42  C   UNL     1     -39.894  52.027 -51.575  1.00  0.00     0.009 A 
HETATM   43  C   UNL     1     -39.469  50.872 -52.236  1.00  0.00     0.001 A 
HETATM   44  C   UNL     1     -39.639  50.751 -53.614  1.00  0.00     0.000 A 
HETATM   45  C   UNL     1     -40.235  51.785 -54.334  1.00  0.00     0.001 A 
HETATM   46  C   UNL     1     -40.662  52.938 -53.675  1.00  0.00     0.009 A 
ENDBRANCH  40  41
ENDBRANCH  37  40
ENDBRANCH   5  36
TORSDOF 8
ENDMDL
MODEL 5
REMARK VINA RESULT:      -9.1      2.282      7.952
REMARK  8 active torsions:
REMARK  status: ('A' for Active; 'I' for Inactive)
REMARK    1  A    between atoms: C_2  and  O_3 
REMARK    2  A    between atoms: O_3  and  C_4 
REMARK    3  A    between atoms: C_7  and  N_8 
REMARK       I    between atoms: N_8  and  C_9 
REMARK       I    between atoms: C_9  and  N_10 
REMARK    4  A    between atoms: N_10  and  C_11 
REMARK    5  A    between atoms: C_12  and  N_13 
REMARK    6  A    between atoms: C_29  and  C_30 
REMARK       I    between atoms: C_30  and  N_31 
REMARK    7  A    between atoms: N_31  and  C_32 
REMARK    8  A    between atoms: C_32  and  C_33 
ROOT
HETATM    1  C   UNL     1     -44.087  59.337 -54.800  1.00  0.00     0.043 A 
HETATM    2  C   UNL     1     -44.571  58.617 -55.917  1.00  0.00     0.052 A 
HETATM    3  C   UNL     1     -44.060  57.309 -56.053  1.00  0.00     0.032 A 
HETATM    4  C   UNL     1     -43.176  56.733 -55.122  1.00  0.00     0.019 A 
HETATM    5  C   UNL     1     -42.757  57.454 -54.011  1.00  0.00     0.033 A 
HETATM    6  C   UNL     1     -43.192  58.765 -53.871  1.00  0.00     0.043 A 
ENDROOT
BRANCH   1   7
HETATM    7  N   UNL     1     -44.450  60.686 -54.529  1.00  0.00    -0.213 NA
HETATM    8  C   UNL     1     -45.088  60.881 -53.310  1.00  0.00     0.281 C 
HETATM    9  N   UNL     1     -44.840  62.140 -52.776  1.00  0.00    -0.215 NA
HETATM   10  O   UNL     1     -45.712  59.984 -52.745  1.00  0.00    -0.260 OA
HETATM   11  H   UNL     1     -43.970  62.516 -53.130  1.00  0.00     0.138 HD
HETATM   12  H   UNL     1     -44.931  61.139 -55.295  1.00  0.00     0.138 HD
BRANCH   9  13
HETATM   13  C   UNL     1     -45.037  62.259 -51.375  1.00  0.00     0.016 C 
HETATM   14  C   UNL     1     -44.113  61.657 -50.520  1.00  0.00     0.026 C 
HETATM   15  C   UNL     1     -44.500  61.339 -49.217  1.00  0.00     0.038 C 
HETATM   16  C   UNL     1     -45.791  61.650 -48.791  1.00  0.00     0.068 C 
HETATM   17  C   UNL     1     -46.637  62.432 -49.574  1.00  0.00     0.038 C 
HETATM   18  C   UNL     1     -46.256  62.737 -50.875  1.00  0.00     0.026 C 
BRANCH  16  19
HETATM   19  O   UNL     1     -46.245  61.070 -47.634  1.00  0.00    -0.352 OA
BRANCH  19  20
HETATM   20  C   UNL     1     -45.157  60.985 -46.692  1.00  0.00     0.171 C 
HETATM   21  C   UNL     1     -45.292  62.105 -45.679  1.00  0.00     0.034 C 
ENDBRANCH  19  20
ENDBRANCH  16  19
ENDBRANCH   9  13
ENDBRANCH   1   7
BRANCH   2  22
HETATM   22  N   UNL     1     -45.515  59.133 -56.813  1.00  0.00    -0.378 N 
HETATM   23  C   UNL     1     -45.163  60.229 -57.734  1.00  0.00     0.133 C 
HETATM   24  C   UNL     1     -45.177  59.806 -59.223  1.00  0.00     0.054 C 
HETATM   25  C   UNL     1     -46.539  59.206 -59.559  1.00  0.00     0.020 C 
HETATM   26  C   UNL     1     -44.076  58.823 -59.583  1.00  0.00     0.020 A 
HETATM   27  C   UNL     1     -46.695  57.958 -58.709  1.00  0.00     0.023 C 
HETATM   28  C   UNL     1     -45.622  56.927 -59.073  1.00  0.00     0.138 C 
HETATM   29  C   UNL     1     -46.666  58.302 -57.214  1.00  0.00     0.129 C 
HETATM   30  N   UNL     1     -44.314  57.451 -59.459  1.00  0.00    -0.317 N 
HETATM   31  C   UNL     1     -43.350  56.488 -59.781  1.00  0.00     0.247 A 
HETATM   32  O   UNL     1     -43.525  55.274 -59.728  1.00  0.00    -0.268 OA
HETATM   33  C   UNL     1     -42.038  57.003 -60.245  1.00  0.00     0.074 A 
HETATM   34  C   UNL     1     -41.839  58.319 -60.371  1.00  0.00     0.007 A 
HETATM   35  C   UNL     1     -42.885  59.252 -60.042  1.00  0.00     0.026 A 
ENDBRANCH   2  22
BRANCH   5  36
HETATM   36  C   UNL     1     -41.829  56.833 -53.023  1.00  0.00     0.251 C 
HETATM   37  N   UNL     1     -42.090  55.523 -52.686  1.00  0.00    -0.353 N 
HETATM   38  H   UNL     1     -42.695  54.970 -53.278  1.00  0.00     0.163 HD
HETATM   39  O   UNL     1     -40.894  57.480 -52.562  1.00  0.00    -0.268 OA
BRANCH  37  40
HETATM   40  C   UNL     1     -41.256  54.797 -51.755  1.00  0.00     0.161 C 
BRANCH  40  41
HETATM   41  C   UNL     1     -40.701  53.548 -52.395  1.00  0.00    -0.041 A 
HETATM   42  C   UNL     1     -40.945  53.257 -53.744  1.00  0.00     0.009 A 
HETATM   43  C   UNL     1     -40.413  52.105 -54.328  1.00  0.00     0.001 A 
HETATM   44  C   UNL     1     -39.637  51.230 -53.570  1.00  0.00     0.000 A 
HETATM   45  C   UNL     1     -39.390  51.507 -52.227  1.00  0.00     0.001 A 
HETATM   46  C   UNL     1     -39.918  52.659 -51.643  1.00  0.00     0.009 A 
ENDBRANCH  40  41
ENDBRANCH  37  40
ENDBRANCH   5  36
TORSDOF 8
ENDMDL
MODEL 6
REMARK VINA RESULT:      -8.7      2.421      7.283
REMARK  8 active torsions:
REMARK  status: ('A' for Active; 'I' for Inactive)
REMARK    1  A    between atoms: C_2  and  O_3 
REMARK    2  A    between atoms: O_3  and  C_4 
REMARK    3  A    between atoms: C_7  and  N_8 
REMARK       I    between atoms: N_8  and  C_9 
REMARK       I    between atoms: C_9  and  N_10 
REMARK    4  A    between atoms: N_10  and  C_11 
REMARK    5  A    between atoms: C_12  and  N_13 
REMARK    6  A    between atoms: C_29  and  C_30 
REMARK       I    between atoms: C_30  and  N_31 
REMARK    7  A    between atoms: N_31  and  C_32 
REMARK    8  A    between atoms: C_32  and  C_33 
ROOT
HETATM    1  C   UNL     1     -43.736  56.534 -54.257  1.00  0.00     0.043 A 
HETATM    2  C   UNL     1     -43.900  57.262 -55.459  1.00  0.00     0.052 A 
HETATM    3  C   UNL     1     -42.921  57.017 -56.444  1.00  0.00     0.032 A 
HETATM    4  C   UNL     1     -41.885  56.079 -56.278  1.00  0.00     0.019 A 
HETATM    5  C   UNL     1     -41.782  55.348 -55.100  1.00  0.00     0.033 A 
HETATM    6  C   UNL     1     -42.692  55.601 -54.082  1.00  0.00     0.043 A 
ENDROOT
BRANCH   1   7
HETATM    7  N   UNL     1     -44.595  56.688 -53.133  1.00  0.00    -0.213 NA
HETATM    8  C   UNL     1     -44.390  57.852 -52.402  1.00  0.00     0.281 C 
HETATM    9  N   UNL     1     -45.553  58.309 -51.794  1.00  0.00    -0.215 NA
HETATM   10  O   UNL     1     -43.311  58.443 -52.397  1.00  0.00    -0.260 OA
HETATM   11  H   UNL     1     -46.371  57.980 -52.289  1.00  0.00     0.138 HD
HETATM   12  H   UNL     1     -44.647  55.866 -52.545  1.00  0.00     0.138 HD
BRANCH   9  13
HETATM   13  C   UNL     1     -45.558  59.685 -51.443  1.00  0.00     0.016 C 
HETATM   14  C   UNL     1     -45.316  60.033 -50.113  1.00  0.00     0.026 C 
HETATM   15  C   UNL     1     -45.769  61.266 -49.641  1.00  0.00     0.038 C 
HETATM   16  C   UNL     1     -46.432  62.132 -50.510  1.00  0.00     0.068 C 
HETATM   17  C   UNL     1     -46.488  61.872 -51.877  1.00  0.00     0.038 C 
HETATM   18  C   UNL     1     -46.048  60.639 -52.345  1.00  0.00     0.026 C 
BRANCH  16  19
HETATM   19  O   UNL     1     -47.125  63.183 -49.968  1.00  0.00    -0.352 OA
BRANCH  19  20
HETATM   20  C   UNL     1     -47.226  62.995 -48.543  1.00  0.00     0.171 C 
HETATM   21  C   UNL     1     -46.931  64.309 -47.847  1.00  0.00     0.034 C 
ENDBRANCH  19  20
ENDBRANCH  16  19
ENDBRANCH   9  13
ENDBRANCH   1   7
BRANCH   2  22
HETATM   22  N   UNL     1     -44.968  58.137 -55.686  1.00  0.00    -0.378 N 
HETATM   23  C   UNL     1     -44.734  59.581 -55.877  1.00  0.00     0.133 C 
HETATM   24  C   UNL     1     -45.082  60.074 -57.303  1.00  0.00     0.054 C 
HETATM   25  C   UNL     1     -46.523  59.692 -57.626  1.00  0.00     0.020 C 
HETATM   26  C   UNL     1     -44.151  59.533 -58.374  1.00  0.00     0.020 A 
HETATM   27  C   UNL     1     -46.591  58.174 -57.618  1.00  0.00     0.023 C 
HETATM   28  C   UNL     1     -45.692  57.595 -58.714  1.00  0.00     0.138 C 
HETATM   29  C   UNL     1     -46.232  57.613 -56.235  1.00  0.00     0.129 C 
HETATM   30  N   UNL     1     -44.456  58.321 -58.999  1.00  0.00    -0.317 N 
HETATM   31  C   UNL     1     -43.649  57.767 -60.001  1.00  0.00     0.247 A 
HETATM   32  O   UNL     1     -43.896  56.727 -60.607  1.00  0.00    -0.268 OA
HETATM   33  C   UNL     1     -42.426  58.529 -60.355  1.00  0.00     0.074 A 
HETATM   34  C   UNL     1     -42.165  59.694 -59.755  1.00  0.00     0.007 A 
HETATM   35  C   UNL     1     -43.052  60.214 -58.747  1.00  0.00     0.026 A 
ENDBRANCH   2  22
BRANCH   5  36
HETATM   36  C   UNL     1     -40.689  54.348 -54.935  1.00  0.00     0.251 C 
HETATM   37  N   UNL     1     -41.079  53.074 -54.583  1.00  0.00    -0.353 N 
HETATM   38  H   UNL     1     -42.045  52.802 -54.703  1.00  0.00     0.163 HD
HETATM   39  O   UNL     1     -39.520  54.675 -55.117  1.00  0.00    -0.268 OA
BRANCH  37  40
HETATM   40  C   UNL     1     -40.121  52.005 -54.410  1.00  0.00     0.161 C 
BRANCH  40  41
HETATM   41  C   UNL     1     -40.066  51.565 -52.968  1.00  0.00    -0.041 A 
HETATM   42  C   UNL     1     -40.328  52.464 -51.926  1.00  0.00     0.009 A 
HETATM   43  C   UNL     1     -40.287  52.039 -50.596  1.00  0.00     0.001 A 
HETATM   44  C   UNL     1     -39.980  50.713 -50.294  1.00  0.00     0.000 A 
HETATM   45  C   UNL     1     -39.715  49.810 -51.321  1.00  0.00     0.001 A 
HETATM   46  C   UNL     1     -39.758  50.232 -52.650  1.00  0.00     0.009 A 
ENDBRANCH  40  41
ENDBRANCH  37  40
ENDBRANCH   5  36
TORSDOF 8
ENDMDL
MODEL 7
REMARK VINA RESULT:      -8.5      2.703      9.429
REMARK  8 active torsions:
REMARK  status: ('A' for Active; 'I' for Inactive)
REMARK    1  A    between atoms: C_2  and  O_3 
REMARK    2  A    between atoms: O_3  and  C_4 
REMARK    3  A    between atoms: C_7  and  N_8 
REMARK       I    between atoms: N_8  and  C_9 
REMARK       I    between atoms: C_9  and  N_10 
REMARK    4  A    between atoms: N_10  and  C_11 
REMARK    5  A    between atoms: C_12  and  N_13 
REMARK    6  A    between atoms: C_29  and  C_30 
REMARK       I    between atoms: C_30  and  N_31 
REMARK    7  A    between atoms: N_31  and  C_32 
REMARK    8  A    between atoms: C_32  and  C_33 
ROOT
HETATM    1  C   UNL     1     -44.404  60.113 -53.886  1.00  0.00     0.043 A 
HETATM    2  C   UNL     1     -43.789  58.999 -53.269  1.00  0.00     0.052 A 
HETATM    3  C   UNL     1     -43.989  57.766 -53.925  1.00  0.00     0.032 A 
HETATM    4  C   UNL     1     -44.699  57.650 -55.134  1.00  0.00     0.019 A 
HETATM    5  C   UNL     1     -45.252  58.774 -55.736  1.00  0.00     0.033 A 
HETATM    6  C   UNL     1     -45.126  59.998 -55.092  1.00  0.00     0.043 A 
ENDROOT
BRANCH   1   7
HETATM    7  N   UNL     1     -44.356  61.427 -53.341  1.00  0.00    -0.213 NA
HETATM    8  C   UNL     1     -45.103  61.603 -52.182  1.00  0.00     0.281 C 
HETATM    9  N   UNL     1     -44.562  62.568 -51.342  1.00  0.00    -0.215 NA
HETATM   10  O   UNL     1     -46.072  60.895 -51.914  1.00  0.00    -0.260 OA
HETATM   11  H   UNL     1     -43.569  62.672 -51.506  1.00  0.00     0.138 HD
HETATM   12  H   UNL     1     -44.521  62.157 -54.023  1.00  0.00     0.138 HD
BRANCH   9  13
HETATM   13  C   UNL     1     -44.956  62.484 -49.981  1.00  0.00     0.016 C 
HETATM   14  C   UNL     1     -44.351  61.521 -49.172  1.00  0.00     0.026 C 
HETATM   15  C   UNL     1     -45.012  61.089 -48.021  1.00  0.00     0.038 C 
HETATM   16  C   UNL     1     -46.248  61.643 -47.692  1.00  0.00     0.068 C 
HETATM   17  C   UNL     1     -46.749  62.743 -48.383  1.00  0.00     0.038 C 
HETATM   18  C   UNL     1     -46.097  63.165 -49.536  1.00  0.00     0.026 C 
BRANCH  16  19
HETATM   19  O   UNL     1     -47.010  61.004 -46.746  1.00  0.00    -0.352 OA
BRANCH  19  20
HETATM   20  C   UNL     1     -46.192  60.037 -46.059  1.00  0.00     0.171 C 
HETATM   21  C   UNL     1     -47.046  58.843 -45.685  1.00  0.00     0.034 C 
ENDBRANCH  19  20
ENDBRANCH  16  19
ENDBRANCH   9  13
ENDBRANCH   1   7
BRANCH   2  22
HETATM   22  N   UNL     1     -43.006  59.097 -52.113  1.00  0.00    -0.378 N 
HETATM   23  C   UNL     1     -43.270  58.235 -50.945  1.00  0.00     0.133 C 
HETATM   24  C   UNL     1     -42.129  57.229 -50.657  1.00  0.00     0.054 C 
HETATM   25  C   UNL     1     -40.816  57.990 -50.507  1.00  0.00     0.020 C 
HETATM   26  C   UNL     1     -41.986  56.156 -51.724  1.00  0.00     0.020 A 
HETATM   27  C   UNL     1     -40.535  58.657 -51.842  1.00  0.00     0.023 C 
HETATM   28  C   UNL     1     -40.346  57.601 -52.935  1.00  0.00     0.138 C 
HETATM   29  C   UNL     1     -41.643  59.655 -52.204  1.00  0.00     0.129 C 
HETATM   30  N   UNL     1     -41.153  56.388 -52.822  1.00  0.00    -0.317 N 
HETATM   31  C   UNL     1     -40.966  55.442 -53.837  1.00  0.00     0.247 A 
HETATM   32  O   UNL     1     -40.214  55.583 -54.798  1.00  0.00    -0.268 OA
HETATM   33  C   UNL     1     -41.722  54.173 -53.699  1.00  0.00     0.074 A 
HETATM   34  C   UNL     1     -42.499  53.968 -52.632  1.00  0.00     0.007 A 
HETATM   35  C   UNL     1     -42.628  54.978 -51.614  1.00  0.00     0.026 A 
ENDBRANCH   2  22
BRANCH   5  36
HETATM   36  C   UNL     1     -45.993  58.645 -57.023  1.00  0.00     0.251 C 
HETATM   37  N   UNL     1     -45.412  59.240 -58.122  1.00  0.00    -0.353 N 
HETATM   38  H   UNL     1     -44.434  59.496 -58.086  1.00  0.00     0.163 HD
HETATM   39  O   UNL     1     -47.054  58.030 -57.065  1.00  0.00    -0.268 OA
BRANCH  37  40
HETATM   40  C   UNL     1     -46.016  59.172 -59.433  1.00  0.00     0.161 C 
BRANCH  40  41
HETATM   41  C   UNL     1     -45.782  57.820 -60.060  1.00  0.00    -0.041 A 
HETATM   42  C   UNL     1     -44.491  57.283 -60.161  1.00  0.00     0.009 A 
HETATM   43  C   UNL     1     -44.290  56.024 -60.732  1.00  0.00     0.001 A 
HETATM   44  C   UNL     1     -45.374  55.290 -61.209  1.00  0.00     0.000 A 
HETATM   45  C   UNL     1     -46.662  55.814 -61.117  1.00  0.00     0.001 A 
HETATM   46  C   UNL     1     -46.865  57.070 -60.545  1.00  0.00     0.009 A 
ENDBRANCH  40  41
ENDBRANCH  37  40
ENDBRANCH   5  36
TORSDOF 8
ENDMDL
MODEL 8
REMARK VINA RESULT:      -8.5      2.564      8.058
REMARK  8 active torsions:
REMARK  status: ('A' for Active; 'I' for Inactive)
REMARK    1  A    between atoms: C_2  and  O_3 
REMARK    2  A    between atoms: O_3  and  C_4 
REMARK    3  A    between atoms: C_7  and  N_8 
REMARK       I    between atoms: N_8  and  C_9 
REMARK       I    between atoms: C_9  and  N_10 
REMARK    4  A    between atoms: N_10  and  C_11 
REMARK    5  A    between atoms: C_12  and  N_13 
REMARK    6  A    between atoms: C_29  and  C_30 
REMARK       I    between atoms: C_30  and  N_31 
REMARK    7  A    between atoms: N_31  and  C_32 
REMARK    8  A    between atoms: C_32  and  C_33 
ROOT
HETATM    1  C   UNL     1     -42.826  59.847 -54.533  1.00  0.00     0.043 A 
HETATM    2  C   UNL     1     -42.807  59.510 -55.907  1.00  0.00     0.052 A 
HETATM    3  C   UNL     1     -42.970  58.138 -56.189  1.00  0.00     0.032 A 
HETATM    4  C   UNL     1     -43.191  57.173 -55.189  1.00  0.00     0.019 A 
HETATM    5  C   UNL     1     -43.248  57.546 -53.851  1.00  0.00     0.033 A 
HETATM    6  C   UNL     1     -43.036  58.880 -53.528  1.00  0.00     0.043 A 
ENDROOT
BRANCH   1   7
HETATM    7  N   UNL     1     -42.626  61.173 -54.056  1.00  0.00    -0.213 NA
HETATM    8  C   UNL     1     -43.586  61.616 -53.154  1.00  0.00     0.281 C 
HETATM    9  N   UNL     1     -43.077  62.532 -52.243  1.00  0.00    -0.215 NA
HETATM   10  O   UNL     1     -44.725  61.152 -53.129  1.00  0.00    -0.260 OA
HETATM   11  H   UNL     1     -42.078  62.414 -52.133  1.00  0.00     0.138 HD
HETATM   12  H   UNL     1     -42.442  61.846 -54.789  1.00  0.00     0.138 HD
BRANCH   9  13
HETATM   13  C   UNL     1     -43.816  62.671 -51.039  1.00  0.00     0.016 C 
HETATM   14  C   UNL     1     -43.622  61.730 -50.026  1.00  0.00     0.026 C 
HETATM   15  C   UNL     1     -44.623  61.544 -49.071  1.00  0.00     0.038 C 
HETATM   16  C   UNL     1     -45.781  62.317 -49.134  1.00  0.00     0.068 C 
HETATM   17  C   UNL     1     -45.881  63.391 -50.014  1.00  0.00     0.038 C 
HETATM   18  C   UNL     1     -44.890  63.568 -50.973  1.00  0.00     0.026 C 
BRANCH  16  19
HETATM   19  O   UNL     1     -46.862  61.919 -48.388  1.00  0.00    -0.352 OA
BRANCH  19  20
HETATM   20  C   UNL     1     -47.414  63.067 -47.712  1.00  0.00     0.171 C 
HETATM   21  C   UNL     1     -46.994  63.033 -46.257  1.00  0.00     0.034 C 
ENDBRANCH  19  20
ENDBRANCH  16  19
ENDBRANCH   9  13
ENDBRANCH   1   7
BRANCH   2  22
HETATM   22  N   UNL     1     -42.675  60.459 -56.928  1.00  0.00    -0.378 N 
HETATM   23  C   UNL     1     -41.565  60.377 -57.897  1.00  0.00     0.133 C 
HETATM   24  C   UNL     1     -42.035  60.078 -59.341  1.00  0.00     0.054 C 
HETATM   25  C   UNL     1     -43.068  61.120 -59.757  1.00  0.00     0.020 C 
HETATM   26  C   UNL     1     -42.611  58.682 -59.512  1.00  0.00     0.020 A 
HETATM   27  C   UNL     1     -44.258  60.961 -58.828  1.00  0.00     0.023 C 
HETATM   28  C   UNL     1     -44.888  59.575 -59.003  1.00  0.00     0.138 C 
HETATM   29  C   UNL     1     -43.858  61.221 -57.369  1.00  0.00     0.129 C 
HETATM   30  N   UNL     1     -43.977  58.473 -59.302  1.00  0.00    -0.317 N 
HETATM   31  C   UNL     1     -44.577  57.217 -59.450  1.00  0.00     0.247 A 
HETATM   32  O   UNL     1     -45.777  56.992 -59.316  1.00  0.00    -0.268 OA
HETATM   33  C   UNL     1     -43.677  56.099 -59.825  1.00  0.00     0.074 A 
HETATM   34  C   UNL     1     -42.377  56.327 -60.038  1.00  0.00     0.007 A 
HETATM   35  C   UNL     1     -41.831  57.651 -59.887  1.00  0.00     0.026 A 
ENDBRANCH   2  22
BRANCH   5  36
HETATM   36  C   UNL     1     -43.494  56.520 -52.799  1.00  0.00     0.251 C 
HETATM   37  N   UNL     1     -42.986  55.263 -53.046  1.00  0.00    -0.353 N 
HETATM   38  H   UNL     1     -42.277  55.147 -53.757  1.00  0.00     0.163 HD
HETATM   39  O   UNL     1     -44.111  56.815 -51.781  1.00  0.00    -0.268 OA
BRANCH  37  40
HETATM   40  C   UNL     1     -43.137  54.182 -52.098  1.00  0.00     0.161 C 
BRANCH  40  41
HETATM   41  C   UNL     1     -41.976  54.150 -51.134  1.00  0.00    -0.041 A 
HETATM   42  C   UNL     1     -40.751  53.575 -51.496  1.00  0.00     0.009 A 
HETATM   43  C   UNL     1     -39.680  53.566 -50.599  1.00  0.00     0.001 A 
HETATM   44  C   UNL     1     -39.823  54.127 -49.331  1.00  0.00     0.000 A 
HETATM   45  C   UNL     1     -41.038  54.700 -48.959  1.00  0.00     0.001 A 
HETATM   46  C   UNL     1     -42.108  54.712 -49.854  1.00  0.00     0.009 A 
ENDBRANCH  40  41
ENDBRANCH  37  40
ENDBRANCH   5  36
TORSDOF 8
ENDMDL
MODEL 9
REMARK VINA RESULT:      -8.5      2.596      8.200
REMARK  8 active torsions:
REMARK  status: ('A' for Active; 'I' for Inactive)
REMARK    1  A    between atoms: C_2  and  O_3 
REMARK    2  A    between atoms: O_3  and  C_4 
REMARK    3  A    between atoms: C_7  and  N_8 
REMARK       I    between atoms: N_8  and  C_9 
REMARK       I    between atoms: C_9  and  N_10 
REMARK    4  A    between atoms: N_10  and  C_11 
REMARK    5  A    between atoms: C_12  and  N_13 
REMARK    6  A    between atoms: C_29  and  C_30 
REMARK       I    between atoms: C_30  and  N_31 
REMARK    7  A    between atoms: N_31  and  C_32 
REMARK    8  A    between atoms: C_32  and  C_33 
ROOT
HETATM    1  C   UNL     1     -43.115  60.285 -53.088  1.00  0.00     0.043 A 
HETATM    2  C   UNL     1     -43.360  60.041 -54.459  1.00  0.00     0.052 A 
HETATM    3  C   UNL     1     -42.911  58.791 -54.934  1.00  0.00     0.032 A 
HETATM    4  C   UNL     1     -42.312  57.827 -54.102  1.00  0.00     0.019 A 
HETATM    5  C   UNL     1     -42.128  58.083 -52.748  1.00  0.00     0.033 A 
HETATM    6  C   UNL     1     -42.505  59.325 -52.253  1.00  0.00     0.043 A 
ENDROOT
BRANCH   1   7
HETATM    7  N   UNL     1     -43.450  61.510 -52.445  1.00  0.00    -0.213 NA
HETATM    8  C   UNL     1     -44.623  61.473 -51.700  1.00  0.00     0.281 C 
HETATM    9  N   UNL     1     -44.593  62.344 -50.618  1.00  0.00    -0.215 NA
HETATM   10  O   UNL     1     -45.526  60.672 -51.939  1.00  0.00    -0.260 OA
HETATM   11  H   UNL     1     -43.641  62.533 -50.335  1.00  0.00     0.138 HD
HETATM   12  H   UNL     1     -43.404  62.316 -53.056  1.00  0.00     0.138 HD
BRANCH   9  13
HETATM   13  C   UNL     1     -45.500  62.043 -49.568  1.00  0.00     0.016 C 
HETATM   14  C   UNL     1     -46.639  62.837 -49.425  1.00  0.00     0.026 C 
HETATM   15  C   UNL     1     -47.277  62.894 -48.185  1.00  0.00     0.038 C 
HETATM   16  C   UNL     1     -46.778  62.140 -47.123  1.00  0.00     0.068 C 
HETATM   17  C   UNL     1     -45.773  61.196 -47.322  1.00  0.00     0.038 C 
HETATM   18  C   UNL     1     -45.131  61.149 -48.554  1.00  0.00     0.026 C 
BRANCH  16  19
HETATM   19  O   UNL     1     -47.221  62.435 -45.859  1.00  0.00    -0.352 OA
BRANCH  19  20
HETATM   20  C   UNL     1     -46.938  63.819 -45.573  1.00  0.00     0.171 C 
HETATM   21  C   UNL     1     -45.532  63.933 -45.019  1.00  0.00     0.034 C 
ENDBRANCH  19  20
ENDBRANCH  16  19
ENDBRANCH   9  13
ENDBRANCH   1   7
BRANCH   2  22
HETATM   22  N   UNL     1     -44.029  60.945 -55.292  1.00  0.00    -0.378 N 
HETATM   23  C   UNL     1     -43.294  61.733 -56.299  1.00  0.00     0.133 C 
HETATM   24  C   UNL     1     -43.665  61.363 -57.756  1.00  0.00     0.054 C 
HETATM   25  C   UNL     1     -45.174  61.494 -57.935  1.00  0.00     0.020 C 
HETATM   26  C   UNL     1     -43.214  59.969 -58.160  1.00  0.00     0.020 A 
HETATM   27  C   UNL     1     -45.820  60.478 -57.008  1.00  0.00     0.023 C 
HETATM   28  C   UNL     1     -45.417  59.057 -57.412  1.00  0.00     0.138 C 
HETATM   29  C   UNL     1     -45.472  60.771 -55.542  1.00  0.00     0.129 C 
HETATM   30  N   UNL     1     -44.067  58.884 -57.942  1.00  0.00    -0.317 N 
HETATM   31  C   UNL     1     -43.721  57.574 -58.297  1.00  0.00     0.247 A 
HETATM   32  O   UNL     1     -44.451  56.594 -58.163  1.00  0.00    -0.268 OA
HETATM   33  C   UNL     1     -42.380  57.390 -58.904  1.00  0.00     0.074 A 
HETATM   34  C   UNL     1     -41.590  58.446 -59.119  1.00  0.00     0.007 A 
HETATM   35  C   UNL     1     -42.020  59.769 -58.747  1.00  0.00     0.026 A 
ENDBRANCH   2  22
BRANCH   5  36
HETATM   36  C   UNL     1     -41.504  57.053 -51.870  1.00  0.00     0.251 C 
HETATM   37  N   UNL     1     -41.864  55.746 -52.116  1.00  0.00    -0.353 N 
HETATM   38  H   UNL     1     -42.300  55.511 -52.998  1.00  0.00     0.163 HD
HETATM   39  O   UNL     1     -40.713  57.386 -50.993  1.00  0.00    -0.268 OA
BRANCH  37  40
HETATM   40  C   UNL     1     -41.316  54.649 -51.351  1.00  0.00     0.161 C 
BRANCH  40  41
HETATM   41  C   UNL     1     -40.799  53.565 -52.265  1.00  0.00    -0.041 A 
HETATM   42  C   UNL     1     -41.101  53.567 -53.634  1.00  0.00     0.009 A 
HETATM   43  C   UNL     1     -40.604  52.566 -54.470  1.00  0.00     0.001 A 
HETATM   44  C   UNL     1     -39.804  51.551 -53.949  1.00  0.00     0.000 A 
HETATM   45  C   UNL     1     -39.498  51.536 -52.590  1.00  0.00     0.001 A 
HETATM   46  C   UNL     1     -39.992  52.537 -51.753  1.00  0.00     0.009 A 
ENDBRANCH  40  41
ENDBRANCH  37  40
ENDBRANCH   5  36
TORSDOF 8
ENDMDL
MODEL 10
REMARK VINA RESULT:      -8.5      2.725      8.513
REMARK  8 active torsions:
REMARK  status: ('A' for Active; 'I' for Inactive)
REMARK    1  A    between atoms: C_2  and  O_3 
REMARK    2  A    between atoms: O_3  and  C_4 
REMARK    3  A    between atoms: C_7  and  N_8 
REMARK       I    between atoms: N_8  and  C_9 
REMARK       I    between atoms: C_9  and  N_10 
REMARK    4  A    between atoms: N_10  and  C_11 
REMARK    5  A    between atoms: C_12  and  N_13 
REMARK    6  A    between atoms: C_29  and  C_30 
REMARK       I    between atoms: C_30  and  N_31 
REMARK    7  A    between atoms: N_31  and  C_32 
REMARK    8  A    between atoms: C_32  and  C_33 
ROOT
HETATM    1  C   UNL     1     -44.819  57.893 -54.709  1.00  0.00     0.043 A 
HETATM    2  C   UNL     1     -45.213  58.553 -55.896  1.00  0.00     0.052 A 
HETATM    3  C   UNL     1     -45.144  59.961 -55.848  1.00  0.00     0.032 A 
HETATM    4  C   UNL     1     -44.667  60.666 -54.728  1.00  0.00     0.019 A 
HETATM    5  C   UNL     1     -44.246  59.982 -53.593  1.00  0.00     0.033 A 
HETATM    6  C   UNL     1     -44.352  58.597 -53.579  1.00  0.00     0.043 A 
ENDROOT
BRANCH   1   7
HETATM    7  N   UNL     1     -44.872  56.479 -54.553  1.00  0.00    -0.213 NA
HETATM    8  C   UNL     1     -43.644  55.837 -54.660  1.00  0.00     0.281 C 
HETATM    9  N   UNL     1     -43.580  54.680 -53.893  1.00  0.00    -0.215 NA
HETATM   10  O   UNL     1     -42.704  56.321 -55.289  1.00  0.00    -0.260 OA
HETATM   11  H   UNL     1     -44.235  54.722 -53.123  1.00  0.00     0.138 HD
HETATM   12  H   UNL     1     -45.591  56.035 -55.109  1.00  0.00     0.138 HD
BRANCH   9  13
HETATM   13  C   UNL     1     -42.272  54.235 -53.566  1.00  0.00     0.016 C 
HETATM   14  C   UNL     1     -41.709  53.209 -54.327  1.00  0.00     0.026 C 
HETATM   15  C   UNL     1     -40.684  52.439 -53.775  1.00  0.00     0.038 C 
HETATM   16  C   UNL     1     -40.228  52.725 -52.489  1.00  0.00     0.068 C 
HETATM   17  C   UNL     1     -40.646  53.872 -51.817  1.00  0.00     0.038 C 
HETATM   18  C   UNL     1     -41.676  54.631 -52.362  1.00  0.00     0.026 C 
BRANCH  16  19
HETATM   19  O   UNL     1     -39.450  51.789 -51.857  1.00  0.00    -0.352 OA
BRANCH  19  20
HETATM   20  C   UNL     1     -40.175  51.258 -50.731  1.00  0.00     0.171 C 
HETATM   21  C   UNL     1     -39.857  49.783 -50.588  1.00  0.00     0.034 C 
ENDBRANCH  19  20
ENDBRANCH  16  19
ENDBRANCH   9  13
ENDBRANCH   1   7
BRANCH   2  22
HETATM   22  N   UNL     1     -45.610  57.877 -57.055  1.00  0.00    -0.378 N 
HETATM   23  C   UNL     1     -46.938  58.112 -57.651  1.00  0.00     0.133 C 
HETATM   24  C   UNL     1     -46.875  58.790 -59.041  1.00  0.00     0.054 C 
HETATM   25  C   UNL     1     -45.987  57.959 -59.962  1.00  0.00     0.020 C 
HETATM   26  C   UNL     1     -46.373  60.223 -58.992  1.00  0.00     0.020 A 
HETATM   27  C   UNL     1     -44.591  57.973 -59.363  1.00  0.00     0.023 C 
HETATM   28  C   UNL     1     -44.038  59.401 -59.334  1.00  0.00     0.138 C 
HETATM   29  C   UNL     1     -44.584  57.335 -57.967  1.00  0.00     0.129 C 
HETATM   30  N   UNL     1     -45.002  60.473 -59.096  1.00  0.00    -0.317 N 
HETATM   31  C   UNL     1     -44.469  61.768 -59.068  1.00  0.00     0.247 A 
HETATM   32  O   UNL     1     -43.278  62.040 -59.196  1.00  0.00    -0.268 OA
HETATM   33  C   UNL     1     -45.443  62.874 -58.900  1.00  0.00     0.074 A 
HETATM   34  C   UNL     1     -46.751  62.611 -58.820  1.00  0.00     0.007 A 
HETATM   35  C   UNL     1     -47.229  61.255 -58.877  1.00  0.00     0.026 A 
ENDBRANCH   2  22
BRANCH   5  36
HETATM   36  C   UNL     1     -43.732  60.734 -52.414  1.00  0.00     0.251 C 
HETATM   37  N   UNL     1     -44.098  60.249 -51.177  1.00  0.00    -0.353 N 
HETATM   38  H   UNL     1     -44.454  59.305 -51.102  1.00  0.00     0.163 HD
HETATM   39  O   UNL     1     -43.021  61.721 -52.573  1.00  0.00    -0.268 OA
BRANCH  37  40
HETATM   40  C   UNL     1     -43.651  60.873 -49.953  1.00  0.00     0.161 C 
BRANCH  40  41
HETATM   41  C   UNL     1     -44.816  61.468 -49.200  1.00  0.00    -0.041 A 
HETATM   42  C   UNL     1     -45.734  62.313 -49.837  1.00  0.00     0.009 A 
HETATM   43  C   UNL     1     -46.816  62.845 -49.131  1.00  0.00     0.001 A 
HETATM   44  C   UNL     1     -46.989  62.541 -47.782  1.00  0.00     0.000 A 
HETATM   45  C   UNL     1     -46.082  61.704 -47.136  1.00  0.00     0.001 A 
HETATM   46  C   UNL     1     -45.002  61.170 -47.840  1.00  0.00     0.009 A 
ENDBRANCH  40  41
ENDBRANCH  37  40
ENDBRANCH   5  36
TORSDOF 8
ENDMDL
