MODEL 1
REMARK VINA RESULT:      -8.0      0.000      0.000
REMARK  7 active torsions:
REMARK  status: ('A' for Active; 'I' for Inactive)
REMARK    1  A    between atoms: C_2  and  C_3 
REMARK    2  A    between atoms: C_6  and  C_7 
REMARK       I    between atoms: C_7  and  N_8 
REMARK    3  A    between atoms: C_14  and  C_15 
REMARK       I    between atoms: C_15  and  N_16 
REMARK    4  A    between atoms: N_16  and  C_17 
REMARK    5  A    between atoms: C_17  and  C_18 
REMARK       I    between atoms: N_25  and  C_26 
REMARK    6  A    between atoms: C_26  and  C_27 
REMARK    7  A    between atoms: C_30  and  O_31 
ROOT
HETATM    1  C   UNL     1     -40.384  54.687 -50.696  1.00  0.00     0.253 C 
HETATM    2  N   UNL     1     -41.437  55.513 -51.125  1.00  0.00    -0.348 N 
HETATM    3  C   UNL     1     -42.371  55.117 -52.174  1.00  0.00     0.131 C 
HETATM    4  C   UNL     1     -43.690  55.859 -52.112  1.00  0.00     0.081 C 
HETATM    5  C   UNL     1     -43.564  57.383 -51.979  1.00  0.00     0.142 C 
HETATM    6  O   UNL     1     -44.863  57.774 -51.439  1.00  0.00    -0.358 OA
HETATM    7  C   UNL     1     -45.472  58.724 -52.310  1.00  0.00     0.206 C 
HETATM    8  C   UNL     1     -44.790  58.566 -53.651  1.00  0.00     0.206 C 
HETATM    9  N   UNL     1     -43.462  58.107 -53.258  1.00  0.00    -0.300 N 
HETATM   10  C   UNL     1     -42.382  57.937 -54.111  1.00  0.00     0.257 C 
HETATM   11  O   UNL     1     -41.327  57.404 -53.785  1.00  0.00    -0.267 OA
HETATM   12  C   UNL     1     -42.544  57.763 -50.900  1.00  0.00     0.081 C 
HETATM   13  C   UNL     1     -41.259  56.944 -50.889  1.00  0.00     0.131 C 
HETATM   14  O   UNL     1     -39.579  55.012 -49.824  1.00  0.00    -0.267 OA
ENDROOT
BRANCH   8  15
HETATM   15  C   UNL     1     -45.031  59.879 -54.397  1.00  0.00     0.243 C 
HETATM   16  N   UNL     1     -45.615  59.804 -55.632  1.00  0.00    -0.354 N 
HETATM   17  H   UNL     1     -45.986  58.933 -56.001  1.00  0.00     0.162 HD
HETATM   18  O   UNL     1     -44.587  60.937 -53.948  1.00  0.00    -0.271 OA
BRANCH  16  19
HETATM   19  C   UNL     1     -45.856  61.000 -56.414  1.00  0.00     0.181 C 
BRANCH  19  20
HETATM   20  C   UNL     1     -45.765  60.757 -57.904  1.00  0.00     0.051 A 
HETATM   21  N   UNL     1     -45.428  61.803 -58.706  1.00  0.00    -0.264 NA
HETATM   22  C   UNL     1     -45.366  61.560 -60.034  1.00  0.00     0.117 A 
HETATM   23  C   UNL     1     -45.633  60.329 -60.610  1.00  0.00     0.019 A 
HETATM   24  C   UNL     1     -45.990  59.275 -59.778  1.00  0.00     0.003 A 
HETATM   25  C   UNL     1     -46.062  59.490 -58.405  1.00  0.00     0.029 A 
ENDBRANCH  19  20
ENDBRANCH  16  19
ENDBRANCH   8  15
BRANCH  10  26
HETATM   26  C   UNL     1     -42.413  58.473 -55.484  1.00  0.00     0.032 A 
HETATM   27  C   UNL     1     -41.983  59.789 -55.674  1.00  0.00     0.020 A 
HETATM   28  C   UNL     1     -41.941  60.329 -56.958  1.00  0.00     0.038 A 
HETATM   29  C   UNL     1     -42.301  59.555 -58.063  1.00  0.00     0.068 A 
HETATM   30  C   UNL     1     -42.708  58.231 -57.871  1.00  0.00     0.038 A 
HETATM   31  C   UNL     1     -42.753  57.682 -56.583  1.00  0.00     0.020 A 
BRANCH  29  32
HETATM   32  O   UNL     1     -42.204  60.204 -59.261  1.00  0.00    -0.356 OA
HETATM   33  C   UNL     1     -42.072  59.394 -60.422  1.00  0.00     0.210 C 
ENDBRANCH  29  32
ENDBRANCH  10  26
BRANCH   1  34
HETATM   34  C   UNL     1     -40.208  53.351 -51.313  1.00  0.00     0.032 A 
HETATM   35  C   UNL     1     -40.071  53.220 -52.698  1.00  0.00     0.017 A 
HETATM   36  C   UNL     1     -39.891  51.956 -53.263  1.00  0.00     0.008 A 
HETATM   37  C   UNL     1     -39.806  50.818 -52.447  1.00  0.00    -0.059 A 
HETATM   38  C   UNL     1     -39.903  50.968 -51.056  1.00  0.00     0.008 A 
HETATM   39  C   UNL     1     -40.099  52.230 -50.489  1.00  0.00     0.017 A 
BRANCH  37  40
HETATM   40  C   UNL     1     -39.598  49.454 -53.059  1.00  0.00     0.034 C 
HETATM   41  C   UNL     1     -39.542  49.499 -54.579  1.00  0.00     0.010 C 
ENDBRANCH  37  40
ENDBRANCH   1  34
TORSDOF 7
ENDMDL
MODEL 2
REMARK VINA RESULT:      -7.7      3.241      5.915
REMARK  7 active torsions:
REMARK  status: ('A' for Active; 'I' for Inactive)
REMARK    1  A    between atoms: C_2  and  C_3 
REMARK    2  A    between atoms: C_6  and  C_7 
REMARK       I    between atoms: C_7  and  N_8 
REMARK    3  A    between atoms: C_14  and  C_15 
REMARK       I    between atoms: C_15  and  N_16 
REMARK    4  A    between atoms: N_16  and  C_17 
REMARK    5  A    between atoms: C_17  and  C_18 
REMARK       I    between atoms: N_25  and  C_26 
REMARK    6  A    between atoms: C_26  and  C_27 
REMARK    7  A    between atoms: C_30  and  O_31 
ROOT
HETATM    1  C   UNL     1     -43.028  54.855 -54.686  1.00  0.00     0.253 C 
HETATM    2  N   UNL     1     -42.962  56.257 -54.755  1.00  0.00    -0.348 N 
HETATM    3  C   UNL     1     -42.030  57.042 -53.952  1.00  0.00     0.131 C 
HETATM    4  C   UNL     1     -41.738  58.408 -54.537  1.00  0.00     0.081 C 
HETATM    5  C   UNL     1     -42.981  59.208 -54.951  1.00  0.00     0.142 C 
HETATM    6  O   UNL     1     -42.446  60.176 -55.904  1.00  0.00    -0.358 OA
HETATM    7  C   UNL     1     -42.752  61.496 -55.462  1.00  0.00     0.206 C 
HETATM    8  C   UNL     1     -43.046  61.389 -53.982  1.00  0.00     0.206 C 
HETATM    9  N   UNL     1     -43.568  60.030 -53.879  1.00  0.00    -0.300 N 
HETATM   10  C   UNL     1     -44.122  59.464 -52.742  1.00  0.00     0.257 C 
HETATM   11  O   UNL     1     -44.410  58.276 -52.637  1.00  0.00    -0.267 OA
HETATM   12  C   UNL     1     -43.957  58.343 -55.756  1.00  0.00     0.081 C 
HETATM   13  C   UNL     1     -44.170  56.927 -55.231  1.00  0.00     0.131 C 
HETATM   14  O   UNL     1     -43.817  54.179 -55.344  1.00  0.00    -0.267 OA
ENDROOT
BRANCH   8  15
HETATM   15  C   UNL     1     -43.870  62.629 -53.631  1.00  0.00     0.243 C 
HETATM   16  N   UNL     1     -44.999  62.864 -54.366  1.00  0.00    -0.354 N 
HETATM   17  H   UNL     1     -45.353  62.192 -55.040  1.00  0.00     0.162 HD
HETATM   18  O   UNL     1     -43.444  63.442 -52.809  1.00  0.00    -0.271 OA
BRANCH  16  19
HETATM   19  C   UNL     1     -45.822  64.030 -54.112  1.00  0.00     0.181 C 
BRANCH  19  20
HETATM   20  C   UNL     1     -47.121  63.691 -53.416  1.00  0.00     0.051 A 
HETATM   21  N   UNL     1     -47.467  64.414 -52.317  1.00  0.00    -0.264 NA
HETATM   22  C   UNL     1     -48.627  64.082 -51.706  1.00  0.00     0.117 A 
HETATM   23  C   UNL     1     -49.459  63.058 -52.129  1.00  0.00     0.019 A 
HETATM   24  C   UNL     1     -49.083  62.321 -53.244  1.00  0.00     0.003 A 
HETATM   25  C   UNL     1     -47.895  62.637 -53.897  1.00  0.00     0.029 A 
ENDBRANCH  19  20
ENDBRANCH  16  19
ENDBRANCH   8  15
BRANCH  10  26
HETATM   26  C   UNL     1     -44.479  60.298 -51.579  1.00  0.00     0.032 A 
HETATM   27  C   UNL     1     -45.800  60.742 -51.484  1.00  0.00     0.020 A 
HETATM   28  C   UNL     1     -46.204  61.489 -50.379  1.00  0.00     0.038 A 
HETATM   29  C   UNL     1     -45.304  61.775 -49.351  1.00  0.00     0.068 A 
HETATM   30  C   UNL     1     -43.989  61.307 -49.438  1.00  0.00     0.038 A 
HETATM   31  C   UNL     1     -43.576  60.557 -50.546  1.00  0.00     0.020 A 
BRANCH  29  32
HETATM   32  O   UNL     1     -45.835  62.505 -48.324  1.00  0.00    -0.356 OA
HETATM   33  C   UNL     1     -47.186  62.925 -48.465  1.00  0.00     0.210 C 
ENDBRANCH  29  32
ENDBRANCH  10  26
BRANCH   1  34
HETATM   34  C   UNL     1     -42.114  54.126 -53.774  1.00  0.00     0.032 A 
HETATM   35  C   UNL     1     -42.336  54.126 -52.394  1.00  0.00     0.017 A 
HETATM   36  C   UNL     1     -41.475  53.423 -51.551  1.00  0.00     0.008 A 
HETATM   37  C   UNL     1     -40.407  52.681 -52.081  1.00  0.00    -0.059 A 
HETATM   38  C   UNL     1     -40.220  52.656 -53.471  1.00  0.00     0.008 A 
HETATM   39  C   UNL     1     -41.072  53.372 -54.317  1.00  0.00     0.017 A 
BRANCH  37  40
HETATM   40  C   UNL     1     -39.485  51.911 -51.168  1.00  0.00     0.034 C 
HETATM   41  C   UNL     1     -39.531  50.412 -51.424  1.00  0.00     0.010 C 
ENDBRANCH  37  40
ENDBRANCH   1  34
TORSDOF 7
ENDMDL
MODEL 3
REMARK VINA RESULT:      -7.6      4.241      8.763
REMARK  7 active torsions:
REMARK  status: ('A' for Active; 'I' for Inactive)
REMARK    1  A    between atoms: C_2  and  C_3 
REMARK    2  A    between atoms: C_6  and  C_7 
REMARK       I    between atoms: C_7  and  N_8 
REMARK    3  A    between atoms: C_14  and  C_15 
REMARK       I    between atoms: C_15  and  N_16 
REMARK    4  A    between atoms: N_16  and  C_17 
REMARK    5  A    between atoms: C_17  and  C_18 
REMARK       I    between atoms: N_25  and  C_26 
REMARK    6  A    between atoms: C_26  and  C_27 
REMARK    7  A    between atoms: C_30  and  O_31 
ROOT
HETATM    1  C   UNL     1     -44.465  63.830 -50.115  1.00  0.00     0.253 C 
HETATM    2  N   UNL     1     -44.629  62.850 -51.108  1.00  0.00    -0.348 N 
HETATM    3  C   UNL     1     -45.568  61.742 -50.974  1.00  0.00     0.131 C 
HETATM    4  C   UNL     1     -45.981  61.142 -52.302  1.00  0.00     0.081 C 
HETATM    5  C   UNL     1     -44.818  60.819 -53.249  1.00  0.00     0.142 C 
HETATM    6  O   UNL     1     -45.466  60.763 -54.557  1.00  0.00    -0.358 OA
HETATM    7  C   UNL     1     -45.226  59.491 -55.152  1.00  0.00     0.206 C 
HETATM    8  C   UNL     1     -44.851  58.559 -54.021  1.00  0.00     0.206 C 
HETATM    9  N   UNL     1     -44.233  59.478 -53.070  1.00  0.00    -0.300 N 
HETATM   10  C   UNL     1     -43.585  59.113 -51.901  1.00  0.00     0.257 C 
HETATM   11  O   UNL     1     -43.213  59.908 -51.045  1.00  0.00    -0.267 OA
HETATM   12  C   UNL     1     -43.830  61.986 -53.334  1.00  0.00     0.081 C 
HETATM   13  C   UNL     1     -43.495  62.664 -52.011  1.00  0.00     0.131 C 
HETATM   14  O   UNL     1     -43.667  64.762 -50.206  1.00  0.00    -0.267 OA
ENDROOT
BRANCH   8  15
HETATM   15  C   UNL     1     -44.095  57.399 -54.671  1.00  0.00     0.243 C 
HETATM   16  N   UNL     1     -43.122  57.712 -55.581  1.00  0.00    -0.354 N 
HETATM   17  H   UNL     1     -42.821  58.669 -55.740  1.00  0.00     0.162 HD
HETATM   18  O   UNL     1     -44.456  56.238 -54.474  1.00  0.00    -0.271 OA
BRANCH  16  19
HETATM   19  C   UNL     1     -42.376  56.671 -56.259  1.00  0.00     0.181 C 
BRANCH  19  20
HETATM   20  C   UNL     1     -42.722  56.561 -57.727  1.00  0.00     0.051 A 
HETATM   21  N   UNL     1     -42.340  57.572 -58.553  1.00  0.00    -0.264 NA
HETATM   22  C   UNL     1     -42.673  57.455 -59.858  1.00  0.00     0.117 A 
HETATM   23  C   UNL     1     -43.378  56.384 -60.385  1.00  0.00     0.019 A 
HETATM   24  C   UNL     1     -43.774  55.369 -59.524  1.00  0.00     0.003 A 
HETATM   25  C   UNL     1     -43.446  55.457 -58.174  1.00  0.00     0.029 A 
ENDBRANCH  19  20
ENDBRANCH  16  19
ENDBRANCH   8  15
BRANCH  10  26
HETATM   26  C   UNL     1     -43.225  57.706 -51.644  1.00  0.00     0.032 A 
HETATM   27  C   UNL     1     -41.921  57.307 -51.945  1.00  0.00     0.020 A 
HETATM   28  C   UNL     1     -41.512  56.003 -51.673  1.00  0.00     0.038 A 
HETATM   29  C   UNL     1     -42.390  55.097 -51.075  1.00  0.00     0.068 A 
HETATM   30  C   UNL     1     -43.687  55.507 -50.753  1.00  0.00     0.038 A 
HETATM   31  C   UNL     1     -44.105  56.816 -51.024  1.00  0.00     0.020 A 
BRANCH  29  32
HETATM   32  O   UNL     1     -41.857  53.858 -50.855  1.00  0.00    -0.356 OA
HETATM   33  C   UNL     1     -40.895  53.395 -51.794  1.00  0.00     0.210 C 
ENDBRANCH  29  32
ENDBRANCH  10  26
BRANCH   1  34
HETATM   34  C   UNL     1     -45.280  63.758 -48.879  1.00  0.00     0.032 A 
HETATM   35  C   UNL     1     -44.792  63.108 -47.741  1.00  0.00     0.017 A 
HETATM   36  C   UNL     1     -45.566  63.062 -46.581  1.00  0.00     0.008 A 
HETATM   37  C   UNL     1     -46.816  63.699 -46.532  1.00  0.00    -0.059 A 
HETATM   38  C   UNL     1     -47.275  64.383 -47.667  1.00  0.00     0.008 A 
HETATM   39  C   UNL     1     -46.510  64.418 -48.836  1.00  0.00     0.017 A 
BRANCH  37  40
HETATM   40  C   UNL     1     -47.645  63.659 -45.272  1.00  0.00     0.034 C 
HETATM   41  C   UNL     1     -47.066  64.530 -44.166  1.00  0.00     0.010 C 
ENDBRANCH  37  40
ENDBRANCH   1  34
TORSDOF 7
ENDMDL
MODEL 4
REMARK VINA RESULT:      -7.4      1.394      1.949
REMARK  7 active torsions:
REMARK  status: ('A' for Active; 'I' for Inactive)
REMARK    1  A    between atoms: C_2  and  C_3 
REMARK    2  A    between atoms: C_6  and  C_7 
REMARK       I    between atoms: C_7  and  N_8 
REMARK    3  A    between atoms: C_14  and  C_15 
REMARK       I    between atoms: C_15  and  N_16 
REMARK    4  A    between atoms: N_16  and  C_17 
REMARK    5  A    between atoms: C_17  and  C_18 
REMARK       I    between atoms: N_25  and  C_26 
REMARK    6  A    between atoms: C_26  and  C_27 
REMARK    7  A    between atoms: C_30  and  O_31 
ROOT
HETATM    1  C   UNL     1     -40.542  54.895 -50.768  1.00  0.00     0.253 C 
HETATM    2  N   UNL     1     -41.584  55.720 -51.226  1.00  0.00    -0.348 N 
HETATM    3  C   UNL     1     -42.480  55.328 -52.310  1.00  0.00     0.131 C 
HETATM    4  C   UNL     1     -43.803  56.063 -52.288  1.00  0.00     0.081 C 
HETATM    5  C   UNL     1     -43.689  57.586 -52.137  1.00  0.00     0.142 C 
HETATM    6  O   UNL     1     -45.008  57.967 -51.639  1.00  0.00    -0.358 OA
HETATM    7  C   UNL     1     -45.592  58.921 -52.522  1.00  0.00     0.206 C 
HETATM    8  C   UNL     1     -44.863  58.778 -53.840  1.00  0.00     0.206 C 
HETATM    9  N   UNL     1     -43.548  58.322 -53.405  1.00  0.00    -0.300 N 
HETATM   10  C   UNL     1     -42.439  58.165 -54.222  1.00  0.00     0.257 C 
HETATM   11  O   UNL     1     -41.393  57.634 -53.865  1.00  0.00    -0.267 OA
HETATM   12  C   UNL     1     -42.710  57.963 -51.020  1.00  0.00     0.081 C 
HETATM   13  C   UNL     1     -41.422  57.149 -50.972  1.00  0.00     0.131 C 
HETATM   14  O   UNL     1     -39.769  55.216 -49.867  1.00  0.00    -0.267 OA
ENDROOT
BRANCH   8  15
HETATM   15  C   UNL     1     -45.086  60.097 -54.583  1.00  0.00     0.243 C 
HETATM   16  N   UNL     1     -45.683  60.034 -55.812  1.00  0.00    -0.354 N 
HETATM   17  H   UNL     1     -46.075  59.172 -56.178  1.00  0.00     0.162 HD
HETATM   18  O   UNL     1     -44.616  61.145 -54.138  1.00  0.00    -0.271 OA
BRANCH  16  19
HETATM   19  C   UNL     1     -45.908  61.236 -56.591  1.00  0.00     0.181 C 
BRANCH  19  20
HETATM   20  C   UNL     1     -47.342  61.713 -56.533  1.00  0.00     0.051 A 
HETATM   21  N   UNL     1     -48.206  61.266 -57.483  1.00  0.00    -0.264 NA
HETATM   22  C   UNL     1     -49.479  61.718 -57.416  1.00  0.00     0.117 A 
HETATM   23  C   UNL     1     -49.935  62.603 -56.453  1.00  0.00     0.019 A 
HETATM   24  C   UNL     1     -49.036  63.062 -55.500  1.00  0.00     0.003 A 
HETATM   25  C   UNL     1     -47.718  62.616 -55.540  1.00  0.00     0.029 A 
ENDBRANCH  19  20
ENDBRANCH  16  19
ENDBRANCH   8  15
BRANCH  10  26
HETATM   26  C   UNL     1     -42.425  58.713 -55.591  1.00  0.00     0.032 A 
HETATM   27  C   UNL     1     -41.902  59.996 -55.769  1.00  0.00     0.020 A 
HETATM   28  C   UNL     1     -41.817  60.542 -57.048  1.00  0.00     0.038 A 
HETATM   29  C   UNL     1     -42.225  59.804 -58.160  1.00  0.00     0.068 A 
HETATM   30  C   UNL     1     -42.725  58.510 -57.981  1.00  0.00     0.038 A 
HETATM   31  C   UNL     1     -42.814  57.956 -56.698  1.00  0.00     0.020 A 
BRANCH  29  32
HETATM   32  O   UNL     1     -42.077  60.454 -59.353  1.00  0.00    -0.356 OA
HETATM   33  C   UNL     1     -41.601  61.793 -59.301  1.00  0.00     0.210 C 
ENDBRANCH  29  32
ENDBRANCH  10  26
BRANCH   1  34
HETATM   34  C   UNL     1     -40.338  53.565 -51.390  1.00  0.00     0.032 A 
HETATM   35  C   UNL     1     -40.261  53.434 -52.780  1.00  0.00     0.017 A 
HETATM   36  C   UNL     1     -40.054  52.177 -53.350  1.00  0.00     0.008 A 
HETATM   37  C   UNL     1     -39.882  51.046 -52.536  1.00  0.00    -0.059 A 
HETATM   38  C   UNL     1     -39.920  51.198 -51.143  1.00  0.00     0.008 A 
HETATM   39  C   UNL     1     -40.143  52.453 -50.570  1.00  0.00     0.017 A 
BRANCH  37  40
HETATM   40  C   UNL     1     -39.645  49.690 -53.154  1.00  0.00     0.034 C 
HETATM   41  C   UNL     1     -39.738  49.718 -54.673  1.00  0.00     0.010 C 
ENDBRANCH  37  40
ENDBRANCH   1  34
TORSDOF 7
ENDMDL
MODEL 5
REMARK VINA RESULT:      -7.1      3.834      7.847
REMARK  7 active torsions:
REMARK  status: ('A' for Active; 'I' for Inactive)
REMARK    1  A    between atoms: C_2  and  C_3 
REMARK    2  A    between atoms: C_6  and  C_7 
REMARK       I    between atoms: C_7  and  N_8 
REMARK    3  A    between atoms: C_14  and  C_15 
REMARK       I    between atoms: C_15  and  N_16 
REMARK    4  A    between atoms: N_16  and  C_17 
REMARK    5  A    between atoms: C_17  and  C_18 
REMARK       I    between atoms: N_25  and  C_26 
REMARK    6  A    between atoms: C_26  and  C_27 
REMARK    7  A    between atoms: C_30  and  O_31 
ROOT
HETATM    1  C   UNL     1     -43.988  63.246 -50.650  1.00  0.00     0.253 C 
HETATM    2  N   UNL     1     -44.130  62.506 -51.837  1.00  0.00    -0.348 N 
HETATM    3  C   UNL     1     -45.021  61.356 -51.946  1.00  0.00     0.131 C 
HETATM    4  C   UNL     1     -45.433  61.050 -53.371  1.00  0.00     0.081 C 
HETATM    5  C   UNL     1     -44.274  60.997 -54.376  1.00  0.00     0.142 C 
HETATM    6  O   UNL     1     -44.942  61.207 -55.657  1.00  0.00    -0.358 OA
HETATM    7  C   UNL     1     -44.662  60.111 -56.524  1.00  0.00     0.206 C 
HETATM    8  C   UNL     1     -44.229  58.968 -55.633  1.00  0.00     0.206 C 
HETATM    9  N   UNL     1     -43.632  59.677 -54.506  1.00  0.00    -0.300 N 
HETATM   10  C   UNL     1     -42.949  59.089 -53.453  1.00  0.00     0.257 C 
HETATM   11  O   UNL     1     -42.595  59.689 -52.444  1.00  0.00    -0.267 OA
HETATM   12  C   UNL     1     -43.335  62.196 -54.206  1.00  0.00     0.081 C 
HETATM   13  C   UNL     1     -43.005  62.576 -52.767  1.00  0.00     0.131 C 
HETATM   14  O   UNL     1     -43.231  64.208 -50.537  1.00  0.00    -0.267 OA
ENDROOT
BRANCH   8  15
HETATM   15  C   UNL     1     -43.438  58.016 -56.532  1.00  0.00     0.243 C 
HETATM   16  N   UNL     1     -43.886  56.727 -56.634  1.00  0.00    -0.354 N 
HETATM   17  H   UNL     1     -44.770  56.431 -56.232  1.00  0.00     0.162 HD
HETATM   18  O   UNL     1     -42.368  58.377 -57.026  1.00  0.00    -0.271 OA
BRANCH  16  19
HETATM   19  C   UNL     1     -43.180  55.757 -57.447  1.00  0.00     0.181 C 
BRANCH  19  20
HETATM   20  C   UNL     1     -43.834  55.531 -58.791  1.00  0.00     0.051 A 
HETATM   21  N   UNL     1     -44.061  56.612 -59.585  1.00  0.00    -0.264 NA
HETATM   22  C   UNL     1     -44.658  56.383 -60.776  1.00  0.00     0.117 A 
HETATM   23  C   UNL     1     -45.052  55.130 -61.217  1.00  0.00     0.019 A 
HETATM   24  C   UNL     1     -44.826  54.039 -60.388  1.00  0.00     0.003 A 
HETATM   25  C   UNL     1     -44.212  54.239 -59.155  1.00  0.00     0.029 A 
ENDBRANCH  19  20
ENDBRANCH  16  19
ENDBRANCH   8  15
BRANCH  10  26
HETATM   26  C   UNL     1     -42.529  57.677 -53.520  1.00  0.00     0.032 A 
HETATM   27  C   UNL     1     -43.470  56.705 -53.170  1.00  0.00     0.020 A 
HETATM   28  C   UNL     1     -43.142  55.354 -53.265  1.00  0.00     0.038 A 
HETATM   29  C   UNL     1     -41.887  54.962 -53.735  1.00  0.00     0.068 A 
HETATM   30  C   UNL     1     -40.957  55.937 -54.107  1.00  0.00     0.038 A 
HETATM   31  C   UNL     1     -41.279  57.297 -54.013  1.00  0.00     0.020 A 
BRANCH  29  32
HETATM   32  O   UNL     1     -41.703  53.609 -53.788  1.00  0.00    -0.356 OA
HETATM   33  C   UNL     1     -40.520  53.097 -53.189  1.00  0.00     0.210 C 
ENDBRANCH  29  32
ENDBRANCH  10  26
BRANCH   1  34
HETATM   34  C   UNL     1     -44.778  62.865 -49.455  1.00  0.00     0.032 A 
HETATM   35  C   UNL     1     -45.981  63.514 -49.160  1.00  0.00     0.017 A 
HETATM   36  C   UNL     1     -46.720  63.133 -48.039  1.00  0.00     0.008 A 
HETATM   37  C   UNL     1     -46.286  62.075 -47.226  1.00  0.00    -0.059 A 
HETATM   38  C   UNL     1     -45.099  61.404 -47.557  1.00  0.00     0.008 A 
HETATM   39  C   UNL     1     -44.348  61.794 -48.669  1.00  0.00     0.017 A 
BRANCH  37  40
HETATM   40  C   UNL     1     -47.094  61.656 -46.022  1.00  0.00     0.034 C 
HETATM   41  C   UNL     1     -47.217  60.144 -45.900  1.00  0.00     0.010 C 
ENDBRANCH  37  40
ENDBRANCH   1  34
TORSDOF 7
ENDMDL
MODEL 6
REMARK VINA RESULT:      -7.1      3.236      5.948
REMARK  7 active torsions:
REMARK  status: ('A' for Active; 'I' for Inactive)
REMARK    1  A    between atoms: C_2  and  C_3 
REMARK    2  A    between atoms: C_6  and  C_7 
REMARK       I    between atoms: C_7  and  N_8 
REMARK    3  A    between atoms: C_14  and  C_15 
REMARK       I    between atoms: C_15  and  N_16 
REMARK    4  A    between atoms: N_16  and  C_17 
REMARK    5  A    between atoms: C_17  and  C_18 
REMARK       I    between atoms: N_25  and  C_26 
REMARK    6  A    between atoms: C_26  and  C_27 
REMARK    7  A    between atoms: C_30  and  O_31 
ROOT
HETATM    1  C   UNL     1     -43.296  55.067 -54.151  1.00  0.00     0.253 C 
HETATM    2  N   UNL     1     -43.212  56.448 -54.396  1.00  0.00    -0.348 N 
HETATM    3  C   UNL     1     -42.390  57.342 -53.589  1.00  0.00     0.131 C 
HETATM    4  C   UNL     1     -42.014  58.622 -54.307  1.00  0.00     0.081 C 
HETATM    5  C   UNL     1     -43.187  59.346 -54.983  1.00  0.00     0.142 C 
HETATM    6  O   UNL     1     -42.525  60.186 -55.977  1.00  0.00    -0.358 OA
HETATM    7  C   UNL     1     -42.878  61.549 -55.759  1.00  0.00     0.206 C 
HETATM    8  C   UNL     1     -43.365  61.635 -54.329  1.00  0.00     0.206 C 
HETATM    9  N   UNL     1     -43.905  60.297 -54.117  1.00  0.00    -0.300 N 
HETATM   10  C   UNL     1     -44.607  59.880 -52.997  1.00  0.00     0.257 C 
HETATM   11  O   UNL     1     -44.914  58.714 -52.774  1.00  0.00    -0.267 OA
HETATM   12  C   UNL     1     -44.053  58.371 -55.787  1.00  0.00     0.081 C 
HETATM   13  C   UNL     1     -44.342  57.036 -55.111  1.00  0.00     0.131 C 
HETATM   14  O   UNL     1     -43.995  54.301 -54.812  1.00  0.00    -0.267 OA
ENDROOT
BRANCH   8  15
HETATM   15  C   UNL     1     -44.220  62.902 -54.257  1.00  0.00     0.243 C 
HETATM   16  N   UNL     1     -45.339  62.952 -55.042  1.00  0.00    -0.354 N 
HETATM   17  H   UNL     1     -45.667  62.145 -55.565  1.00  0.00     0.162 HD
HETATM   18  O   UNL     1     -43.826  63.879 -53.618  1.00  0.00    -0.271 OA
BRANCH  16  19
HETATM   19  C   UNL     1     -46.190  64.125 -55.049  1.00  0.00     0.181 C 
BRANCH  19  20
HETATM   20  C   UNL     1     -47.553  63.866 -54.449  1.00  0.00     0.051 A 
HETATM   21  N   UNL     1     -47.980  64.683 -53.448  1.00  0.00    -0.264 NA
HETATM   22  C   UNL     1     -49.197  64.421 -52.920  1.00  0.00     0.117 A 
HETATM   23  C   UNL     1     -50.011  63.378 -53.331  1.00  0.00     0.019 A 
HETATM   24  C   UNL     1     -49.553  62.544 -54.344  1.00  0.00     0.003 A 
HETATM   25  C   UNL     1     -48.306  62.786 -54.910  1.00  0.00     0.029 A 
ENDBRANCH  19  20
ENDBRANCH  16  19
ENDBRANCH   8  15
BRANCH  10  26
HETATM   26  C   UNL     1     -45.109  60.856 -52.012  1.00  0.00     0.032 A 
HETATM   27  C   UNL     1     -46.459  61.209 -52.081  1.00  0.00     0.020 A 
HETATM   28  C   UNL     1     -46.997  62.087 -51.143  1.00  0.00     0.038 A 
HETATM   29  C   UNL     1     -46.203  62.598 -50.115  1.00  0.00     0.068 A 
HETATM   30  C   UNL     1     -44.858  62.223 -50.034  1.00  0.00     0.038 A 
HETATM   31  C   UNL     1     -44.310  61.342 -50.975  1.00  0.00     0.020 A 
BRANCH  29  32
HETATM   32  O   UNL     1     -46.860  63.437 -49.260  1.00  0.00    -0.356 OA
HETATM   33  C   UNL     1     -47.247  62.900 -48.001  1.00  0.00     0.210 C 
ENDBRANCH  29  32
ENDBRANCH  10  26
BRANCH   1  34
HETATM   34  C   UNL     1     -42.514  54.476 -53.039  1.00  0.00     0.032 A 
HETATM   35  C   UNL     1     -41.238  53.952 -53.266  1.00  0.00     0.017 A 
HETATM   36  C   UNL     1     -40.509  53.412 -52.205  1.00  0.00     0.008 A 
HETATM   37  C   UNL     1     -41.030  53.427 -50.902  1.00  0.00    -0.059 A 
HETATM   38  C   UNL     1     -42.293  53.994 -50.681  1.00  0.00     0.008 A 
HETATM   39  C   UNL     1     -43.033  54.521 -51.743  1.00  0.00     0.017 A 
BRANCH  37  40
HETATM   40  C   UNL     1     -40.234  52.855 -49.755  1.00  0.00     0.034 C 
HETATM   41  C   UNL     1     -40.270  53.744 -48.520  1.00  0.00     0.010 C 
ENDBRANCH  37  40
ENDBRANCH   1  34
TORSDOF 7
ENDMDL
MODEL 7
REMARK VINA RESULT:      -6.8      3.470      4.669
REMARK  7 active torsions:
REMARK  status: ('A' for Active; 'I' for Inactive)
REMARK    1  A    between atoms: C_2  and  C_3 
REMARK    2  A    between atoms: C_6  and  C_7 
REMARK       I    between atoms: C_7  and  N_8 
REMARK    3  A    between atoms: C_14  and  C_15 
REMARK       I    between atoms: C_15  and  N_16 
REMARK    4  A    between atoms: N_16  and  C_17 
REMARK    5  A    between atoms: C_17  and  C_18 
REMARK       I    between atoms: N_25  and  C_26 
REMARK    6  A    between atoms: C_26  and  C_27 
REMARK    7  A    between atoms: C_30  and  O_31 
ROOT
HETATM    1  C   UNL     1     -41.017  57.337 -51.496  1.00  0.00     0.253 C 
HETATM    2  N   UNL     1     -42.218  58.064 -51.442  1.00  0.00    -0.348 N 
HETATM    3  C   UNL     1     -43.450  57.598 -52.071  1.00  0.00     0.131 C 
HETATM    4  C   UNL     1     -44.698  58.207 -51.467  1.00  0.00     0.081 C 
HETATM    5  C   UNL     1     -44.656  59.733 -51.310  1.00  0.00     0.142 C 
HETATM    6  O   UNL     1     -45.672  59.987 -50.292  1.00  0.00    -0.358 OA
HETATM    7  C   UNL     1     -46.647  60.889 -50.809  1.00  0.00     0.206 C 
HETATM    8  C   UNL     1     -46.528  60.822 -52.316  1.00  0.00     0.206 C 
HETATM    9  N   UNL     1     -45.119  60.486 -52.489  1.00  0.00    -0.300 N 
HETATM   10  C   UNL     1     -44.445  60.438 -53.699  1.00  0.00     0.257 C 
HETATM   11  O   UNL     1     -43.306  60.003 -53.834  1.00  0.00    -0.267 OA
HETATM   12  C   UNL     1     -43.333  60.192 -50.687  1.00  0.00     0.081 C 
HETATM   13  C   UNL     1     -42.081  59.501 -51.216  1.00  0.00     0.131 C 
HETATM   14  O   UNL     1     -39.967  57.722 -50.985  1.00  0.00    -0.267 OA
ENDROOT
BRANCH   8  15
HETATM   15  C   UNL     1     -47.148  62.119 -52.840  1.00  0.00     0.243 C 
HETATM   16  N   UNL     1     -48.263  62.012 -53.625  1.00  0.00    -0.354 N 
HETATM   17  H   UNL     1     -48.741  61.126 -53.765  1.00  0.00     0.162 HD
HETATM   18  O   UNL     1     -46.572  63.194 -52.665  1.00  0.00    -0.271 OA
BRANCH  16  19
HETATM   19  C   UNL     1     -48.897  63.191 -54.180  1.00  0.00     0.181 C 
BRANCH  19  20
HETATM   20  C   UNL     1     -50.392  63.215 -53.956  1.00  0.00     0.051 A 
HETATM   21  N   UNL     1     -51.199  63.409 -55.033  1.00  0.00    -0.264 NA
HETATM   22  C   UNL     1     -52.531  63.439 -54.803  1.00  0.00     0.117 A 
HETATM   23  C   UNL     1     -53.104  63.294 -53.549  1.00  0.00     0.019 A 
HETATM   24  C   UNL     1     -52.264  63.111 -52.458  1.00  0.00     0.003 A 
HETATM   25  C   UNL     1     -50.887  63.074 -52.660  1.00  0.00     0.029 A 
ENDBRANCH  19  20
ENDBRANCH  16  19
ENDBRANCH   8  15
BRANCH  10  26
HETATM   26  C   UNL     1     -45.050  60.993 -54.924  1.00  0.00     0.032 A 
HETATM   27  C   UNL     1     -44.701  62.297 -55.284  1.00  0.00     0.020 A 
HETATM   28  C   UNL     1     -45.202  62.852 -56.459  1.00  0.00     0.038 A 
HETATM   29  C   UNL     1     -46.031  62.104 -57.297  1.00  0.00     0.068 A 
HETATM   30  C   UNL     1     -46.359  60.790 -56.946  1.00  0.00     0.038 A 
HETATM   31  C   UNL     1     -45.859  60.227 -55.766  1.00  0.00     0.020 A 
BRANCH  29  32
HETATM   32  O   UNL     1     -46.442  62.766 -58.420  1.00  0.00    -0.356 OA
HETATM   33  C   UNL     1     -47.312  62.063 -59.298  1.00  0.00     0.210 C 
ENDBRANCH  29  32
ENDBRANCH  10  26
BRANCH   1  34
HETATM   34  C   UNL     1     -40.985  56.035 -52.205  1.00  0.00     0.032 A 
HETATM   35  C   UNL     1     -40.831  55.985 -53.594  1.00  0.00     0.017 A 
HETATM   36  C   UNL     1     -40.788  54.751 -54.244  1.00  0.00     0.008 A 
HETATM   37  C   UNL     1     -40.856  53.556 -53.511  1.00  0.00    -0.059 A 
HETATM   38  C   UNL     1     -40.968  53.620 -52.114  1.00  0.00     0.008 A 
HETATM   39  C   UNL     1     -41.028  54.854 -51.461  1.00  0.00     0.017 A 
BRANCH  37  40
HETATM   40  C   UNL     1     -40.796  52.223 -54.215  1.00  0.00     0.034 C 
HETATM   41  C   UNL     1     -39.778  51.280 -53.591  1.00  0.00     0.010 C 
ENDBRANCH  37  40
ENDBRANCH   1  34
TORSDOF 7
ENDMDL
MODEL 8
REMARK VINA RESULT:      -6.8      1.698      2.457
REMARK  7 active torsions:
REMARK  status: ('A' for Active; 'I' for Inactive)
REMARK    1  A    between atoms: C_2  and  C_3 
REMARK    2  A    between atoms: C_6  and  C_7 
REMARK       I    between atoms: C_7  and  N_8 
REMARK    3  A    between atoms: C_14  and  C_15 
REMARK       I    between atoms: C_15  and  N_16 
REMARK    4  A    between atoms: N_16  and  C_17 
REMARK    5  A    between atoms: C_17  and  C_18 
REMARK       I    between atoms: N_25  and  C_26 
REMARK    6  A    between atoms: C_26  and  C_27 
REMARK    7  A    between atoms: C_30  and  O_31 
ROOT
HETATM    1  C   UNL     1     -40.483  55.327 -50.588  1.00  0.00     0.253 C 
HETATM    2  N   UNL     1     -41.546  55.937 -51.276  1.00  0.00    -0.348 N 
HETATM    3  C   UNL     1     -42.477  55.187 -52.111  1.00  0.00     0.131 C 
HETATM    4  C   UNL     1     -43.804  55.889 -52.309  1.00  0.00     0.081 C 
HETATM    5  C   UNL     1     -43.695  57.363 -52.724  1.00  0.00     0.142 C 
HETATM    6  O   UNL     1     -44.998  57.907 -52.351  1.00  0.00    -0.358 OA
HETATM    7  C   UNL     1     -45.618  58.481 -53.497  1.00  0.00     0.206 C 
HETATM    8  C   UNL     1     -44.937  57.866 -54.700  1.00  0.00     0.206 C 
HETATM    9  N   UNL     1     -43.604  57.589 -54.177  1.00  0.00    -0.300 N 
HETATM   10  C   UNL     1     -42.523  57.139 -54.920  1.00  0.00     0.257 C 
HETATM   11  O   UNL     1     -41.462  56.766 -54.433  1.00  0.00    -0.267 OA
HETATM   12  C   UNL     1     -42.678  58.111 -51.855  1.00  0.00     0.081 C 
HETATM   13  C   UNL     1     -41.384  57.361 -51.562  1.00  0.00     0.131 C 
HETATM   14  O   UNL     1     -39.681  55.947 -49.892  1.00  0.00    -0.267 OA
ENDROOT
BRANCH   8  15
HETATM   15  C   UNL     1     -45.194  58.828 -55.861  1.00  0.00     0.243 C 
HETATM   16  N   UNL     1     -45.096  60.168 -55.603  1.00  0.00    -0.354 N 
HETATM   17  H   UNL     1     -44.751  60.522 -54.715  1.00  0.00     0.162 HD
HETATM   18  O   UNL     1     -45.607  58.399 -56.940  1.00  0.00    -0.271 OA
BRANCH  16  19
HETATM   19  C   UNL     1     -45.348  61.146 -56.643  1.00  0.00     0.181 C 
BRANCH  19  20
HETATM   20  C   UNL     1     -44.211  62.128 -56.813  1.00  0.00     0.051 A 
HETATM   21  N   UNL     1     -43.295  61.888 -57.790  1.00  0.00    -0.264 NA
HETATM   22  C   UNL     1     -42.283  62.775 -57.912  1.00  0.00     0.117 A 
HETATM   23  C   UNL     1     -42.127  63.889 -57.103  1.00  0.00     0.019 A 
HETATM   24  C   UNL     1     -43.063  64.111 -56.100  1.00  0.00     0.003 A 
HETATM   25  C   UNL     1     -44.119  63.218 -55.948  1.00  0.00     0.029 A 
ENDBRANCH  19  20
ENDBRANCH  16  19
ENDBRANCH   8  15
BRANCH  10  26
HETATM   26  C   UNL     1     -42.562  57.154 -56.395  1.00  0.00     0.032 A 
HETATM   27  C   UNL     1     -42.063  58.287 -57.043  1.00  0.00     0.020 A 
HETATM   28  C   UNL     1     -42.027  58.333 -58.435  1.00  0.00     0.038 A 
HETATM   29  C   UNL     1     -42.462  57.242 -59.190  1.00  0.00     0.068 A 
HETATM   30  C   UNL     1     -42.939  56.101 -58.537  1.00  0.00     0.038 A 
HETATM   31  C   UNL     1     -42.978  56.048 -57.138  1.00  0.00     0.020 A 
BRANCH  29  32
HETATM   32  O   UNL     1     -42.362  57.417 -60.541  1.00  0.00    -0.356 OA
HETATM   33  C   UNL     1     -42.027  58.721 -60.999  1.00  0.00     0.210 C 
ENDBRANCH  29  32
ENDBRANCH  10  26
BRANCH   1  34
HETATM   34  C   UNL     1     -40.293  53.861 -50.694  1.00  0.00     0.032 A 
HETATM   35  C   UNL     1     -40.565  53.028 -49.604  1.00  0.00     0.017 A 
HETATM   36  C   UNL     1     -40.395  51.648 -49.725  1.00  0.00     0.008 A 
HETATM   37  C   UNL     1     -39.991  51.084 -50.945  1.00  0.00    -0.059 A 
HETATM   38  C   UNL     1     -39.763  51.927 -52.042  1.00  0.00     0.008 A 
HETATM   39  C   UNL     1     -39.917  53.311 -51.920  1.00  0.00     0.017 A 
BRANCH  37  40
HETATM   40  C   UNL     1     -39.821  49.590 -51.076  1.00  0.00     0.034 C 
HETATM   41  C   UNL     1     -39.495  49.164 -52.501  1.00  0.00     0.010 C 
ENDBRANCH  37  40
ENDBRANCH   1  34
TORSDOF 7
ENDMDL
MODEL 9
REMARK VINA RESULT:      -6.8     17.688     21.201
REMARK  7 active torsions:
REMARK  status: ('A' for Active; 'I' for Inactive)
REMARK    1  A    between atoms: C_2  and  C_3 
REMARK    2  A    between atoms: C_6  and  C_7 
REMARK       I    between atoms: C_7  and  N_8 
REMARK    3  A    between atoms: C_14  and  C_15 
REMARK       I    between atoms: C_15  and  N_16 
REMARK    4  A    between atoms: N_16  and  C_17 
REMARK    5  A    between atoms: C_17  and  C_18 
REMARK       I    between atoms: N_25  and  C_26 
REMARK    6  A    between atoms: C_26  and  C_27 
REMARK    7  A    between atoms: C_30  and  O_31 
ROOT
HETATM    1  C   UNL     1     -36.847  41.163 -58.949  1.00  0.00     0.253 C 
HETATM    2  N   UNL     1     -35.873  40.948 -57.959  1.00  0.00    -0.348 N 
HETATM    3  C   UNL     1     -35.609  39.632 -57.387  1.00  0.00     0.131 C 
HETATM    4  C   UNL     1     -34.228  39.510 -56.777  1.00  0.00     0.081 C 
HETATM    5  C   UNL     1     -33.841  40.654 -55.830  1.00  0.00     0.142 C 
HETATM    6  O   UNL     1     -32.383  40.582 -55.807  1.00  0.00    -0.358 OA
HETATM    7  C   UNL     1     -31.938  40.415 -54.463  1.00  0.00     0.206 C 
HETATM    8  C   UNL     1     -33.122  39.883 -53.688  1.00  0.00     0.206 C 
HETATM    9  N   UNL     1     -34.243  40.454 -54.427  1.00  0.00    -0.300 N 
HETATM   10  C   UNL     1     -35.575  40.387 -54.050  1.00  0.00     0.257 C 
HETATM   11  O   UNL     1     -36.509  40.737 -54.763  1.00  0.00    -0.267 OA
HETATM   12  C   UNL     1     -34.170  42.019 -56.444  1.00  0.00     0.081 C 
HETATM   13  C   UNL     1     -35.515  42.115 -57.155  1.00  0.00     0.131 C 
HETATM   14  O   UNL     1     -37.092  42.268 -59.431  1.00  0.00    -0.267 OA
ENDROOT
BRANCH   8  15
HETATM   15  C   UNL     1     -32.838  40.207 -52.220  1.00  0.00     0.243 C 
HETATM   16  N   UNL     1     -32.475  39.170 -51.405  1.00  0.00    -0.354 N 
HETATM   17  H   UNL     1     -32.281  38.241 -51.768  1.00  0.00     0.162 HD
HETATM   18  O   UNL     1     -33.067  41.335 -51.780  1.00  0.00    -0.271 OA
BRANCH  16  19
HETATM   19  C   UNL     1     -32.211  39.389 -49.997  1.00  0.00     0.181 C 
BRANCH  19  20
HETATM   20  C   UNL     1     -32.981  38.446 -49.102  1.00  0.00     0.051 A 
HETATM   21  N   UNL     1     -33.760  37.497 -49.688  1.00  0.00    -0.264 NA
HETATM   22  C   UNL     1     -34.448  36.674 -48.864  1.00  0.00     0.117 A 
HETATM   23  C   UNL     1     -34.409  36.753 -47.482  1.00  0.00     0.019 A 
HETATM   24  C   UNL     1     -33.620  37.737 -46.900  1.00  0.00     0.003 A 
HETATM   25  C   UNL     1     -32.898  38.600 -47.718  1.00  0.00     0.029 A 
ENDBRANCH  19  20
ENDBRANCH  16  19
ENDBRANCH   8  15
BRANCH  10  26
HETATM   26  C   UNL     1     -35.956  39.945 -52.696  1.00  0.00     0.032 A 
HETATM   27  C   UNL     1     -35.888  40.886 -51.665  1.00  0.00     0.020 A 
HETATM   28  C   UNL     1     -36.286  40.537 -50.377  1.00  0.00     0.038 A 
HETATM   29  C   UNL     1     -36.779  39.258 -50.111  1.00  0.00     0.068 A 
HETATM   30  C   UNL     1     -36.869  38.326 -51.150  1.00  0.00     0.038 A 
HETATM   31  C   UNL     1     -36.470  38.670 -52.447  1.00  0.00     0.020 A 
BRANCH  29  32
HETATM   32  O   UNL     1     -37.143  39.054 -48.810  1.00  0.00    -0.356 OA
HETATM   33  C   UNL     1     -37.791  37.825 -48.509  1.00  0.00     0.210 C 
ENDBRANCH  29  32
ENDBRANCH  10  26
BRANCH   1  34
HETATM   34  C   UNL     1     -37.639  40.016 -59.453  1.00  0.00     0.032 A 
HETATM   35  C   UNL     1     -38.500  39.317 -58.601  1.00  0.00     0.017 A 
HETATM   36  C   UNL     1     -39.250  38.249 -59.095  1.00  0.00     0.008 A 
HETATM   37  C   UNL     1     -39.179  37.895 -60.451  1.00  0.00    -0.059 A 
HETATM   38  C   UNL     1     -38.343  38.631 -61.304  1.00  0.00     0.008 A 
HETATM   39  C   UNL     1     -37.578  39.691 -60.809  1.00  0.00     0.017 A 
BRANCH  37  40
HETATM   40  C   UNL     1     -40.001  36.748 -60.985  1.00  0.00     0.034 C 
HETATM   41  C   UNL     1     -41.434  36.771 -60.475  1.00  0.00     0.010 C 
ENDBRANCH  37  40
ENDBRANCH   1  34
TORSDOF 7
ENDMDL
MODEL 10
REMARK VINA RESULT:      -6.7      1.748      2.594
REMARK  7 active torsions:
REMARK  status: ('A' for Active; 'I' for Inactive)
REMARK    1  A    between atoms: C_2  and  C_3 
REMARK    2  A    between atoms: C_6  and  C_7 
REMARK       I    between atoms: C_7  and  N_8 
REMARK    3  A    between atoms: C_14  and  C_15 
REMARK       I    between atoms: C_15  and  N_16 
REMARK    4  A    between atoms: N_16  and  C_17 
REMARK    5  A    between atoms: C_17  and  C_18 
REMARK       I    between atoms: N_25  and  C_26 
REMARK    6  A    between atoms: C_26  and  C_27 
REMARK    7  A    between atoms: C_30  and  O_31 
ROOT
HETATM    1  C   UNL     1     -41.194  56.055 -52.115  1.00  0.00     0.253 C 
HETATM    2  N   UNL     1     -42.142  56.864 -52.764  1.00  0.00    -0.348 N 
HETATM    3  C   UNL     1     -42.833  56.446 -53.980  1.00  0.00     0.131 C 
HETATM    4  C   UNL     1     -44.143  57.171 -54.204  1.00  0.00     0.081 C 
HETATM    5  C   UNL     1     -44.065  58.697 -54.064  1.00  0.00     0.142 C 
HETATM    6  O   UNL     1     -45.452  59.075 -53.812  1.00  0.00    -0.358 OA
HETATM    7  C   UNL     1     -45.876  60.010 -54.802  1.00  0.00     0.206 C 
HETATM    8  C   UNL     1     -44.928  59.849 -55.969  1.00  0.00     0.206 C 
HETATM    9  N   UNL     1     -43.706  59.411 -55.302  1.00  0.00    -0.300 N 
HETATM   10  C   UNL     1     -42.471  59.248 -55.909  1.00  0.00     0.257 C 
HETATM   11  O   UNL     1     -41.501  58.732 -55.364  1.00  0.00    -0.267 OA
HETATM   12  C   UNL     1     -43.298  59.101 -52.801  1.00  0.00     0.081 C 
HETATM   13  C   UNL     1     -42.034  58.298 -52.512  1.00  0.00     0.131 C 
HETATM   14  O   UNL     1     -40.592  56.398 -51.099  1.00  0.00    -0.267 OA
ENDROOT
BRANCH   8  15
HETATM   15  C   UNL     1     -45.023  61.153 -56.764  1.00  0.00     0.243 C 
HETATM   16  N   UNL     1     -45.359  61.060 -58.087  1.00  0.00    -0.354 N 
HETATM   17  H   UNL     1     -45.653  60.184 -58.509  1.00  0.00     0.162 HD
HETATM   18  O   UNL     1     -44.673  62.217 -56.251  1.00  0.00    -0.271 OA
BRANCH  16  19
HETATM   19  C   UNL     1     -45.448  62.246 -58.916  1.00  0.00     0.181 C 
BRANCH  19  20
HETATM   20  C   UNL     1     -45.733  61.929 -60.366  1.00  0.00     0.051 A 
HETATM   21  N   UNL     1     -44.757  61.322 -61.094  1.00  0.00    -0.264 NA
HETATM   22  C   UNL     1     -45.034  61.061 -62.392  1.00  0.00     0.117 A 
HETATM   23  C   UNL     1     -46.233  61.383 -63.008  1.00  0.00     0.019 A 
HETATM   24  C   UNL     1     -47.212  62.016 -62.253  1.00  0.00     0.003 A 
HETATM   25  C   UNL     1     -46.960  62.298 -60.914  1.00  0.00     0.029 A 
ENDBRANCH  19  20
ENDBRANCH  16  19
ENDBRANCH   8  15
BRANCH  10  26
HETATM   26  C   UNL     1     -42.220  59.772 -57.265  1.00  0.00     0.032 A 
HETATM   27  C   UNL     1     -41.671  61.052 -57.372  1.00  0.00     0.020 A 
HETATM   28  C   UNL     1     -41.365  61.575 -58.626  1.00  0.00     0.038 A 
HETATM   29  C   UNL     1     -41.577  60.817 -59.779  1.00  0.00     0.068 A 
HETATM   30  C   UNL     1     -42.104  59.527 -59.667  1.00  0.00     0.038 A 
HETATM   31  C   UNL     1     -42.415  58.996 -58.409  1.00  0.00     0.020 A 
BRANCH  29  32
HETATM   32  O   UNL     1     -41.224  61.446 -60.940  1.00  0.00    -0.356 OA
HETATM   33  C   UNL     1     -40.954  62.840 -60.860  1.00  0.00     0.210 C 
ENDBRANCH  29  32
ENDBRANCH  10  26
BRANCH   1  34
HETATM   34  C   UNL     1     -40.877  54.716 -52.667  1.00  0.00     0.032 A 
HETATM   35  C   UNL     1     -40.919  53.582 -51.850  1.00  0.00     0.017 A 
HETATM   36  C   UNL     1     -40.633  52.327 -52.389  1.00  0.00     0.008 A 
HETATM   37  C   UNL     1     -40.343  52.187 -53.754  1.00  0.00    -0.059 A 
HETATM   38  C   UNL     1     -40.345  53.327 -54.571  1.00  0.00     0.008 A 
HETATM   39  C   UNL     1     -40.616  54.588 -54.032  1.00  0.00     0.017 A 
BRANCH  37  40
HETATM   40  C   UNL     1     -40.047  50.826 -54.337  1.00  0.00     0.034 C 
HETATM   41  C   UNL     1     -39.721  49.793 -53.267  1.00  0.00     0.010 C 
ENDBRANCH  37  40
ENDBRANCH   1  34
TORSDOF 7
ENDMDL
