MODEL 1
REMARK VINA RESULT:      -9.0      0.000      0.000
REMARK  5 active torsions:
REMARK  status: ('A' for Active; 'I' for Inactive)
REMARK    1  A    between atoms: C_7  and  C_8 
REMARK    2  A    between atoms: N_9  and  N_10 
REMARK       I    between atoms: N_10  and  C_11 
REMARK    3  A    between atoms: C_11  and  C_12 
REMARK    4  A    between atoms: C_12  and  O_13 
REMARK    5  A    between atoms: O_13  and  C_14 
ROOT
HETATM    1  N   UNL     1     -41.473  57.406 -54.036  1.00  0.00    -0.246 N 
HETATM    2  C   UNL     1     -41.153  58.755 -53.930  1.00  0.00     0.261 C 
HETATM    3  O   UNL     1     -40.183  59.221 -53.333  1.00  0.00    -0.269 OA
HETATM    4  H   UNL     1     -42.430  57.188 -54.308  1.00  0.00     0.192 HD
ENDROOT
BRANCH   1   5
HETATM    5  N   UNL     1     -40.822  56.383 -53.381  1.00  0.00    -0.184 NA
HETATM    6  C   UNL     1     -41.529  55.363 -53.003  1.00  0.00     0.153 C 
BRANCH   6   7
HETATM    7  C   UNL     1     -40.909  54.217 -52.361  1.00  0.00     0.018 A 
HETATM    8  C   UNL     1     -40.548  54.200 -51.017  1.00  0.00     0.018 A 
HETATM    9  C   UNL     1     -40.697  55.233 -49.958  1.00  0.00     0.069 C 
HETATM   10  N   UNL     1     -39.991  52.976 -50.748  1.00  0.00    -0.358 N 
HETATM   11  H   UNL     1     -39.641  52.680 -49.847  1.00  0.00     0.166 HD
HETATM   12  C   UNL     1     -39.978  52.191 -51.875  1.00  0.00     0.043 A 
HETATM   13  C   UNL     1     -40.552  52.939 -52.905  1.00  0.00     0.004 A 
HETATM   14  C   UNL     1     -39.504  50.885 -52.050  1.00  0.00     0.030 A 
HETATM   15  C   UNL     1     -40.654  52.337 -54.178  1.00  0.00     0.014 A 
HETATM   16  C   UNL     1     -40.186  51.032 -54.373  1.00  0.00     0.001 A 
HETATM   17  C   UNL     1     -39.618  50.319 -53.321  1.00  0.00     0.002 A 
ENDBRANCH   6   7
ENDBRANCH   1   5
BRANCH   2  18
HETATM   18  C   UNL     1     -42.100  59.670 -54.703  1.00  0.00     0.280 C 
BRANCH  18  19
HETATM   19  O   UNL     1     -43.085  58.946 -55.449  1.00  0.00    -0.341 OA
BRANCH  19  20
HETATM   20  C   UNL     1     -42.879  59.164 -56.794  1.00  0.00     0.080 A 
HETATM   21  C   UNL     1     -42.861  58.098 -57.722  1.00  0.00     0.009 A 
HETATM   22  C   UNL     1     -42.550  58.376 -59.080  1.00  0.00    -0.006 A 
HETATM   23  C   UNL     1     -43.138  56.766 -57.340  1.00  0.00     0.015 A 
HETATM   24  C   UNL     1     -42.491  57.285 -59.982  1.00  0.00     0.014 A 
HETATM   25  C   UNL     1     -42.317  59.727 -59.451  1.00  0.00     0.022 A 
HETATM   26  C   UNL     1     -42.747  55.974 -59.573  1.00  0.00     0.001 A 
HETATM   27  C   UNL     1     -43.079  55.715 -58.253  1.00  0.00     0.001 A 
HETATM   28 BR   UNL     1     -41.882  60.237 -61.237  1.00  0.00    -0.050 Br
HETATM   29  C   UNL     1     -42.398  60.767 -58.519  1.00  0.00     0.023 A 
HETATM   30  C   UNL     1     -42.684  60.487 -57.190  1.00  0.00     0.039 A 
ENDBRANCH  19  20
ENDBRANCH  18  19
ENDBRANCH   2  18
TORSDOF 5
ENDMDL
MODEL 2
REMARK VINA RESULT:      -8.8      2.179      2.529
REMARK  5 active torsions:
REMARK  status: ('A' for Active; 'I' for Inactive)
REMARK    1  A    between atoms: C_7  and  C_8 
REMARK    2  A    between atoms: N_9  and  N_10 
REMARK       I    between atoms: N_10  and  C_11 
REMARK    3  A    between atoms: C_11  and  C_12 
REMARK    4  A    between atoms: C_12  and  O_13 
REMARK    5  A    between atoms: O_13  and  C_14 
ROOT
HETATM    1  N   UNL     1     -41.067  56.166 -54.780  1.00  0.00    -0.246 N 
HETATM    2  C   UNL     1     -42.152  56.186 -55.650  1.00  0.00     0.261 C 
HETATM    3  O   UNL     1     -42.866  55.225 -55.933  1.00  0.00    -0.269 OA
HETATM    4  H   UNL     1     -40.411  56.942 -54.856  1.00  0.00     0.192 HD
ENDROOT
BRANCH   1   5
HETATM    5  N   UNL     1     -40.543  55.034 -54.193  1.00  0.00    -0.184 NA
HETATM    6  C   UNL     1     -40.940  54.739 -52.994  1.00  0.00     0.153 C 
BRANCH   6   7
HETATM    7  C   UNL     1     -40.482  53.531 -52.329  1.00  0.00     0.018 A 
HETATM    8  C   UNL     1     -40.196  53.474 -50.968  1.00  0.00     0.018 A 
HETATM    9  C   UNL     1     -40.288  54.516 -49.911  1.00  0.00     0.069 C 
HETATM   10  N   UNL     1     -39.790  52.197 -50.678  1.00  0.00    -0.358 N 
HETATM   11  H   UNL     1     -39.522  51.864 -49.762  1.00  0.00     0.166 HD
HETATM   12  C   UNL     1     -39.804  51.416 -51.808  1.00  0.00     0.043 A 
HETATM   13  C   UNL     1     -40.239  52.222 -52.862  1.00  0.00     0.004 A 
HETATM   14  C   UNL     1     -39.466  50.066 -51.967  1.00  0.00     0.030 A 
HETATM   15  C   UNL     1     -40.339  51.637 -54.142  1.00  0.00     0.014 A 
HETATM   16  C   UNL     1     -40.006  50.288 -54.321  1.00  0.00     0.001 A 
HETATM   17  C   UNL     1     -39.575  49.516 -53.245  1.00  0.00     0.002 A 
ENDBRANCH   6   7
ENDBRANCH   1   5
BRANCH   2  18
HETATM   18  C   UNL     1     -42.458  57.572 -56.213  1.00  0.00     0.280 C 
BRANCH  18  19
HETATM   19  O   UNL     1     -42.281  57.646 -57.632  1.00  0.00    -0.341 OA
BRANCH  19  20
HETATM   20  C   UNL     1     -43.500  57.896 -58.224  1.00  0.00     0.080 A 
HETATM   21  C   UNL     1     -44.150  56.925 -59.019  1.00  0.00     0.009 A 
HETATM   22  C   UNL     1     -45.358  57.276 -59.679  1.00  0.00    -0.006 A 
HETATM   23  C   UNL     1     -43.633  55.620 -59.181  1.00  0.00     0.015 A 
HETATM   24  C   UNL     1     -45.966  56.301 -60.508  1.00  0.00     0.014 A 
HETATM   25  C   UNL     1     -45.883  58.579 -59.469  1.00  0.00     0.022 A 
HETATM   26  C   UNL     1     -45.422  55.024 -60.669  1.00  0.00     0.001 A 
HETATM   27  C   UNL     1     -44.260  54.681 -59.998  1.00  0.00     0.001 A 
HETATM   28 BR   UNL     1     -47.491  59.181 -60.300  1.00  0.00    -0.050 Br
HETATM   29  C   UNL     1     -45.245  59.499 -58.630  1.00  0.00     0.023 A 
HETATM   30  C   UNL     1     -44.055  59.156 -58.002  1.00  0.00     0.039 A 
ENDBRANCH  19  20
ENDBRANCH  18  19
ENDBRANCH   2  18
TORSDOF 5
ENDMDL
MODEL 3
REMARK VINA RESULT:      -8.8      3.652      8.145
REMARK  5 active torsions:
REMARK  status: ('A' for Active; 'I' for Inactive)
REMARK    1  A    between atoms: C_7  and  C_8 
REMARK    2  A    between atoms: N_9  and  N_10 
REMARK       I    between atoms: N_10  and  C_11 
REMARK    3  A    between atoms: C_11  and  C_12 
REMARK    4  A    between atoms: C_12  and  O_13 
REMARK    5  A    between atoms: O_13  and  C_14 
ROOT
HETATM    1  N   UNL     1     -43.622  55.884 -53.107  1.00  0.00    -0.246 N 
HETATM    2  C   UNL     1     -43.617  56.541 -51.881  1.00  0.00     0.261 C 
HETATM    3  O   UNL     1     -44.231  57.575 -51.615  1.00  0.00    -0.269 OA
HETATM    4  H   UNL     1     -42.867  55.220 -53.268  1.00  0.00     0.192 HD
ENDROOT
BRANCH   1   5
HETATM    5  N   UNL     1     -44.217  56.357 -54.257  1.00  0.00    -0.184 NA
HETATM    6  C   UNL     1     -43.483  57.040 -55.078  1.00  0.00     0.153 C 
BRANCH   6   7
HETATM    7  C   UNL     1     -44.017  57.522 -56.341  1.00  0.00     0.018 A 
HETATM    8  C   UNL     1     -44.787  58.676 -56.451  1.00  0.00     0.018 A 
HETATM    9  C   UNL     1     -45.221  59.657 -55.421  1.00  0.00     0.069 C 
HETATM   10  N   UNL     1     -45.125  58.830 -57.771  1.00  0.00    -0.358 N 
HETATM   11  H   UNL     1     -45.679  59.587 -58.146  1.00  0.00     0.166 HD
HETATM   12  C   UNL     1     -44.597  57.813 -58.528  1.00  0.00     0.043 A 
HETATM   13  C   UNL     1     -43.891  56.977 -57.661  1.00  0.00     0.004 A 
HETATM   14  C   UNL     1     -44.694  57.580 -59.905  1.00  0.00     0.030 A 
HETATM   15  C   UNL     1     -43.248  55.847 -58.212  1.00  0.00     0.014 A 
HETATM   16  C   UNL     1     -43.334  55.598 -59.588  1.00  0.00     0.001 A 
HETATM   17  C   UNL     1     -44.049  56.455 -60.420  1.00  0.00     0.002 A 
ENDBRANCH   6   7
ENDBRANCH   1   5
BRANCH   2  18
HETATM   18  C   UNL     1     -42.807  55.821 -50.806  1.00  0.00     0.280 C 
BRANCH  18  19
HETATM   19  O   UNL     1     -41.399  55.839 -51.066  1.00  0.00    -0.341 OA
BRANCH  19  20
HETATM   20  C   UNL     1     -40.933  54.542 -51.104  1.00  0.00     0.080 A 
HETATM   21  C   UNL     1     -40.594  53.913 -52.323  1.00  0.00     0.009 A 
HETATM   22  C   UNL     1     -40.209  52.546 -52.305  1.00  0.00    -0.006 A 
HETATM   23  C   UNL     1     -40.629  54.601 -53.557  1.00  0.00     0.015 A 
HETATM   24  C   UNL     1     -39.919  51.924 -53.545  1.00  0.00     0.014 A 
HETATM   25  C   UNL     1     -40.140  51.886 -51.049  1.00  0.00     0.022 A 
HETATM   26  C   UNL     1     -39.984  52.620 -54.754  1.00  0.00     0.001 A 
HETATM   27  C   UNL     1     -40.330  53.962 -54.759  1.00  0.00     0.001 A 
HETATM   28 BR   UNL     1     -39.647  50.050 -50.884  1.00  0.00    -0.050 Br
HETATM   29  C   UNL     1     -40.428  52.553 -49.854  1.00  0.00     0.023 A 
HETATM   30  C   UNL     1     -40.820  53.884 -49.880  1.00  0.00     0.039 A 
ENDBRANCH  19  20
ENDBRANCH  18  19
ENDBRANCH   2  18
TORSDOF 5
ENDMDL
MODEL 4
REMARK VINA RESULT:      -8.6      3.165      4.930
REMARK  5 active torsions:
REMARK  status: ('A' for Active; 'I' for Inactive)
REMARK    1  A    between atoms: C_7  and  C_8 
REMARK    2  A    between atoms: N_9  and  N_10 
REMARK       I    between atoms: N_10  and  C_11 
REMARK    3  A    between atoms: C_11  and  C_12 
REMARK    4  A    between atoms: C_12  and  O_13 
REMARK    5  A    between atoms: O_13  and  C_14 
ROOT
HETATM    1  N   UNL     1     -42.642  56.247 -53.762  1.00  0.00    -0.246 N 
HETATM    2  C   UNL     1     -42.370  56.746 -55.032  1.00  0.00     0.261 C 
HETATM    3  O   UNL     1     -41.823  56.129 -55.946  1.00  0.00    -0.269 OA
HETATM    4  H   UNL     1     -42.833  56.936 -53.036  1.00  0.00     0.192 HD
ENDROOT
BRANCH   1   5
HETATM    5  N   UNL     1     -42.229  55.021 -53.287  1.00  0.00    -0.184 NA
HETATM    6  C   UNL     1     -41.021  54.930 -52.824  1.00  0.00     0.153 C 
BRANCH   6   7
HETATM    7  C   UNL     1     -40.529  53.690 -52.248  1.00  0.00     0.018 A 
HETATM    8  C   UNL     1     -40.178  53.559 -50.908  1.00  0.00     0.018 A 
HETATM    9  C   UNL     1     -40.221  54.541 -49.792  1.00  0.00     0.069 C 
HETATM   10  N   UNL     1     -39.754  52.270 -50.709  1.00  0.00    -0.358 N 
HETATM   11  H   UNL     1     -39.442  51.889 -49.827  1.00  0.00     0.166 HD
HETATM   12  C   UNL     1     -39.821  51.553 -51.879  1.00  0.00     0.043 A 
HETATM   13  C   UNL     1     -40.308  52.414 -52.864  1.00  0.00     0.004 A 
HETATM   14  C   UNL     1     -39.487  50.216 -52.128  1.00  0.00     0.030 A 
HETATM   15  C   UNL     1     -40.468  51.899 -54.169  1.00  0.00     0.014 A 
HETATM   16  C   UNL     1     -40.141  50.564 -54.437  1.00  0.00     0.001 A 
HETATM   17  C   UNL     1     -39.656  49.736 -53.428  1.00  0.00     0.002 A 
ENDBRANCH   6   7
ENDBRANCH   1   5
BRANCH   2  18
HETATM   18  C   UNL     1     -42.880  58.167 -55.252  1.00  0.00     0.280 C 
BRANCH  18  19
HETATM   19  O   UNL     1     -41.877  59.160 -55.013  1.00  0.00    -0.341 OA
BRANCH  19  20
HETATM   20  C   UNL     1     -42.269  59.948 -53.951  1.00  0.00     0.080 A 
HETATM   21  C   UNL     1     -41.736  59.760 -52.655  1.00  0.00     0.009 A 
HETATM   22  C   UNL     1     -42.248  60.541 -51.585  1.00  0.00    -0.006 A 
HETATM   23  C   UNL     1     -40.713  58.821 -52.393  1.00  0.00     0.015 A 
HETATM   24  C   UNL     1     -41.732  60.303 -50.286  1.00  0.00     0.014 A 
HETATM   25  C   UNL     1     -43.246  61.509 -51.878  1.00  0.00     0.022 A 
HETATM   26  C   UNL     1     -40.737  59.351 -50.050  1.00  0.00     0.001 A 
HETATM   27  C   UNL     1     -40.221  58.616 -51.105  1.00  0.00     0.001 A 
HETATM   28 BR   UNL     1     -44.025  62.615 -50.532  1.00  0.00    -0.050 Br
HETATM   29  C   UNL     1     -43.712  61.709 -53.181  1.00  0.00     0.023 A 
HETATM   30  C   UNL     1     -43.220  60.931 -54.220  1.00  0.00     0.039 A 
ENDBRANCH  19  20
ENDBRANCH  18  19
ENDBRANCH   2  18
TORSDOF 5
ENDMDL
MODEL 5
REMARK VINA RESULT:      -8.6      3.889      9.525
REMARK  5 active torsions:
REMARK  status: ('A' for Active; 'I' for Inactive)
REMARK    1  A    between atoms: C_7  and  C_8 
REMARK    2  A    between atoms: N_9  and  N_10 
REMARK       I    between atoms: N_10  and  C_11 
REMARK    3  A    between atoms: C_11  and  C_12 
REMARK    4  A    between atoms: C_12  and  O_13 
REMARK    5  A    between atoms: O_13  and  C_14 
ROOT
HETATM    1  N   UNL     1     -43.440  55.287 -57.493  1.00  0.00    -0.246 N 
HETATM    2  C   UNL     1     -42.621  55.588 -56.410  1.00  0.00     0.261 C 
HETATM    3  O   UNL     1     -42.047  56.660 -56.217  1.00  0.00    -0.269 OA
HETATM    4  H   UNL     1     -43.614  54.298 -57.668  1.00  0.00     0.192 HD
ENDROOT
BRANCH   1   5
HETATM    5  N   UNL     1     -43.640  56.101 -58.586  1.00  0.00    -0.184 NA
HETATM    6  C   UNL     1     -44.352  57.171 -58.418  1.00  0.00     0.153 C 
BRANCH   6   7
HETATM    7  C   UNL     1     -44.559  58.114 -59.505  1.00  0.00     0.018 A 
HETATM    8  C   UNL     1     -45.749  58.201 -60.221  1.00  0.00     0.018 A 
HETATM    9  C   UNL     1     -47.025  57.449 -60.081  1.00  0.00     0.069 C 
HETATM   10  N   UNL     1     -45.599  59.182 -61.167  1.00  0.00    -0.358 N 
HETATM   11  H   UNL     1     -46.307  59.467 -61.829  1.00  0.00     0.166 HD
HETATM   12  C   UNL     1     -44.347  59.742 -61.090  1.00  0.00     0.043 A 
HETATM   13  C   UNL     1     -43.670  59.097 -60.052  1.00  0.00     0.004 A 
HETATM   14  C   UNL     1     -43.774  60.763 -61.858  1.00  0.00     0.030 A 
HETATM   15  C   UNL     1     -42.347  59.504 -59.775  1.00  0.00     0.014 A 
HETATM   16  C   UNL     1     -41.758  60.525 -60.532  1.00  0.00     0.001 A 
HETATM   17  C   UNL     1     -42.465  61.143 -61.559  1.00  0.00     0.002 A 
ENDBRANCH   6   7
ENDBRANCH   1   5
BRANCH   2  18
HETATM   18  C   UNL     1     -42.525  54.461 -55.384  1.00  0.00     0.280 C 
BRANCH  18  19
HETATM   19  O   UNL     1     -41.193  53.957 -55.238  1.00  0.00    -0.341 OA
BRANCH  19  20
HETATM   20  C   UNL     1     -40.898  53.851 -53.895  1.00  0.00     0.080 A 
HETATM   21  C   UNL     1     -40.414  52.647 -53.336  1.00  0.00     0.009 A 
HETATM   22  C   UNL     1     -40.218  52.573 -51.931  1.00  0.00    -0.006 A 
HETATM   23  C   UNL     1     -40.122  51.515 -54.131  1.00  0.00     0.015 A 
HETATM   24  C   UNL     1     -39.777  51.340 -51.388  1.00  0.00     0.014 A 
HETATM   25  C   UNL     1     -40.477  53.735 -51.156  1.00  0.00     0.022 A 
HETATM   26  C   UNL     1     -39.518  50.229 -52.194  1.00  0.00     0.001 A 
HETATM   27  C   UNL     1     -39.682  50.319 -53.567  1.00  0.00     0.001 A 
HETATM   28 BR   UNL     1     -40.264  53.769 -49.261  1.00  0.00    -0.050 Br
HETATM   29  C   UNL     1     -40.901  54.930 -51.747  1.00  0.00     0.023 A 
HETATM   30  C   UNL     1     -41.108  54.990 -53.118  1.00  0.00     0.039 A 
ENDBRANCH  19  20
ENDBRANCH  18  19
ENDBRANCH   2  18
TORSDOF 5
ENDMDL
MODEL 6
REMARK VINA RESULT:      -8.5      2.311      2.623
REMARK  5 active torsions:
REMARK  status: ('A' for Active; 'I' for Inactive)
REMARK    1  A    between atoms: C_7  and  C_8 
REMARK    2  A    between atoms: N_9  and  N_10 
REMARK       I    between atoms: N_10  and  C_11 
REMARK    3  A    between atoms: C_11  and  C_12 
REMARK    4  A    between atoms: C_12  and  O_13 
REMARK    5  A    between atoms: O_13  and  C_14 
ROOT
HETATM    1  N   UNL     1     -44.075  55.916 -54.081  1.00  0.00    -0.246 N 
HETATM    2  C   UNL     1     -44.224  57.240 -53.681  1.00  0.00     0.261 C 
HETATM    3  O   UNL     1     -43.657  57.773 -52.727  1.00  0.00    -0.269 OA
HETATM    4  H   UNL     1     -44.799  55.544 -54.694  1.00  0.00     0.192 HD
ENDROOT
BRANCH   1   5
HETATM    5  N   UNL     1     -43.363  54.956 -53.394  1.00  0.00    -0.184 NA
HETATM    6  C   UNL     1     -42.073  54.956 -53.523  1.00  0.00     0.153 C 
BRANCH   6   7
HETATM    7  C   UNL     1     -41.245  54.017 -52.785  1.00  0.00     0.018 A 
HETATM    8  C   UNL     1     -40.783  54.260 -51.496  1.00  0.00     0.018 A 
HETATM    9  C   UNL     1     -40.998  55.418 -50.588  1.00  0.00     0.069 C 
HETATM   10  N   UNL     1     -40.035  53.178 -51.107  1.00  0.00    -0.358 N 
HETATM   11  H   UNL     1     -39.577  53.076 -50.212  1.00  0.00     0.166 HD
HETATM   12  C   UNL     1     -39.996  52.233 -52.104  1.00  0.00     0.043 A 
HETATM   13  C   UNL     1     -40.750  52.727 -53.170  1.00  0.00     0.004 A 
HETATM   14  C   UNL     1     -39.352  50.990 -52.134  1.00  0.00     0.030 A 
HETATM   15  C   UNL     1     -40.862  51.924 -54.326  1.00  0.00     0.014 A 
HETATM   16  C   UNL     1     -40.226  50.677 -54.374  1.00  0.00     0.001 A 
HETATM   17  C   UNL     1     -39.481  50.220 -53.290  1.00  0.00     0.002 A 
ENDBRANCH   6   7
ENDBRANCH   1   5
BRANCH   2  18
HETATM   18  C   UNL     1     -45.137  58.055 -54.594  1.00  0.00     0.280 C 
BRANCH  18  19
HETATM   19  O   UNL     1     -44.432  58.672 -55.676  1.00  0.00    -0.341 OA
BRANCH  19  20
HETATM   20  C   UNL     1     -44.970  58.237 -56.869  1.00  0.00     0.080 A 
HETATM   21  C   UNL     1     -44.152  57.932 -57.981  1.00  0.00     0.009 A 
HETATM   22  C   UNL     1     -44.772  57.579 -59.210  1.00  0.00    -0.006 A 
HETATM   23  C   UNL     1     -42.742  57.971 -57.909  1.00  0.00     0.015 A 
HETATM   24  C   UNL     1     -43.934  57.324 -60.324  1.00  0.00     0.014 A 
HETATM   25  C   UNL     1     -46.190  57.504 -59.249  1.00  0.00     0.022 A 
HETATM   26  C   UNL     1     -42.541  57.392 -60.232  1.00  0.00     0.001 A 
HETATM   27  C   UNL     1     -41.945  57.707 -59.021  1.00  0.00     0.001 A 
HETATM   28 BR   UNL     1     -47.147  57.051 -60.836  1.00  0.00    -0.050 Br
HETATM   29  C   UNL     1     -46.968  57.757 -58.115  1.00  0.00     0.023 A 
HETATM   30  C   UNL     1     -46.358  58.119 -56.922  1.00  0.00     0.039 A 
ENDBRANCH  19  20
ENDBRANCH  18  19
ENDBRANCH   2  18
TORSDOF 5
ENDMDL
MODEL 7
REMARK VINA RESULT:      -8.5      2.419      3.243
REMARK  5 active torsions:
REMARK  status: ('A' for Active; 'I' for Inactive)
REMARK    1  A    between atoms: C_7  and  C_8 
REMARK    2  A    between atoms: N_9  and  N_10 
REMARK       I    between atoms: N_10  and  C_11 
REMARK    3  A    between atoms: C_11  and  C_12 
REMARK    4  A    between atoms: C_12  and  O_13 
REMARK    5  A    between atoms: O_13  and  C_14 
ROOT
HETATM    1  N   UNL     1     -41.342  55.821 -55.503  1.00  0.00    -0.246 N 
HETATM    2  C   UNL     1     -42.430  55.711 -56.362  1.00  0.00     0.261 C 
HETATM    3  O   UNL     1     -43.127  54.708 -56.516  1.00  0.00    -0.269 OA
HETATM    4  H   UNL     1     -40.701  56.593 -55.681  1.00  0.00     0.192 HD
ENDROOT
BRANCH   1   5
HETATM    5  N   UNL     1     -40.794  54.783 -54.780  1.00  0.00    -0.184 NA
HETATM    6  C   UNL     1     -41.103  54.696 -53.523  1.00  0.00     0.153 C 
BRANCH   6   7
HETATM    7  C   UNL     1     -40.617  53.598 -52.705  1.00  0.00     0.018 A 
HETATM    8  C   UNL     1     -40.378  53.714 -51.340  1.00  0.00     0.018 A 
HETATM    9  C   UNL     1     -40.553  54.867 -50.416  1.00  0.00     0.069 C 
HETATM   10  N   UNL     1     -39.927  52.500 -50.888  1.00  0.00    -0.358 N 
HETATM   11  H   UNL     1     -39.677  52.290 -49.932  1.00  0.00     0.166 HD
HETATM   12  C   UNL     1     -39.866  51.593 -51.917  1.00  0.00     0.043 A 
HETATM   13  C   UNL     1     -40.298  52.249 -53.072  1.00  0.00     0.004 A 
HETATM   14  C   UNL     1     -39.464  50.252 -51.905  1.00  0.00     0.030 A 
HETATM   15  C   UNL     1     -40.326  51.513 -54.276  1.00  0.00     0.014 A 
HETATM   16  C   UNL     1     -39.928  50.170 -54.284  1.00  0.00     0.001 A 
HETATM   17  C   UNL     1     -39.502  49.551 -53.112  1.00  0.00     0.002 A 
ENDBRANCH   6   7
ENDBRANCH   1   5
BRANCH   2  18
HETATM   18  C   UNL     1     -42.765  57.007 -57.095  1.00  0.00     0.280 C 
BRANCH  18  19
HETATM   19  O   UNL     1     -42.577  56.908 -58.511  1.00  0.00    -0.341 OA
BRANCH  19  20
HETATM   20  C   UNL     1     -43.620  57.547 -59.147  1.00  0.00     0.080 A 
HETATM   21  C   UNL     1     -43.394  58.593 -60.071  1.00  0.00     0.009 A 
HETATM   22  C   UNL     1     -44.512  59.274 -60.622  1.00  0.00    -0.006 A 
HETATM   23  C   UNL     1     -42.092  58.982 -60.460  1.00  0.00     0.015 A 
HETATM   24  C   UNL     1     -44.259  60.350 -61.510  1.00  0.00     0.014 A 
HETATM   25  C   UNL     1     -45.812  58.839 -60.251  1.00  0.00     0.022 A 
HETATM   26  C   UNL     1     -42.961  60.729 -61.860  1.00  0.00     0.001 A 
HETATM   27  C   UNL     1     -41.877  60.039 -61.342  1.00  0.00     0.001 A 
HETATM   28 BR   UNL     1     -47.397  59.672 -60.910  1.00  0.00    -0.050 Br
HETATM   29  C   UNL     1     -46.003  57.764 -59.377  1.00  0.00     0.023 A 
HETATM   30  C   UNL     1     -44.906  57.114 -58.828  1.00  0.00     0.039 A 
ENDBRANCH  19  20
ENDBRANCH  18  19
ENDBRANCH   2  18
TORSDOF 5
ENDMDL
MODEL 8
REMARK VINA RESULT:      -8.5      3.917      9.741
REMARK  5 active torsions:
REMARK  status: ('A' for Active; 'I' for Inactive)
REMARK    1  A    between atoms: C_7  and  C_8 
REMARK    2  A    between atoms: N_9  and  N_10 
REMARK       I    between atoms: N_10  and  C_11 
REMARK    3  A    between atoms: C_11  and  C_12 
REMARK    4  A    between atoms: C_12  and  O_13 
REMARK    5  A    between atoms: O_13  and  C_14 
ROOT
HETATM    1  N   UNL     1     -42.450  55.817 -57.271  1.00  0.00    -0.246 N 
HETATM    2  C   UNL     1     -42.672  55.663 -55.906  1.00  0.00     0.261 C 
HETATM    3  O   UNL     1     -43.368  56.396 -55.203  1.00  0.00    -0.269 OA
HETATM    4  H   UNL     1     -41.649  55.320 -57.658  1.00  0.00     0.192 HD
ENDROOT
BRANCH   1   5
HETATM    5  N   UNL     1     -42.873  56.889 -58.027  1.00  0.00    -0.184 NA
HETATM    6  C   UNL     1     -43.677  56.649 -59.015  1.00  0.00     0.153 C 
BRANCH   6   7
HETATM    7  C   UNL     1     -44.217  57.730 -59.823  1.00  0.00     0.018 A 
HETATM    8  C   UNL     1     -45.575  57.877 -60.086  1.00  0.00     0.018 A 
HETATM    9  C   UNL     1     -46.745  57.070 -59.645  1.00  0.00     0.069 C 
HETATM   10  N   UNL     1     -45.732  58.988 -60.875  1.00  0.00    -0.358 N 
HETATM   11  H   UNL     1     -46.614  59.340 -61.218  1.00  0.00     0.166 HD
HETATM   12  C   UNL     1     -44.516  59.573 -61.134  1.00  0.00     0.043 A 
HETATM   13  C   UNL     1     -43.544  58.810 -60.483  1.00  0.00     0.004 A 
HETATM   14  C   UNL     1     -44.214  60.713 -61.889  1.00  0.00     0.030 A 
HETATM   15  C   UNL     1     -42.198  59.218 -60.600  1.00  0.00     0.014 A 
HETATM   16  C   UNL     1     -41.877  60.356 -61.351  1.00  0.00     0.001 A 
HETATM   17  C   UNL     1     -42.874  61.090 -61.987  1.00  0.00     0.002 A 
ENDBRANCH   6   7
ENDBRANCH   1   5
BRANCH   2  18
HETATM   18  C   UNL     1     -42.015  54.418 -55.317  1.00  0.00     0.280 C 
BRANCH  18  19
HETATM   19  O   UNL     1     -40.845  54.720 -54.549  1.00  0.00    -0.341 OA
BRANCH  19  20
HETATM   20  C   UNL     1     -40.585  53.669 -53.695  1.00  0.00     0.080 A 
HETATM   21  C   UNL     1     -40.656  53.822 -52.291  1.00  0.00     0.009 A 
HETATM   22  C   UNL     1     -40.286  52.728 -51.463  1.00  0.00    -0.006 A 
HETATM   23  C   UNL     1     -41.080  55.027 -51.688  1.00  0.00     0.015 A 
HETATM   24  C   UNL     1     -40.321  52.920 -50.060  1.00  0.00     0.014 A 
HETATM   25  C   UNL     1     -39.904  51.512 -52.090  1.00  0.00     0.022 A 
HETATM   26  C   UNL     1     -40.722  54.130 -49.489  1.00  0.00     0.001 A 
HETATM   27  C   UNL     1     -41.110  55.181 -50.304  1.00  0.00     0.001 A 
HETATM   28 BR   UNL     1     -39.376  49.971 -51.097  1.00  0.00    -0.050 Br
HETATM   29  C   UNL     1     -39.898  51.375 -53.482  1.00  0.00     0.023 A 
HETATM   30  C   UNL     1     -40.244  52.453 -54.286  1.00  0.00     0.039 A 
ENDBRANCH  19  20
ENDBRANCH  18  19
ENDBRANCH   2  18
TORSDOF 5
ENDMDL
MODEL 9
REMARK VINA RESULT:      -8.4      4.218      9.642
REMARK  5 active torsions:
REMARK  status: ('A' for Active; 'I' for Inactive)
REMARK    1  A    between atoms: C_7  and  C_8 
REMARK    2  A    between atoms: N_9  and  N_10 
REMARK       I    between atoms: N_10  and  C_11 
REMARK    3  A    between atoms: C_11  and  C_12 
REMARK    4  A    between atoms: C_12  and  O_13 
REMARK    5  A    between atoms: O_13  and  C_14 
ROOT
HETATM    1  N   UNL     1     -42.097  56.062 -56.925  1.00  0.00    -0.246 N 
HETATM    2  C   UNL     1     -42.249  55.156 -55.881  1.00  0.00     0.261 C 
HETATM    3  O   UNL     1     -43.318  54.716 -55.459  1.00  0.00    -0.269 OA
HETATM    4  H   UNL     1     -41.201  56.544 -56.980  1.00  0.00     0.192 HD
ENDROOT
BRANCH   1   5
HETATM    5  N   UNL     1     -43.129  56.708 -57.571  1.00  0.00    -0.184 NA
HETATM    6  C   UNL     1     -43.682  56.104 -58.577  1.00  0.00     0.153 C 
BRANCH   6   7
HETATM    7  C   UNL     1     -44.815  56.689 -59.273  1.00  0.00     0.018 A 
HETATM    8  C   UNL     1     -45.339  56.163 -60.450  1.00  0.00     0.018 A 
HETATM    9  C   UNL     1     -44.947  54.965 -61.239  1.00  0.00     0.069 C 
HETATM   10  N   UNL     1     -46.389  56.957 -60.833  1.00  0.00    -0.358 N 
HETATM   11  H   UNL     1     -46.962  56.811 -61.652  1.00  0.00     0.166 HD
HETATM   12  C   UNL     1     -46.570  57.986 -59.941  1.00  0.00     0.043 A 
HETATM   13  C   UNL     1     -45.600  57.843 -58.946  1.00  0.00     0.004 A 
HETATM   14  C   UNL     1     -47.514  59.019 -59.946  1.00  0.00     0.030 A 
HETATM   15  C   UNL     1     -45.583  58.792 -57.901  1.00  0.00     0.014 A 
HETATM   16  C   UNL     1     -46.521  59.833 -57.889  1.00  0.00     0.001 A 
HETATM   17  C   UNL     1     -47.471  59.943 -58.900  1.00  0.00     0.002 A 
ENDBRANCH   6   7
ENDBRANCH   1   5
BRANCH   2  18
HETATM   18  C   UNL     1     -40.925  54.663 -55.302  1.00  0.00     0.280 C 
BRANCH  18  19
HETATM   19  O   UNL     1     -40.742  55.045 -53.935  1.00  0.00    -0.341 OA
BRANCH  19  20
HETATM   20  C   UNL     1     -40.529  53.913 -53.177  1.00  0.00     0.080 A 
HETATM   21  C   UNL     1     -40.652  53.932 -51.769  1.00  0.00     0.009 A 
HETATM   22  C   UNL     1     -40.329  52.757 -51.037  1.00  0.00    -0.006 A 
HETATM   23  C   UNL     1     -41.083  55.081 -51.068  1.00  0.00     0.015 A 
HETATM   24  C   UNL     1     -40.415  52.814 -49.624  1.00  0.00     0.014 A 
HETATM   25  C   UNL     1     -39.940  51.600 -51.764  1.00  0.00     0.022 A 
HETATM   26  C   UNL     1     -40.821  53.971 -48.954  1.00  0.00     0.001 A 
HETATM   27  C   UNL     1     -41.164  55.102 -49.678  1.00  0.00     0.001 A 
HETATM   28 BR   UNL     1     -39.471  49.962 -50.905  1.00  0.00    -0.050 Br
HETATM   29  C   UNL     1     -39.882  51.598 -53.162  1.00  0.00     0.023 A 
HETATM   30  C   UNL     1     -40.182  52.754 -53.870  1.00  0.00     0.039 A 
ENDBRANCH  19  20
ENDBRANCH  18  19
ENDBRANCH   2  18
TORSDOF 5
ENDMDL
MODEL 10
REMARK VINA RESULT:      -8.4      3.718      9.350
REMARK  5 active torsions:
REMARK  status: ('A' for Active; 'I' for Inactive)
REMARK    1  A    between atoms: C_7  and  C_8 
REMARK    2  A    between atoms: N_9  and  N_10 
REMARK       I    between atoms: N_10  and  C_11 
REMARK    3  A    between atoms: C_11  and  C_12 
REMARK    4  A    between atoms: C_12  and  O_13 
REMARK    5  A    between atoms: O_13  and  C_14 
ROOT
HETATM    1  N   UNL     1     -42.963  57.479 -56.019  1.00  0.00    -0.246 N 
HETATM    2  C   UNL     1     -43.116  56.132 -55.708  1.00  0.00     0.261 C 
HETATM    3  O   UNL     1     -42.833  55.186 -56.444  1.00  0.00    -0.269 OA
HETATM    4  H   UNL     1     -43.488  58.138 -55.447  1.00  0.00     0.192 HD
ENDROOT
BRANCH   1   5
HETATM    5  N   UNL     1     -42.587  57.970 -57.251  1.00  0.00    -0.184 NA
HETATM    6  C   UNL     1     -43.037  59.136 -57.597  1.00  0.00     0.153 C 
BRANCH   6   7
HETATM    7  C   UNL     1     -42.639  59.752 -58.852  1.00  0.00     0.018 A 
HETATM    8  C   UNL     1     -43.125  59.341 -60.089  1.00  0.00     0.018 A 
HETATM    9  C   UNL     1     -44.105  58.281 -60.445  1.00  0.00     0.069 C 
HETATM   10  N   UNL     1     -42.543  60.126 -61.051  1.00  0.00    -0.358 N 
HETATM   11  H   UNL     1     -42.715  60.056 -62.044  1.00  0.00     0.166 HD
HETATM   12  C   UNL     1     -41.692  61.041 -60.479  1.00  0.00     0.043 A 
HETATM   13  C   UNL     1     -41.733  60.835 -59.099  1.00  0.00     0.004 A 
HETATM   14  C   UNL     1     -40.899  62.024 -61.083  1.00  0.00     0.030 A 
HETATM   15  C   UNL     1     -40.933  61.666 -58.285  1.00  0.00     0.014 A 
HETATM   16  C   UNL     1     -40.133  62.656 -58.870  1.00  0.00     0.001 A 
HETATM   17  C   UNL     1     -40.118  62.829 -60.252  1.00  0.00     0.002 A 
ENDBRANCH   6   7
ENDBRANCH   1   5
BRANCH   2  18
HETATM   18  C   UNL     1     -43.625  55.886 -54.290  1.00  0.00     0.280 C 
BRANCH  18  19
HETATM   19  O   UNL     1     -43.600  54.502 -53.924  1.00  0.00    -0.341 OA
BRANCH  19  20
HETATM   20  C   UNL     1     -42.787  54.345 -52.821  1.00  0.00     0.080 A 
HETATM   21  C   UNL     1     -41.658  53.494 -52.850  1.00  0.00     0.009 A 
HETATM   22  C   UNL     1     -40.915  53.301 -51.655  1.00  0.00    -0.006 A 
HETATM   23  C   UNL     1     -41.249  52.830 -54.028  1.00  0.00     0.015 A 
HETATM   24  C   UNL     1     -39.816  52.408 -51.696  1.00  0.00     0.014 A 
HETATM   25  C   UNL     1     -41.318  54.012 -50.493  1.00  0.00     0.022 A 
HETATM   26  C   UNL     1     -39.446  51.745 -52.869  1.00  0.00     0.001 A 
HETATM   27  C   UNL     1     -40.158  51.964 -54.038  1.00  0.00     0.001 A 
HETATM   28 BR   UNL     1     -40.414  53.837 -48.821  1.00  0.00    -0.050 Br
HETATM   29  C   UNL     1     -42.407  54.890 -50.511  1.00  0.00     0.023 A 
HETATM   30  C   UNL     1     -43.139  55.061 -51.678  1.00  0.00     0.039 A 
ENDBRANCH  19  20
ENDBRANCH  18  19
ENDBRANCH   2  18
TORSDOF 5
ENDMDL
