MODEL 1
REMARK VINA RESULT:      -7.7      0.000      0.000
REMARK  6 active torsions:
REMARK  status: ('A' for Active; 'I' for Inactive)
REMARK    1  A    between atoms: C_6  and  C_7 
REMARK       I    between atoms: C_7  and  N_8 
REMARK    2  A    between atoms: N_8  and  C_9 
REMARK    3  A    between atoms: C_9  and  C_10 
REMARK    4  A    between atoms: C_10  and  O_11 
REMARK    5  A    between atoms: C_10  and  C_12 
REMARK    6  A    between atoms: C_15  and  O_16 
ROOT
HETATM    1  C   UNL     1     -43.147  55.180 -56.842  1.00  0.00     0.258 C 
HETATM    2  N   UNL     1     -42.521  55.884 -55.845  1.00  0.00    -0.350 N 
HETATM    3  O   UNL     1     -43.597  54.051 -56.681  1.00  0.00    -0.267 OA
HETATM    4  H   UNL     1     -42.258  56.851 -56.030  1.00  0.00     0.163 HD
ENDROOT
BRANCH   2   5
HETATM    5  C   UNL     1     -42.336  55.383 -54.488  1.00  0.00     0.114 C 
HETATM    6  C   UNL     1     -43.011  56.341 -53.506  1.00  0.00     0.035 C 
BRANCH   5   7
HETATM    7  C   UNL     1     -40.829  55.210 -54.147  1.00  0.00     0.173 C 
BRANCH   7   8
HETATM    8  O   UNL     1     -40.020  55.459 -55.305  1.00  0.00    -0.389 OA
HETATM    9  H   UNL     1     -40.615  55.427 -56.074  1.00  0.00     0.210 HD
ENDBRANCH   7   8
BRANCH   7  10
HETATM   10  C   UNL     1     -40.491  53.850 -53.559  1.00  0.00    -0.028 A 
HETATM   11  C   UNL     1     -40.238  52.763 -54.404  1.00  0.00     0.012 A 
HETATM   12  C   UNL     1     -39.909  51.512 -53.872  1.00  0.00     0.037 A 
HETATM   13  C   UNL     1     -39.815  51.326 -52.492  1.00  0.00     0.068 A 
HETATM   14  C   UNL     1     -40.074  52.399 -51.642  1.00  0.00     0.037 A 
HETATM   15  C   UNL     1     -40.410  53.650 -52.173  1.00  0.00     0.012 A 
BRANCH  13  16
HETATM   16  O   UNL     1     -39.475  50.058 -52.106  1.00  0.00    -0.356 OA
HETATM   17  C   UNL     1     -39.690  49.729 -50.739  1.00  0.00     0.210 C 
ENDBRANCH  13  16
ENDBRANCH   7  10
ENDBRANCH   5   7
ENDBRANCH   2   5
BRANCH   1  18
HETATM   18  C   UNL     1     -43.231  55.874 -58.119  1.00  0.00     0.105 A 
HETATM   19  C   UNL     1     -43.797  55.400 -59.333  1.00  0.00     0.071 A 
HETATM   20  C   UNL     1     -44.436  54.082 -59.583  1.00  0.00     0.073 C 
HETATM   21  N   UNL     1     -43.706  56.294 -60.323  1.00  0.00    -0.170 NA
HETATM   22  N   UNL     1     -43.085  57.358 -59.771  1.00  0.00    -0.225 N 
HETATM   23  C   UNL     1     -42.768  57.142 -58.427  1.00  0.00     0.168 A 
HETATM   24  C   UNL     1     -42.759  58.561 -60.389  1.00  0.00     0.122 A 
HETATM   25  N   UNL     1     -42.122  58.095 -57.673  1.00  0.00    -0.240 NA
HETATM   26  C   UNL     1     -41.838  59.206 -58.285  1.00  0.00     0.120 A 
HETATM   27  C   UNL     1     -42.137  59.530 -59.706  1.00  0.00     0.038 A 
ENDBRANCH   1  18
TORSDOF 6
ENDMDL
MODEL 2
REMARK VINA RESULT:      -7.7      2.748      8.156
REMARK  6 active torsions:
REMARK  status: ('A' for Active; 'I' for Inactive)
REMARK    1  A    between atoms: C_6  and  C_7 
REMARK       I    between atoms: C_7  and  N_8 
REMARK    2  A    between atoms: N_8  and  C_9 
REMARK    3  A    between atoms: C_9  and  C_10 
REMARK    4  A    between atoms: C_10  and  O_11 
REMARK    5  A    between atoms: C_10  and  C_12 
REMARK    6  A    between atoms: C_15  and  O_16 
ROOT
HETATM    1  C   UNL     1     -40.965  54.833 -53.603  1.00  0.00     0.258 C 
HETATM    2  N   UNL     1     -42.274  55.222 -53.474  1.00  0.00    -0.350 N 
HETATM    3  O   UNL     1     -40.186  55.362 -54.389  1.00  0.00    -0.267 OA
HETATM    4  H   UNL     1     -42.832  54.798 -52.734  1.00  0.00     0.163 HD
ENDROOT
BRANCH   2   5
HETATM    5  C   UNL     1     -42.879  56.308 -54.236  1.00  0.00     0.114 C 
HETATM    6  C   UNL     1     -43.840  57.079 -53.329  1.00  0.00     0.035 C 
BRANCH   5   7
HETATM    7  C   UNL     1     -43.614  55.776 -55.499  1.00  0.00     0.173 C 
BRANCH   7   8
HETATM    8  O   UNL     1     -43.538  54.345 -55.558  1.00  0.00    -0.389 OA
HETATM    9  H   UNL     1     -43.856  54.012 -54.701  1.00  0.00     0.210 HD
ENDBRANCH   7   8
BRANCH   7  10
HETATM   10  C   UNL     1     -43.105  56.379 -56.797  1.00  0.00    -0.028 A 
HETATM   11  C   UNL     1     -43.206  55.657 -57.993  1.00  0.00     0.012 A 
HETATM   12  C   UNL     1     -42.756  56.211 -59.196  1.00  0.00     0.037 A 
HETATM   13  C   UNL     1     -42.210  57.496 -59.230  1.00  0.00     0.068 A 
HETATM   14  C   UNL     1     -42.098  58.218 -58.045  1.00  0.00     0.037 A 
HETATM   15  C   UNL     1     -42.540  57.663 -56.839  1.00  0.00     0.012 A 
BRANCH  13  16
HETATM   16  O   UNL     1     -41.821  57.921 -60.471  1.00  0.00    -0.356 OA
HETATM   17  C   UNL     1     -42.061  59.288 -60.780  1.00  0.00     0.210 C 
ENDBRANCH  13  16
ENDBRANCH   7  10
ENDBRANCH   5   7
ENDBRANCH   2   5
BRANCH   1  18
HETATM   18  C   UNL     1     -40.568  53.732 -52.738  1.00  0.00     0.105 A 
HETATM   19  C   UNL     1     -40.374  53.756 -51.330  1.00  0.00     0.071 A 
HETATM   20  C   UNL     1     -40.531  54.913 -50.411  1.00  0.00     0.073 C 
HETATM   21  N   UNL     1     -40.005  52.566 -50.845  1.00  0.00    -0.170 NA
HETATM   22  N   UNL     1     -39.956  51.754 -51.922  1.00  0.00    -0.225 N 
HETATM   23  C   UNL     1     -40.283  52.427 -53.102  1.00  0.00     0.168 A 
HETATM   24  C   UNL     1     -39.626  50.403 -51.947  1.00  0.00     0.122 A 
HETATM   25  N   UNL     1     -40.287  51.790 -54.322  1.00  0.00    -0.240 NA
HETATM   26  C   UNL     1     -39.978  50.528 -54.304  1.00  0.00     0.120 A 
HETATM   27  C   UNL     1     -39.620  49.726 -53.103  1.00  0.00     0.038 A 
ENDBRANCH   1  18
TORSDOF 6
ENDMDL
MODEL 3
REMARK VINA RESULT:      -7.5      3.392      7.980
REMARK  6 active torsions:
REMARK  status: ('A' for Active; 'I' for Inactive)
REMARK    1  A    between atoms: C_6  and  C_7 
REMARK       I    between atoms: C_7  and  N_8 
REMARK    2  A    between atoms: N_8  and  C_9 
REMARK    3  A    between atoms: C_9  and  C_10 
REMARK    4  A    between atoms: C_10  and  O_11 
REMARK    5  A    between atoms: C_10  and  C_12 
REMARK    6  A    between atoms: C_15  and  O_16 
ROOT
HETATM    1  C   UNL     1     -41.605  55.863 -51.819  1.00  0.00     0.258 C 
HETATM    2  N   UNL     1     -42.809  55.799 -52.472  1.00  0.00    -0.350 N 
HETATM    3  O   UNL     1     -41.064  56.923 -51.519  1.00  0.00    -0.267 OA
HETATM    4  H   UNL     1     -43.238  54.883 -52.603  1.00  0.00     0.163 HD
ENDROOT
BRANCH   2   5
HETATM    5  C   UNL     1     -43.585  56.969 -52.867  1.00  0.00     0.114 C 
HETATM    6  C   UNL     1     -44.515  57.360 -51.718  1.00  0.00     0.035 C 
BRANCH   5   7
HETATM    7  C   UNL     1     -44.392  56.704 -54.169  1.00  0.00     0.173 C 
BRANCH   7   8
HETATM    8  O   UNL     1     -44.770  55.323 -54.253  1.00  0.00    -0.389 OA
HETATM    9  H   UNL     1     -45.727  55.305 -54.426  1.00  0.00     0.210 HD
ENDBRANCH   7   8
BRANCH   7  10
HETATM   10  C   UNL     1     -43.659  57.121 -55.433  1.00  0.00    -0.028 A 
HETATM   11  C   UNL     1     -43.181  56.149 -56.320  1.00  0.00     0.012 A 
HETATM   12  C   UNL     1     -42.521  56.524 -57.495  1.00  0.00     0.037 A 
HETATM   13  C   UNL     1     -42.337  57.871 -57.811  1.00  0.00     0.068 A 
HETATM   14  C   UNL     1     -42.802  58.845 -56.931  1.00  0.00     0.037 A 
HETATM   15  C   UNL     1     -43.456  58.472 -55.752  1.00  0.00     0.012 A 
BRANCH  13  16
HETATM   16  O   UNL     1     -41.688  58.099 -58.994  1.00  0.00    -0.356 OA
HETATM   17  C   UNL     1     -42.327  57.627 -60.173  1.00  0.00     0.210 C 
ENDBRANCH  13  16
ENDBRANCH   7  10
ENDBRANCH   5   7
ENDBRANCH   2   5
BRANCH   1  18
HETATM   18  C   UNL     1     -41.007  54.573 -51.513  1.00  0.00     0.105 A 
HETATM   19  C   UNL     1     -40.703  54.034 -50.233  1.00  0.00     0.071 A 
HETATM   20  C   UNL     1     -40.925  54.665 -48.906  1.00  0.00     0.073 C 
HETATM   21  N   UNL     1     -40.153  52.817 -50.308  1.00  0.00    -0.170 NA
HETATM   22  N   UNL     1     -40.093  52.546 -51.629  1.00  0.00    -0.225 N 
HETATM   23  C   UNL     1     -40.595  53.596 -52.404  1.00  0.00     0.168 A 
HETATM   24  C   UNL     1     -39.604  51.393 -52.234  1.00  0.00     0.122 A 
HETATM   25  N   UNL     1     -40.620  53.534 -53.778  1.00  0.00    -0.240 NA
HETATM   26  C   UNL     1     -40.159  52.438 -54.305  1.00  0.00     0.120 A 
HETATM   27  C   UNL     1     -39.608  51.269 -53.567  1.00  0.00     0.038 A 
ENDBRANCH   1  18
TORSDOF 6
ENDMDL
MODEL 4
REMARK VINA RESULT:      -7.3      3.163      7.935
REMARK  6 active torsions:
REMARK  status: ('A' for Active; 'I' for Inactive)
REMARK    1  A    between atoms: C_6  and  C_7 
REMARK       I    between atoms: C_7  and  N_8 
REMARK    2  A    between atoms: N_8  and  C_9 
REMARK    3  A    between atoms: C_9  and  C_10 
REMARK    4  A    between atoms: C_10  and  O_11 
REMARK    5  A    between atoms: C_10  and  C_12 
REMARK    6  A    between atoms: C_15  and  O_16 
ROOT
HETATM    1  C   UNL     1     -41.554  56.089 -53.362  1.00  0.00     0.258 C 
HETATM    2  N   UNL     1     -42.816  56.511 -53.029  1.00  0.00    -0.350 N 
HETATM    3  O   UNL     1     -40.863  56.652 -54.204  1.00  0.00    -0.267 OA
HETATM    4  H   UNL     1     -43.290  56.049 -52.254  1.00  0.00     0.163 HD
ENDROOT
BRANCH   2   5
HETATM    5  C   UNL     1     -43.467  57.675 -53.620  1.00  0.00     0.114 C 
HETATM    6  C   UNL     1     -44.170  58.468 -52.517  1.00  0.00     0.035 C 
BRANCH   5   7
HETATM    7  C   UNL     1     -44.472  57.260 -54.732  1.00  0.00     0.173 C 
BRANCH   7   8
HETATM    8  O   UNL     1     -45.088  56.005 -54.409  1.00  0.00    -0.389 OA
HETATM    9  H   UNL     1     -44.497  55.309 -54.746  1.00  0.00     0.210 HD
ENDBRANCH   7   8
BRANCH   7  10
HETATM   10  C   UNL     1     -43.854  57.196 -56.117  1.00  0.00    -0.028 A 
HETATM   11  C   UNL     1     -43.743  58.358 -56.892  1.00  0.00     0.012 A 
HETATM   12  C   UNL     1     -43.158  58.312 -58.161  1.00  0.00     0.037 A 
HETATM   13  C   UNL     1     -42.664  57.112 -58.676  1.00  0.00     0.068 A 
HETATM   14  C   UNL     1     -42.776  55.949 -57.917  1.00  0.00     0.037 A 
HETATM   15  C   UNL     1     -43.368  55.992 -56.649  1.00  0.00     0.012 A 
BRANCH  13  16
HETATM   16  O   UNL     1     -42.107  57.208 -59.922  1.00  0.00    -0.356 OA
HETATM   17  C   UNL     1     -41.997  58.515 -60.471  1.00  0.00     0.210 C 
ENDBRANCH  13  16
ENDBRANCH   7  10
ENDBRANCH   5   7
ENDBRANCH   2   5
BRANCH   1  18
HETATM   18  C   UNL     1     -41.096  54.911 -52.642  1.00  0.00     0.105 A 
HETATM   19  C   UNL     1     -40.612  53.690 -53.187  1.00  0.00     0.071 A 
HETATM   20  C   UNL     1     -40.463  53.331 -54.621  1.00  0.00     0.073 C 
HETATM   21  N   UNL     1     -40.275  52.806 -52.241  1.00  0.00    -0.170 NA
HETATM   22  N   UNL     1     -40.529  53.436 -51.074  1.00  0.00    -0.225 N 
HETATM   23  C   UNL     1     -41.041  54.722 -51.272  1.00  0.00     0.168 A 
HETATM   24  C   UNL     1     -40.339  52.941 -49.788  1.00  0.00     0.122 A 
HETATM   25  N   UNL     1     -41.379  55.536 -50.216  1.00  0.00    -0.240 NA
HETATM   26  C   UNL     1     -41.183  55.040 -49.031  1.00  0.00     0.120 A 
HETATM   27  C   UNL     1     -40.642  53.689 -48.719  1.00  0.00     0.038 A 
ENDBRANCH   1  18
TORSDOF 6
ENDMDL
MODEL 5
REMARK VINA RESULT:      -7.3      4.302      7.686
REMARK  6 active torsions:
REMARK  status: ('A' for Active; 'I' for Inactive)
REMARK    1  A    between atoms: C_6  and  C_7 
REMARK       I    between atoms: C_7  and  N_8 
REMARK    2  A    between atoms: N_8  and  C_9 
REMARK    3  A    between atoms: C_9  and  C_10 
REMARK    4  A    between atoms: C_10  and  O_11 
REMARK    5  A    between atoms: C_10  and  C_12 
REMARK    6  A    between atoms: C_15  and  O_16 
ROOT
HETATM    1  C   UNL     1     -42.728  55.254 -51.634  1.00  0.00     0.258 C 
HETATM    2  N   UNL     1     -42.614  55.975 -52.795  1.00  0.00    -0.350 N 
HETATM    3  O   UNL     1     -43.644  55.416 -50.835  1.00  0.00    -0.267 OA
HETATM    4  H   UNL     1     -41.879  55.718 -53.452  1.00  0.00     0.163 HD
ENDROOT
BRANCH   2   5
HETATM    5  C   UNL     1     -43.568  56.996 -53.216  1.00  0.00     0.114 C 
HETATM    6  C   UNL     1     -44.383  56.461 -54.395  1.00  0.00     0.035 C 
BRANCH   5   7
HETATM    7  C   UNL     1     -42.850  58.323 -53.594  1.00  0.00     0.173 C 
BRANCH   7   8
HETATM    8  O   UNL     1     -42.290  58.232 -54.911  1.00  0.00    -0.389 OA
HETATM    9  H   UNL     1     -41.324  58.286 -54.808  1.00  0.00     0.210 HD
ENDBRANCH   7   8
BRANCH   7  10
HETATM   10  C   UNL     1     -41.780  58.739 -52.600  1.00  0.00    -0.028 A 
HETATM   11  C   UNL     1     -40.433  58.754 -52.983  1.00  0.00     0.012 A 
HETATM   12  C   UNL     1     -39.443  59.154 -52.080  1.00  0.00     0.037 A 
HETATM   13  C   UNL     1     -39.778  59.556 -50.786  1.00  0.00     0.068 A 
HETATM   14  C   UNL     1     -41.114  59.537 -50.392  1.00  0.00     0.037 A 
HETATM   15  C   UNL     1     -42.106  59.130 -51.292  1.00  0.00     0.012 A 
BRANCH  13  16
HETATM   16  O   UNL     1     -38.716  59.932 -50.009  1.00  0.00    -0.356 OA
HETATM   17  C   UNL     1     -37.480  59.276 -50.259  1.00  0.00     0.210 C 
ENDBRANCH  13  16
ENDBRANCH   7  10
ENDBRANCH   5   7
ENDBRANCH   2   5
BRANCH   1  18
HETATM   18  C   UNL     1     -41.670  54.280 -51.415  1.00  0.00     0.105 A 
HETATM   19  C   UNL     1     -40.934  54.046 -50.222  1.00  0.00     0.071 A 
HETATM   20  C   UNL     1     -41.072  54.745 -48.917  1.00  0.00     0.073 C 
HETATM   21  N   UNL     1     -40.025  53.075 -50.363  1.00  0.00    -0.170 NA
HETATM   22  N   UNL     1     -40.158  52.662 -51.642  1.00  0.00    -0.225 N 
HETATM   23  C   UNL     1     -41.146  53.378 -52.325  1.00  0.00     0.168 A 
HETATM   24  C   UNL     1     -39.441  51.658 -52.284  1.00  0.00     0.122 A 
HETATM   25  N   UNL     1     -41.439  53.126 -53.645  1.00  0.00    -0.240 NA
HETATM   26  C   UNL     1     -40.751  52.178 -54.209  1.00  0.00     0.120 A 
HETATM   27  C   UNL     1     -39.686  51.361 -53.567  1.00  0.00     0.038 A 
ENDBRANCH   1  18
TORSDOF 6
ENDMDL
MODEL 6
REMARK VINA RESULT:      -7.3      2.101      3.241
REMARK  6 active torsions:
REMARK  status: ('A' for Active; 'I' for Inactive)
REMARK    1  A    between atoms: C_6  and  C_7 
REMARK       I    between atoms: C_7  and  N_8 
REMARK    2  A    between atoms: N_8  and  C_9 
REMARK    3  A    between atoms: C_9  and  C_10 
REMARK    4  A    between atoms: C_10  and  O_11 
REMARK    5  A    between atoms: C_10  and  C_12 
REMARK    6  A    between atoms: C_15  and  O_16 
ROOT
HETATM    1  C   UNL     1     -43.369  57.260 -54.665  1.00  0.00     0.258 C 
HETATM    2  N   UNL     1     -42.395  56.938 -53.755  1.00  0.00    -0.350 N 
HETATM    3  O   UNL     1     -44.566  57.108 -54.443  1.00  0.00    -0.267 OA
HETATM    4  H   UNL     1     -41.430  57.181 -53.976  1.00  0.00     0.163 HD
ENDROOT
BRANCH   2   5
HETATM    5  C   UNL     1     -42.668  56.399 -52.427  1.00  0.00     0.114 C 
HETATM    6  C   UNL     1     -41.397  56.493 -51.581  1.00  0.00     0.035 C 
BRANCH   5   7
HETATM    7  C   UNL     1     -43.177  54.932 -52.503  1.00  0.00     0.173 C 
BRANCH   7   8
HETATM    8  O   UNL     1     -43.897  54.588 -51.310  1.00  0.00    -0.389 OA
HETATM    9  H   UNL     1     -43.249  54.583 -50.584  1.00  0.00     0.210 HD
ENDBRANCH   7   8
BRANCH   7  10
HETATM   10  C   UNL     1     -42.075  53.918 -52.756  1.00  0.00    -0.028 A 
HETATM   11  C   UNL     1     -41.822  53.466 -54.058  1.00  0.00     0.012 A 
HETATM   12  C   UNL     1     -40.798  52.546 -54.303  1.00  0.00     0.037 A 
HETATM   13  C   UNL     1     -40.001  52.071 -53.260  1.00  0.00     0.068 A 
HETATM   14  C   UNL     1     -40.249  52.508 -51.961  1.00  0.00     0.037 A 
HETATM   15  C   UNL     1     -41.279  53.423 -51.712  1.00  0.00     0.012 A 
BRANCH  13  16
HETATM   16  O   UNL     1     -39.028  51.186 -53.638  1.00  0.00    -0.356 OA
HETATM   17  C   UNL     1     -39.463  50.007 -54.304  1.00  0.00     0.210 C 
ENDBRANCH  13  16
ENDBRANCH   7  10
ENDBRANCH   5   7
ENDBRANCH   2   5
BRANCH   1  18
HETATM   18  C   UNL     1     -42.875  57.792 -55.925  1.00  0.00     0.105 A 
HETATM   19  C   UNL     1     -42.322  59.078 -56.173  1.00  0.00     0.071 A 
HETATM   20  C   UNL     1     -42.122  60.183 -55.199  1.00  0.00     0.073 C 
HETATM   21  N   UNL     1     -41.968  59.245 -57.451  1.00  0.00    -0.170 NA
HETATM   22  N   UNL     1     -42.279  58.077 -58.051  1.00  0.00    -0.225 N 
HETATM   23  C   UNL     1     -42.845  57.162 -57.158  1.00  0.00     0.168 A 
HETATM   24  C   UNL     1     -42.097  57.739 -59.388  1.00  0.00     0.122 A 
HETATM   25  N   UNL     1     -43.246  55.910 -57.562  1.00  0.00    -0.240 NA
HETATM   26  C   UNL     1     -43.055  55.630 -58.817  1.00  0.00     0.120 A 
HETATM   27  C   UNL     1     -42.460  56.532 -59.840  1.00  0.00     0.038 A 
ENDBRANCH   1  18
TORSDOF 6
ENDMDL
MODEL 7
REMARK VINA RESULT:      -7.2      4.698      8.810
REMARK  6 active torsions:
REMARK  status: ('A' for Active; 'I' for Inactive)
REMARK    1  A    between atoms: C_6  and  C_7 
REMARK       I    between atoms: C_7  and  N_8 
REMARK    2  A    between atoms: N_8  and  C_9 
REMARK    3  A    between atoms: C_9  and  C_10 
REMARK    4  A    between atoms: C_10  and  O_11 
REMARK    5  A    between atoms: C_10  and  C_12 
REMARK    6  A    between atoms: C_15  and  O_16 
ROOT
HETATM    1  C   UNL     1     -42.086  55.532 -51.998  1.00  0.00     0.258 C 
HETATM    2  N   UNL     1     -41.356  56.660 -52.274  1.00  0.00    -0.350 N 
HETATM    3  O   UNL     1     -43.310  55.497 -52.063  1.00  0.00    -0.267 OA
HETATM    4  H   UNL     1     -40.339  56.584 -52.289  1.00  0.00     0.163 HD
ENDROOT
BRANCH   2   5
HETATM    5  C   UNL     1     -41.944  57.929 -52.689  1.00  0.00     0.114 C 
HETATM    6  C   UNL     1     -41.378  58.318 -54.056  1.00  0.00     0.035 C 
BRANCH   5   7
HETATM    7  C   UNL     1     -41.681  59.047 -51.641  1.00  0.00     0.173 C 
BRANCH   7   8
HETATM    8  O   UNL     1     -40.779  58.582 -50.627  1.00  0.00    -0.389 OA
HETATM    9  H   UNL     1     -41.320  58.122 -49.961  1.00  0.00     0.210 HD
ENDBRANCH   7   8
BRANCH   7  10
HETATM   10  C   UNL     1     -42.947  59.592 -51.003  1.00  0.00    -0.028 A 
HETATM   11  C   UNL     1     -42.899  60.763 -50.236  1.00  0.00     0.012 A 
HETATM   12  C   UNL     1     -44.063  61.281 -49.659  1.00  0.00     0.037 A 
HETATM   13  C   UNL     1     -45.294  60.649 -49.846  1.00  0.00     0.068 A 
HETATM   14  C   UNL     1     -45.351  59.480 -50.600  1.00  0.00     0.037 A 
HETATM   15  C   UNL     1     -44.186  58.955 -51.171  1.00  0.00     0.012 A 
BRANCH  13  16
HETATM   16  O   UNL     1     -46.353  61.266 -49.238  1.00  0.00    -0.356 OA
HETATM   17  C   UNL     1     -46.337  62.688 -49.219  1.00  0.00     0.210 C 
ENDBRANCH  13  16
ENDBRANCH   7  10
ENDBRANCH   5   7
ENDBRANCH   2   5
BRANCH   1  18
HETATM   18  C   UNL     1     -41.296  54.374 -51.610  1.00  0.00     0.105 A 
HETATM   19  C   UNL     1     -40.849  54.019 -50.309  1.00  0.00     0.071 A 
HETATM   20  C   UNL     1     -41.083  54.752 -49.037  1.00  0.00     0.073 C 
HETATM   21  N   UNL     1     -40.137  52.887 -50.303  1.00  0.00    -0.170 NA
HETATM   22  N   UNL     1     -40.113  52.488 -51.593  1.00  0.00    -0.225 N 
HETATM   23  C   UNL     1     -40.801  53.372 -52.429  1.00  0.00     0.168 A 
HETATM   24  C   UNL     1     -39.501  51.353 -52.115  1.00  0.00     0.122 A 
HETATM   25  N   UNL     1     -40.894  53.162 -53.785  1.00  0.00    -0.240 NA
HETATM   26  C   UNL     1     -40.313  52.090 -54.234  1.00  0.00     0.120 A 
HETATM   27  C   UNL     1     -39.563  51.090 -53.427  1.00  0.00     0.038 A 
ENDBRANCH   1  18
TORSDOF 6
ENDMDL
MODEL 8
REMARK VINA RESULT:      -7.2      3.157      5.458
REMARK  6 active torsions:
REMARK  status: ('A' for Active; 'I' for Inactive)
REMARK    1  A    between atoms: C_6  and  C_7 
REMARK       I    between atoms: C_7  and  N_8 
REMARK    2  A    between atoms: N_8  and  C_9 
REMARK    3  A    between atoms: C_9  and  C_10 
REMARK    4  A    between atoms: C_10  and  O_11 
REMARK    5  A    between atoms: C_10  and  C_12 
REMARK    6  A    between atoms: C_15  and  O_16 
ROOT
HETATM    1  C   UNL     1     -42.624  57.235 -53.146  1.00  0.00     0.258 C 
HETATM    2  N   UNL     1     -42.974  56.479 -54.234  1.00  0.00    -0.350 N 
HETATM    3  O   UNL     1     -41.463  57.542 -52.891  1.00  0.00    -0.267 OA
HETATM    4  H   UNL     1     -43.965  56.346 -54.430  1.00  0.00     0.163 HD
ENDROOT
BRANCH   2   5
HETATM    5  C   UNL     1     -42.020  55.970 -55.213  1.00  0.00     0.114 C 
HETATM    6  C   UNL     1     -42.257  56.672 -56.552  1.00  0.00     0.035 C 
BRANCH   5   7
HETATM    7  C   UNL     1     -42.131  54.427 -55.368  1.00  0.00     0.173 C 
BRANCH   7   8
HETATM    8  O   UNL     1     -43.507  54.025 -55.409  1.00  0.00    -0.389 OA
HETATM    9  H   UNL     1     -43.802  54.129 -56.330  1.00  0.00     0.210 HD
ENDBRANCH   7   8
BRANCH   7  10
HETATM   10  C   UNL     1     -41.395  53.653 -54.288  1.00  0.00    -0.028 A 
HETATM   11  C   UNL     1     -40.601  52.551 -54.630  1.00  0.00     0.012 A 
HETATM   12  C   UNL     1     -39.905  51.844 -53.645  1.00  0.00     0.037 A 
HETATM   13  C   UNL     1     -39.978  52.229 -52.305  1.00  0.00     0.068 A 
HETATM   14  C   UNL     1     -40.771  53.319 -51.953  1.00  0.00     0.037 A 
HETATM   15  C   UNL     1     -41.474  54.023 -52.936  1.00  0.00     0.012 A 
BRANCH  13  16
HETATM   16  O   UNL     1     -39.241  51.460 -51.446  1.00  0.00    -0.356 OA
HETATM   17  C   UNL     1     -39.576  50.079 -51.380  1.00  0.00     0.210 C 
ENDBRANCH  13  16
ENDBRANCH   7  10
ENDBRANCH   5   7
ENDBRANCH   2   5
BRANCH   1  18
HETATM   18  C   UNL     1     -43.737  57.645 -52.303  1.00  0.00     0.105 A 
HETATM   19  C   UNL     1     -44.314  56.935 -51.215  1.00  0.00     0.071 A 
HETATM   20  C   UNL     1     -43.915  55.606 -50.684  1.00  0.00     0.073 C 
HETATM   21  N   UNL     1     -45.332  57.598 -50.655  1.00  0.00    -0.170 NA
HETATM   22  N   UNL     1     -45.430  58.743 -51.363  1.00  0.00    -0.225 N 
HETATM   23  C   UNL     1     -44.480  58.810 -52.387  1.00  0.00     0.168 A 
HETATM   24  C   UNL     1     -46.335  59.781 -51.170  1.00  0.00     0.122 A 
HETATM   25  N   UNL     1     -44.408  59.889 -53.238  1.00  0.00    -0.240 NA
HETATM   26  C   UNL     1     -45.267  60.840 -53.022  1.00  0.00     0.120 A 
HETATM   27  C   UNL     1     -46.310  60.862 -51.961  1.00  0.00     0.038 A 
ENDBRANCH   1  18
TORSDOF 6
ENDMDL
MODEL 9
REMARK VINA RESULT:      -7.1      2.444      3.749
REMARK  6 active torsions:
REMARK  status: ('A' for Active; 'I' for Inactive)
REMARK    1  A    between atoms: C_6  and  C_7 
REMARK       I    between atoms: C_7  and  N_8 
REMARK    2  A    between atoms: N_8  and  C_9 
REMARK    3  A    between atoms: C_9  and  C_10 
REMARK    4  A    between atoms: C_10  and  O_11 
REMARK    5  A    between atoms: C_10  and  C_12 
REMARK    6  A    between atoms: C_15  and  O_16 
ROOT
HETATM    1  C   UNL     1     -42.829  57.069 -56.555  1.00  0.00     0.258 C 
HETATM    2  N   UNL     1     -42.862  55.771 -56.116  1.00  0.00    -0.350 N 
HETATM    3  O   UNL     1     -42.141  57.936 -56.025  1.00  0.00    -0.267 OA
HETATM    4  H   UNL     1     -43.385  55.089 -56.665  1.00  0.00     0.163 HD
ENDROOT
BRANCH   2   5
HETATM    5  C   UNL     1     -42.079  55.271 -54.991  1.00  0.00     0.114 C 
HETATM    6  C   UNL     1     -40.823  54.580 -55.525  1.00  0.00     0.035 C 
BRANCH   5   7
HETATM    7  C   UNL     1     -42.911  54.303 -54.104  1.00  0.00     0.173 C 
BRANCH   7   8
HETATM    8  O   UNL     1     -44.310  54.607 -54.204  1.00  0.00    -0.389 OA
HETATM    9  H   UNL     1     -44.764  54.055 -53.545  1.00  0.00     0.210 HD
ENDBRANCH   7   8
BRANCH   7  10
HETATM   10  C   UNL     1     -42.483  54.294 -52.647  1.00  0.00    -0.028 A 
HETATM   11  C   UNL     1     -43.207  55.028 -51.698  1.00  0.00     0.012 A 
HETATM   12  C   UNL     1     -42.830  55.012 -50.351  1.00  0.00     0.037 A 
HETATM   13  C   UNL     1     -41.736  54.257 -49.925  1.00  0.00     0.068 A 
HETATM   14  C   UNL     1     -41.006  53.530 -50.862  1.00  0.00     0.037 A 
HETATM   15  C   UNL     1     -41.376  53.551 -52.211  1.00  0.00     0.012 A 
BRANCH  13  16
HETATM   16  O   UNL     1     -41.484  54.320 -48.581  1.00  0.00    -0.356 OA
HETATM   17  C   UNL     1     -40.167  53.985 -48.164  1.00  0.00     0.210 C 
ENDBRANCH  13  16
ENDBRANCH   7  10
ENDBRANCH   5   7
ENDBRANCH   2   5
BRANCH   1  18
HETATM   18  C   UNL     1     -43.683  57.348 -57.699  1.00  0.00     0.105 A 
HETATM   19  C   UNL     1     -44.299  58.581 -58.048  1.00  0.00     0.071 A 
HETATM   20  C   UNL     1     -44.216  59.875 -57.322  1.00  0.00     0.073 C 
HETATM   21  N   UNL     1     -45.026  58.491 -59.167  1.00  0.00    -0.170 NA
HETATM   22  N   UNL     1     -44.892  57.208 -59.563  1.00  0.00    -0.225 N 
HETATM   23  C   UNL     1     -44.087  56.470 -58.691  1.00  0.00     0.168 A 
HETATM   24  C   UNL     1     -45.453  56.607 -60.686  1.00  0.00     0.122 A 
HETATM   25  N   UNL     1     -43.826  55.136 -58.900  1.00  0.00    -0.240 NA
HETATM   26  C   UNL     1     -44.363  54.612 -59.962  1.00  0.00     0.120 A 
HETATM   27  C   UNL     1     -45.229  55.313 -60.948  1.00  0.00     0.038 A 
ENDBRANCH   1  18
TORSDOF 6
ENDMDL
MODEL 10
REMARK VINA RESULT:      -7.1      3.138      5.484
REMARK  6 active torsions:
REMARK  status: ('A' for Active; 'I' for Inactive)
REMARK    1  A    between atoms: C_6  and  C_7 
REMARK       I    between atoms: C_7  and  N_8 
REMARK    2  A    between atoms: N_8  and  C_9 
REMARK    3  A    between atoms: C_9  and  C_10 
REMARK    4  A    between atoms: C_10  and  O_11 
REMARK    5  A    between atoms: C_10  and  C_12 
REMARK    6  A    between atoms: C_15  and  O_16 
ROOT
HETATM    1  C   UNL     1     -42.926  57.412 -54.600  1.00  0.00     0.258 C 
HETATM    2  N   UNL     1     -41.956  56.492 -54.907  1.00  0.00    -0.350 N 
HETATM    3  O   UNL     1     -44.085  57.315 -54.988  1.00  0.00    -0.267 OA
HETATM    4  H   UNL     1     -41.041  56.593 -54.470  1.00  0.00     0.163 HD
ENDROOT
BRANCH   2   5
HETATM    5  C   UNL     1     -42.193  55.296 -55.707  1.00  0.00     0.114 C 
HETATM    6  C   UNL     1     -43.019  55.675 -56.938  1.00  0.00     0.035 C 
BRANCH   5   7
HETATM    7  C   UNL     1     -42.906  54.189 -54.880  1.00  0.00     0.173 C 
BRANCH   7   8
HETATM    8  O   UNL     1     -44.277  54.541 -54.648  1.00  0.00    -0.389 OA
HETATM    9  H   UNL     1     -44.767  54.307 -55.456  1.00  0.00     0.210 HD
ENDBRANCH   7   8
BRANCH   7  10
HETATM   10  C   UNL     1     -42.218  53.878 -53.562  1.00  0.00    -0.028 A 
HETATM   11  C   UNL     1     -42.853  54.178 -52.350  1.00  0.00     0.012 A 
HETATM   12  C   UNL     1     -42.235  53.878 -51.132  1.00  0.00     0.037 A 
HETATM   13  C   UNL     1     -40.981  53.267 -51.100  1.00  0.00     0.068 A 
HETATM   14  C   UNL     1     -40.337  52.972 -52.299  1.00  0.00     0.037 A 
HETATM   15  C   UNL     1     -40.950  53.278 -53.519  1.00  0.00     0.012 A 
BRANCH  13  16
HETATM   16  O   UNL     1     -40.496  53.019 -49.844  1.00  0.00    -0.356 OA
HETATM   17  C   UNL     1     -40.817  53.970 -48.838  1.00  0.00     0.210 C 
ENDBRANCH  13  16
ENDBRANCH   7  10
ENDBRANCH   5   7
ENDBRANCH   2   5
BRANCH   1  18
HETATM   18  C   UNL     1     -42.473  58.526 -53.781  1.00  0.00     0.105 A 
HETATM   19  C   UNL     1     -42.489  59.910 -54.105  1.00  0.00     0.071 A 
HETATM   20  C   UNL     1     -42.973  60.543 -55.359  1.00  0.00     0.073 C 
HETATM   21  N   UNL     1     -41.994  60.671 -53.122  1.00  0.00    -0.170 NA
HETATM   22  N   UNL     1     -41.652  59.799 -52.150  1.00  0.00    -0.225 N 
HETATM   23  C   UNL     1     -41.919  58.476 -52.513  1.00  0.00     0.168 A 
HETATM   24  C   UNL     1     -41.095  60.093 -50.910  1.00  0.00     0.122 A 
HETATM   25  N   UNL     1     -41.639  57.424 -51.672  1.00  0.00    -0.240 NA
HETATM   26  C   UNL     1     -41.124  57.739 -50.521  1.00  0.00     0.120 A 
HETATM   27  C   UNL     1     -40.807  59.113 -50.044  1.00  0.00     0.038 A 
ENDBRANCH   1  18
TORSDOF 6
ENDMDL
