MODEL 1
REMARK VINA RESULT:      -8.8      0.000      0.000
REMARK  6 active torsions:
REMARK  status: ('A' for Active; 'I' for Inactive)
REMARK    1  A    between atoms: O_2  and  C_3 
REMARK    2  A    between atoms: C_6  and  C_7 
REMARK    3  A    between atoms: C_12  and  C_13 
REMARK       I    between atoms: C_13  and  N_14 
REMARK    4  A    between atoms: N_14  and  C_15 
REMARK    5  A    between atoms: C_17  and  O_18 
REMARK    6  A    between atoms: C_24  and  C_25 
ROOT
HETATM    1  C   UNL     1     -43.423  54.748 -54.036  1.00  0.00     0.118 C 
HETATM    2  N   UNL     1     -43.381  54.747 -55.495  1.00  0.00    -0.366 N 
HETATM    3  C   UNL     1     -42.991  55.817 -56.216  1.00  0.00     0.123 A 
HETATM    4  N   UNL     1     -42.661  57.004 -55.625  1.00  0.00    -0.240 N 
HETATM    5  N   UNL     1     -42.395  57.995 -56.496  1.00  0.00    -0.165 NA
HETATM    6  C   UNL     1     -42.454  57.378 -57.700  1.00  0.00     0.148 A 
HETATM    7  C   UNL     1     -42.831  56.013 -57.562  1.00  0.00     0.089 A 
HETATM    8  C   UNL     1     -42.643  57.216 -54.191  1.00  0.00     0.221 C 
HETATM    9  C   UNL     1     -43.543  56.183 -53.490  1.00  0.00     0.066 C 
HETATM   10  H   UNL     1     -43.529  53.839 -55.936  1.00  0.00     0.161 HD
ENDROOT
BRANCH   6  11
HETATM   11  C   UNL     1     -42.167  58.087 -58.960  1.00  0.00     0.276 C 
HETATM   12  N   UNL     1     -42.029  59.448 -58.765  1.00  0.00    -0.322 N 
HETATM   13  H   UNL     1     -42.169  59.733 -57.798  1.00  0.00     0.169 HD
HETATM   14  O   UNL     1     -42.084  57.489 -60.027  1.00  0.00    -0.266 OA
BRANCH  12  15
HETATM   15  C   UNL     1     -41.742  60.442 -59.715  1.00  0.00     0.037 A 
HETATM   16  C   UNL     1     -42.051  60.330 -61.073  1.00  0.00     0.066 A 
HETATM   17  C   UNL     1     -41.721  61.366 -61.947  1.00  0.00     0.067 A 
HETATM   18  C   UNL     1     -41.095  62.519 -61.490  1.00  0.00     0.036 A 
HETATM   19  C   UNL     1     -40.784  62.638 -60.138  1.00  0.00     0.005 A 
HETATM   20  C   UNL     1     -41.102  61.601 -59.256  1.00  0.00     0.029 A 
BRANCH  17  21
HETATM   21  O   UNL     1     -42.001  61.283 -63.280  1.00  0.00    -0.361 OA
HETATM   22  H   UNL     1     -41.600  60.467 -63.625  1.00  0.00     0.217 HD
ENDBRANCH  17  21
ENDBRANCH  12  15
ENDBRANCH   6  11
BRANCH   8  23
HETATM   23  C   UNL     1     -41.217  57.236 -53.690  1.00  0.00     0.409 C 
HETATM   24  F   UNL     1     -40.409  56.350 -54.298  1.00  0.00    -0.169 F 
HETATM   25  F   UNL     1     -40.655  58.461 -53.837  1.00  0.00    -0.169 F 
HETATM   26  F   UNL     1     -41.187  56.966 -52.360  1.00  0.00    -0.169 F 
ENDBRANCH   8  23
BRANCH   1  27
HETATM   27  C   UNL     1     -42.317  53.913 -53.414  1.00  0.00    -0.035 A 
HETATM   28  C   UNL     1     -42.055  53.893 -52.036  1.00  0.00     0.012 A 
HETATM   29  C   UNL     1     -41.008  53.128 -51.514  1.00  0.00     0.037 A 
HETATM   30  C   UNL     1     -40.190  52.370 -52.351  1.00  0.00     0.068 A 
HETATM   31  C   UNL     1     -40.428  52.386 -53.723  1.00  0.00     0.037 A 
HETATM   32  C   UNL     1     -41.480  53.150 -54.247  1.00  0.00     0.012 A 
BRANCH  30  33
HETATM   33  O   UNL     1     -39.203  51.675 -51.711  1.00  0.00    -0.356 OA
HETATM   34  C   UNL     1     -39.496  50.334 -51.340  1.00  0.00     0.210 C 
ENDBRANCH  30  33
ENDBRANCH   1  27
TORSDOF 6
ENDMDL
MODEL 2
REMARK VINA RESULT:      -8.6      4.719      8.749
REMARK  6 active torsions:
REMARK  status: ('A' for Active; 'I' for Inactive)
REMARK    1  A    between atoms: O_2  and  C_3 
REMARK    2  A    between atoms: C_6  and  C_7 
REMARK    3  A    between atoms: C_12  and  C_13 
REMARK       I    between atoms: C_13  and  N_14 
REMARK    4  A    between atoms: N_14  and  C_15 
REMARK    5  A    between atoms: C_17  and  O_18 
REMARK    6  A    between atoms: C_24  and  C_25 
ROOT
HETATM    1  C   UNL     1     -43.504  59.914 -53.143  1.00  0.00     0.118 C 
HETATM    2  N   UNL     1     -43.672  58.558 -53.655  1.00  0.00    -0.366 N 
HETATM    3  C   UNL     1     -42.667  57.660 -53.690  1.00  0.00     0.123 A 
HETATM    4  N   UNL     1     -41.398  57.982 -53.296  1.00  0.00    -0.240 N 
HETATM    5  N   UNL     1     -40.498  57.000 -53.492  1.00  0.00    -0.165 NA
HETATM    6  C   UNL     1     -41.253  55.966 -53.932  1.00  0.00     0.148 A 
HETATM    7  C   UNL     1     -42.617  56.346 -54.073  1.00  0.00     0.089 A 
HETATM    8  C   UNL     1     -41.020  59.275 -52.762  1.00  0.00     0.221 C 
HETATM    9  C   UNL     1     -42.028  60.349 -53.208  1.00  0.00     0.066 C 
HETATM   10  H   UNL     1     -44.633  58.282 -53.856  1.00  0.00     0.161 HD
ENDROOT
BRANCH   6  11
HETATM   11  C   UNL     1     -40.676  54.642 -54.224  1.00  0.00     0.276 C 
HETATM   12  N   UNL     1     -40.781  53.785 -53.146  1.00  0.00    -0.322 N 
HETATM   13  H   UNL     1     -41.214  54.214 -52.331  1.00  0.00     0.169 HD
HETATM   14  O   UNL     1     -40.166  54.391 -55.310  1.00  0.00    -0.266 OA
BRANCH  12  15
HETATM   15  C   UNL     1     -40.362  52.447 -53.047  1.00  0.00     0.037 A 
HETATM   16  C   UNL     1     -40.354  51.556 -54.123  1.00  0.00     0.066 A 
HETATM   17  C   UNL     1     -39.928  50.242 -53.931  1.00  0.00     0.067 A 
HETATM   18  C   UNL     1     -39.500  49.800 -52.686  1.00  0.00     0.036 A 
HETATM   19  C   UNL     1     -39.505  50.683 -51.608  1.00  0.00     0.005 A 
HETATM   20  C   UNL     1     -39.938  52.000 -51.789  1.00  0.00     0.029 A 
BRANCH  17  21
HETATM   21  O   UNL     1     -39.918  49.344 -54.960  1.00  0.00    -0.361 OA
HETATM   22  H   UNL     1     -39.091  48.834 -54.910  1.00  0.00     0.217 HD
ENDBRANCH  17  21
ENDBRANCH  12  15
ENDBRANCH   6  11
BRANCH   8  23
HETATM   23  C   UNL     1     -40.838  59.182 -51.264  1.00  0.00     0.409 C 
HETATM   24  F   UNL     1     -41.728  58.381 -50.651  1.00  0.00    -0.169 F 
HETATM   25  F   UNL     1     -39.602  58.731 -50.940  1.00  0.00    -0.169 F 
HETATM   26  F   UNL     1     -40.948  60.413 -50.703  1.00  0.00    -0.169 F 
ENDBRANCH   8  23
BRANCH   1  27
HETATM   27  C   UNL     1     -44.178  60.123 -51.797  1.00  0.00    -0.035 A 
HETATM   28  C   UNL     1     -45.021  59.171 -51.206  1.00  0.00     0.012 A 
HETATM   29  C   UNL     1     -45.639  59.422 -49.978  1.00  0.00     0.037 A 
HETATM   30  C   UNL     1     -45.441  60.630 -49.311  1.00  0.00     0.068 A 
HETATM   31  C   UNL     1     -44.616  61.592 -49.889  1.00  0.00     0.037 A 
HETATM   32  C   UNL     1     -43.993  61.340 -51.118  1.00  0.00     0.012 A 
BRANCH  30  33
HETATM   33  O   UNL     1     -46.108  60.746 -48.124  1.00  0.00    -0.356 OA
HETATM   34  C   UNL     1     -46.495  62.055 -47.727  1.00  0.00     0.210 C 
ENDBRANCH  30  33
ENDBRANCH   1  27
TORSDOF 6
ENDMDL
MODEL 3
REMARK VINA RESULT:      -8.6      5.660      7.417
REMARK  6 active torsions:
REMARK  status: ('A' for Active; 'I' for Inactive)
REMARK    1  A    between atoms: O_2  and  C_3 
REMARK    2  A    between atoms: C_6  and  C_7 
REMARK    3  A    between atoms: C_12  and  C_13 
REMARK       I    between atoms: C_13  and  N_14 
REMARK    4  A    between atoms: N_14  and  C_15 
REMARK    5  A    between atoms: C_17  and  O_18 
REMARK    6  A    between atoms: C_24  and  C_25 
ROOT
HETATM    1  C   UNL     1     -41.634  54.908 -53.998  1.00  0.00     0.118 C 
HETATM    2  N   UNL     1     -40.978  56.152 -53.610  1.00  0.00    -0.366 N 
HETATM    3  C   UNL     1     -41.516  57.019 -52.728  1.00  0.00     0.123 A 
HETATM    4  N   UNL     1     -42.750  56.815 -52.177  1.00  0.00    -0.240 N 
HETATM    5  N   UNL     1     -43.178  57.826 -51.398  1.00  0.00    -0.165 NA
HETATM    6  C   UNL     1     -42.116  58.666 -51.367  1.00  0.00     0.148 A 
HETATM    7  C   UNL     1     -41.060  58.194 -52.194  1.00  0.00     0.089 A 
HETATM    8  C   UNL     1     -43.568  55.646 -52.436  1.00  0.00     0.221 C 
HETATM    9  C   UNL     1     -43.155  54.992 -53.766  1.00  0.00     0.066 C 
HETATM   10  H   UNL     1     -40.019  56.262 -53.938  1.00  0.00     0.161 HD
ENDROOT
BRANCH   6  11
HETATM   11  C   UNL     1     -42.121  59.905 -50.568  1.00  0.00     0.276 C 
HETATM   12  N   UNL     1     -43.404  60.338 -50.296  1.00  0.00    -0.322 N 
HETATM   13  H   UNL     1     -44.124  59.748 -50.707  1.00  0.00     0.169 HD
HETATM   14  O   UNL     1     -41.077  60.449 -50.225  1.00  0.00    -0.266 OA
BRANCH  12  15
HETATM   15  C   UNL     1     -43.809  61.463 -49.558  1.00  0.00     0.037 A 
HETATM   16  C   UNL     1     -44.560  61.389 -48.382  1.00  0.00     0.066 A 
HETATM   17  C   UNL     1     -44.925  62.560 -47.718  1.00  0.00     0.067 A 
HETATM   18  C   UNL     1     -44.548  63.806 -48.201  1.00  0.00     0.036 A 
HETATM   19  C   UNL     1     -43.799  63.888 -49.373  1.00  0.00     0.005 A 
HETATM   20  C   UNL     1     -43.436  62.720 -50.049  1.00  0.00     0.029 A 
BRANCH  17  21
HETATM   21  O   UNL     1     -45.667  62.522 -46.573  1.00  0.00    -0.361 OA
HETATM   22  H   UNL     1     -45.359  63.234 -45.987  1.00  0.00     0.217 HD
ENDBRANCH  17  21
ENDBRANCH  12  15
ENDBRANCH   6  11
BRANCH   8  23
HETATM   23  C   UNL     1     -43.524  54.712 -51.247  1.00  0.00     0.409 C 
HETATM   24  F   UNL     1     -43.601  53.409 -51.569  1.00  0.00    -0.169 F 
HETATM   25  F   UNL     1     -42.392  54.882 -50.523  1.00  0.00    -0.169 F 
HETATM   26  F   UNL     1     -44.554  54.982 -50.405  1.00  0.00    -0.169 F 
ENDBRANCH   8  23
BRANCH   1  27
HETATM   27  C   UNL     1     -40.961  53.679 -53.413  1.00  0.00    -0.035 A 
HETATM   28  C   UNL     1     -40.370  53.661 -52.141  1.00  0.00     0.012 A 
HETATM   29  C   UNL     1     -39.738  52.511 -51.657  1.00  0.00     0.037 A 
HETATM   30  C   UNL     1     -39.673  51.353 -52.430  1.00  0.00     0.068 A 
HETATM   31  C   UNL     1     -40.245  51.356 -53.701  1.00  0.00     0.037 A 
HETATM   32  C   UNL     1     -40.881  52.506 -54.184  1.00  0.00     0.012 A 
BRANCH  30  33
HETATM   33  O   UNL     1     -39.024  50.306 -51.839  1.00  0.00    -0.356 OA
HETATM   34  C   UNL     1     -39.667  49.691 -50.731  1.00  0.00     0.210 C 
ENDBRANCH  30  33
ENDBRANCH   1  27
TORSDOF 6
ENDMDL
MODEL 4
REMARK VINA RESULT:      -8.6      5.247      7.699
REMARK  6 active torsions:
REMARK  status: ('A' for Active; 'I' for Inactive)
REMARK    1  A    between atoms: O_2  and  C_3 
REMARK    2  A    between atoms: C_6  and  C_7 
REMARK    3  A    between atoms: C_12  and  C_13 
REMARK       I    between atoms: C_13  and  N_14 
REMARK    4  A    between atoms: N_14  and  C_15 
REMARK    5  A    between atoms: C_17  and  O_18 
REMARK    6  A    between atoms: C_24  and  C_25 
ROOT
HETATM    1  C   UNL     1     -40.788  55.911 -53.843  1.00  0.00     0.118 C 
HETATM    2  N   UNL     1     -41.077  56.699 -52.649  1.00  0.00    -0.366 N 
HETATM    3  C   UNL     1     -42.310  57.161 -52.360  1.00  0.00     0.123 A 
HETATM    4  N   UNL     1     -43.369  56.968 -53.202  1.00  0.00    -0.240 N 
HETATM    5  N   UNL     1     -44.501  57.582 -52.809  1.00  0.00    -0.165 NA
HETATM    6  C   UNL     1     -44.173  58.100 -51.602  1.00  0.00     0.148 A 
HETATM    7  C   UNL     1     -42.806  57.860 -51.292  1.00  0.00     0.089 A 
HETATM    8  C   UNL     1     -43.292  56.218 -54.440  1.00  0.00     0.221 C 
HETATM    9  C   UNL     1     -41.838  56.167 -54.941  1.00  0.00     0.066 C 
HETATM   10  H   UNL     1     -40.318  56.760 -51.972  1.00  0.00     0.161 HD
ENDROOT
BRANCH   6  11
HETATM   11  C   UNL     1     -45.149  58.825 -50.768  1.00  0.00     0.276 C 
HETATM   12  N   UNL     1     -44.621  59.994 -50.257  1.00  0.00    -0.322 N 
HETATM   13  H   UNL     1     -43.650  60.147 -50.519  1.00  0.00     0.169 HD
HETATM   14  O   UNL     1     -46.278  58.387 -50.578  1.00  0.00    -0.266 OA
BRANCH  12  15
HETATM   15  C   UNL     1     -45.245  60.949 -49.436  1.00  0.00     0.037 A 
HETATM   16  C   UNL     1     -45.018  61.058 -48.062  1.00  0.00     0.066 A 
HETATM   17  C   UNL     1     -45.688  62.034 -47.324  1.00  0.00     0.067 A 
HETATM   18  C   UNL     1     -46.578  62.910 -47.932  1.00  0.00     0.036 A 
HETATM   19  C   UNL     1     -46.810  62.807 -49.302  1.00  0.00     0.005 A 
HETATM   20  C   UNL     1     -46.149  61.827 -50.048  1.00  0.00     0.029 A 
BRANCH  17  21
HETATM   21  O   UNL     1     -45.495  62.160 -45.978  1.00  0.00    -0.361 OA
HETATM   22  H   UNL     1     -44.565  62.402 -45.825  1.00  0.00     0.217 HD
ENDBRANCH  17  21
ENDBRANCH  12  15
ENDBRANCH   6  11
BRANCH   8  23
HETATM   23  C   UNL     1     -43.934  54.861 -54.263  1.00  0.00     0.409 C 
HETATM   24  F   UNL     1     -43.698  54.294 -53.066  1.00  0.00    -0.169 F 
HETATM   25  F   UNL     1     -45.278  54.921 -54.422  1.00  0.00    -0.169 F 
HETATM   26  F   UNL     1     -43.481  54.003 -55.212  1.00  0.00    -0.169 F 
ENDBRANCH   8  23
BRANCH   1  27
HETATM   27  C   UNL     1     -40.524  54.447 -53.534  1.00  0.00    -0.035 A 
HETATM   28  C   UNL     1     -40.448  53.941 -52.228  1.00  0.00     0.012 A 
HETATM   29  C   UNL     1     -40.177  52.590 -51.995  1.00  0.00     0.037 A 
HETATM   30  C   UNL     1     -39.966  51.710 -53.055  1.00  0.00     0.068 A 
HETATM   31  C   UNL     1     -40.027  52.196 -54.359  1.00  0.00     0.037 A 
HETATM   32  C   UNL     1     -40.302  53.550 -54.594  1.00  0.00     0.012 A 
BRANCH  30  33
HETATM   33  O   UNL     1     -39.706  50.420 -52.686  1.00  0.00    -0.356 OA
HETATM   34  C   UNL     1     -39.459  50.181 -51.307  1.00  0.00     0.210 C 
ENDBRANCH  30  33
ENDBRANCH   1  27
TORSDOF 6
ENDMDL
MODEL 5
REMARK VINA RESULT:      -8.4      1.213      1.637
REMARK  6 active torsions:
REMARK  status: ('A' for Active; 'I' for Inactive)
REMARK    1  A    between atoms: O_2  and  C_3 
REMARK    2  A    between atoms: C_6  and  C_7 
REMARK    3  A    between atoms: C_12  and  C_13 
REMARK       I    between atoms: C_13  and  N_14 
REMARK    4  A    between atoms: N_14  and  C_15 
REMARK    5  A    between atoms: C_17  and  O_18 
REMARK    6  A    between atoms: C_24  and  C_25 
ROOT
HETATM    1  C   UNL     1     -43.320  54.958 -53.972  1.00  0.00     0.118 C 
HETATM    2  N   UNL     1     -43.299  55.160 -55.417  1.00  0.00    -0.366 N 
HETATM    3  C   UNL     1     -42.894  56.313 -55.988  1.00  0.00     0.123 A 
HETATM    4  N   UNL     1     -42.526  57.397 -55.242  1.00  0.00    -0.240 N 
HETATM    5  N   UNL     1     -42.249  58.495 -55.970  1.00  0.00    -0.165 NA
HETATM    6  C   UNL     1     -42.340  58.055 -57.247  1.00  0.00     0.148 A 
HETATM    7  C   UNL     1     -42.748  56.693 -57.295  1.00  0.00     0.089 A 
HETATM    8  C   UNL     1     -42.483  57.406 -53.793  1.00  0.00     0.221 C 
HETATM    9  C   UNL     1     -43.398  56.304 -53.228  1.00  0.00     0.066 C 
HETATM   10  H   UNL     1     -43.475  54.327 -55.978  1.00  0.00     0.161 HD
ENDROOT
BRANCH   6  11
HETATM   11  C   UNL     1     -42.054  58.927 -58.400  1.00  0.00     0.276 C 
HETATM   12  N   UNL     1     -41.799  60.228 -58.010  1.00  0.00    -0.322 N 
HETATM   13  H   UNL     1     -41.872  60.370 -57.005  1.00  0.00     0.169 HD
HETATM   14  O   UNL     1     -42.067  58.497 -59.548  1.00  0.00    -0.266 OA
BRANCH  12  15
HETATM   15  C   UNL     1     -41.476  61.334 -58.814  1.00  0.00     0.037 A 
HETATM   16  C   UNL     1     -40.239  61.983 -58.780  1.00  0.00     0.066 A 
HETATM   17  C   UNL     1     -40.009  63.080 -59.610  1.00  0.00     0.067 A 
HETATM   18  C   UNL     1     -40.988  63.539 -60.482  1.00  0.00     0.036 A 
HETATM   19  C   UNL     1     -42.224  62.898 -60.521  1.00  0.00     0.005 A 
HETATM   20  C   UNL     1     -42.466  61.802 -59.687  1.00  0.00     0.029 A 
BRANCH  17  21
HETATM   21  O   UNL     1     -38.815  63.742 -59.593  1.00  0.00    -0.361 OA
HETATM   22  H   UNL     1     -38.796  64.317 -58.809  1.00  0.00     0.217 HD
ENDBRANCH  17  21
ENDBRANCH  12  15
ENDBRANCH   6  11
BRANCH   8  23
HETATM   23  C   UNL     1     -41.050  57.324 -53.319  1.00  0.00     0.409 C 
HETATM   24  F   UNL     1     -40.384  58.491 -53.376  1.00  0.00    -0.169 F 
HETATM   25  F   UNL     1     -40.973  56.878 -52.041  1.00  0.00    -0.169 F 
HETATM   26  F   UNL     1     -40.361  56.428 -54.071  1.00  0.00    -0.169 F 
ENDBRANCH   8  23
BRANCH   1  27
HETATM   27  C   UNL     1     -42.225  54.019 -53.492  1.00  0.00    -0.035 A 
HETATM   28  C   UNL     1     -41.884  53.868 -52.140  1.00  0.00     0.012 A 
HETATM   29  C   UNL     1     -40.851  53.011 -51.751  1.00  0.00     0.037 A 
HETATM   30  C   UNL     1     -40.126  52.289 -52.698  1.00  0.00     0.068 A 
HETATM   31  C   UNL     1     -40.444  52.435 -54.046  1.00  0.00     0.037 A 
HETATM   32  C   UNL     1     -41.482  53.291 -54.437  1.00  0.00     0.012 A 
BRANCH  30  33
HETATM   33  O   UNL     1     -39.142  51.494 -52.182  1.00  0.00    -0.356 OA
HETATM   34  C   UNL     1     -39.551  50.434 -51.327  1.00  0.00     0.210 C 
ENDBRANCH  30  33
ENDBRANCH   1  27
TORSDOF 6
ENDMDL
MODEL 6
REMARK VINA RESULT:      -8.4      2.701      9.302
REMARK  6 active torsions:
REMARK  status: ('A' for Active; 'I' for Inactive)
REMARK    1  A    between atoms: O_2  and  C_3 
REMARK    2  A    between atoms: C_6  and  C_7 
REMARK    3  A    between atoms: C_12  and  C_13 
REMARK       I    between atoms: C_13  and  N_14 
REMARK    4  A    between atoms: N_14  and  C_15 
REMARK    5  A    between atoms: C_17  and  O_18 
REMARK    6  A    between atoms: C_24  and  C_25 
ROOT
HETATM    1  C   UNL     1     -43.923  59.960 -58.600  1.00  0.00     0.118 C 
HETATM    2  N   UNL     1     -43.833  59.516 -57.213  1.00  0.00    -0.366 N 
HETATM    3  C   UNL     1     -43.556  58.242 -56.870  1.00  0.00     0.123 A 
HETATM    4  N   UNL     1     -43.397  57.261 -57.807  1.00  0.00    -0.240 N 
HETATM    5  N   UNL     1     -43.228  56.030 -57.289  1.00  0.00    -0.165 NA
HETATM    6  C   UNL     1     -43.169  56.257 -55.956  1.00  0.00     0.148 A 
HETATM    7  C   UNL     1     -43.376  57.632 -55.657  1.00  0.00     0.089 A 
HETATM    8  C   UNL     1     -43.454  57.491 -59.238  1.00  0.00     0.221 C 
HETATM    9  C   UNL     1     -44.241  58.779 -59.537  1.00  0.00     0.066 C 
HETATM   10  H   UNL     1     -43.851  60.259 -56.514  1.00  0.00     0.161 HD
ENDROOT
BRANCH   6  11
HETATM   11  C   UNL     1     -42.931  55.173 -54.985  1.00  0.00     0.276 C 
HETATM   12  N   UNL     1     -41.584  54.913 -54.825  1.00  0.00    -0.322 N 
HETATM   13  H   UNL     1     -40.988  55.490 -55.414  1.00  0.00     0.169 HD
HETATM   14  O   UNL     1     -43.858  54.600 -54.426  1.00  0.00    -0.266 OA
BRANCH  12  15
HETATM   15  C   UNL     1     -40.970  53.969 -53.984  1.00  0.00     0.037 A 
HETATM   16  C   UNL     1     -40.837  54.131 -52.603  1.00  0.00     0.066 A 
HETATM   17  C   UNL     1     -40.205  53.143 -51.847  1.00  0.00     0.067 A 
HETATM   18  C   UNL     1     -39.710  51.990 -52.442  1.00  0.00     0.036 A 
HETATM   19  C   UNL     1     -39.839  51.822 -53.819  1.00  0.00     0.005 A 
HETATM   20  C   UNL     1     -40.463  52.809 -54.586  1.00  0.00     0.029 A 
BRANCH  17  21
HETATM   21  O   UNL     1     -40.051  53.276 -50.497  1.00  0.00    -0.361 OA
HETATM   22  H   UNL     1     -40.675  53.954 -50.184  1.00  0.00     0.217 HD
ENDBRANCH  17  21
ENDBRANCH  12  15
ENDBRANCH   6  11
BRANCH   8  23
HETATM   23  C   UNL     1     -42.059  57.468 -59.820  1.00  0.00     0.409 C 
HETATM   24  F   UNL     1     -41.917  58.206 -60.935  1.00  0.00    -0.169 F 
HETATM   25  F   UNL     1     -41.140  57.907 -58.927  1.00  0.00    -0.169 F 
HETATM   26  F   UNL     1     -41.705  56.195 -60.130  1.00  0.00    -0.169 F 
ENDBRANCH   8  23
BRANCH   1  27
HETATM   27  C   UNL     1     -42.743  60.818 -59.023  1.00  0.00    -0.035 A 
HETATM   28  C   UNL     1     -42.568  61.289 -60.333  1.00  0.00     0.012 A 
HETATM   29  C   UNL     1     -41.451  62.054 -60.679  1.00  0.00     0.037 A 
HETATM   30  C   UNL     1     -40.475  62.363 -59.732  1.00  0.00     0.068 A 
HETATM   31  C   UNL     1     -40.627  61.895 -58.429  1.00  0.00     0.037 A 
HETATM   32  C   UNL     1     -41.748  61.132 -58.080  1.00  0.00     0.012 A 
BRANCH  30  33
HETATM   33  O   UNL     1     -39.435  63.112 -60.205  1.00  0.00    -0.356 OA
HETATM   34  C   UNL     1     -39.313  63.228 -61.616  1.00  0.00     0.210 C 
ENDBRANCH  30  33
ENDBRANCH   1  27
TORSDOF 6
ENDMDL
MODEL 7
REMARK VINA RESULT:      -8.1      5.054      9.400
REMARK  6 active torsions:
REMARK  status: ('A' for Active; 'I' for Inactive)
REMARK    1  A    between atoms: O_2  and  C_3 
REMARK    2  A    between atoms: C_6  and  C_7 
REMARK    3  A    between atoms: C_12  and  C_13 
REMARK       I    between atoms: C_13  and  N_14 
REMARK    4  A    between atoms: N_14  and  C_15 
REMARK    5  A    between atoms: C_17  and  O_18 
REMARK    6  A    between atoms: C_24  and  C_25 
ROOT
HETATM    1  C   UNL     1     -43.185  59.625 -53.933  1.00  0.00     0.118 C 
HETATM    2  N   UNL     1     -43.496  58.204 -54.044  1.00  0.00    -0.366 N 
HETATM    3  C   UNL     1     -42.814  57.252 -53.375  1.00  0.00     0.123 A 
HETATM    4  N   UNL     1     -41.740  57.553 -52.586  1.00  0.00    -0.240 N 
HETATM    5  N   UNL     1     -41.115  56.476 -52.076  1.00  0.00    -0.165 NA
HETATM    6  C   UNL     1     -41.896  55.444 -52.473  1.00  0.00     0.148 A 
HETATM    7  C   UNL     1     -42.967  55.894 -53.294  1.00  0.00     0.089 A 
HETATM    8  C   UNL     1     -41.265  58.902 -52.347  1.00  0.00     0.221 C 
HETATM    9  C   UNL     1     -41.728  59.836 -53.479  1.00  0.00     0.066 C 
HETATM   10  H   UNL     1     -44.353  57.982 -54.549  1.00  0.00     0.161 HD
ENDROOT
BRANCH   6  11
HETATM   11  C   UNL     1     -41.612  54.051 -52.084  1.00  0.00     0.276 C 
HETATM   12  N   UNL     1     -40.825  53.405 -53.017  1.00  0.00    -0.322 N 
HETATM   13  H   UNL     1     -40.594  53.986 -53.820  1.00  0.00     0.169 HD
HETATM   14  O   UNL     1     -42.059  53.572 -51.047  1.00  0.00    -0.266 OA
BRANCH  12  15
HETATM   15  C   UNL     1     -40.339  52.087 -52.990  1.00  0.00     0.037 A 
HETATM   16  C   UNL     1     -39.910  51.443 -51.827  1.00  0.00     0.066 A 
HETATM   17  C   UNL     1     -39.435  50.133 -51.895  1.00  0.00     0.067 A 
HETATM   18  C   UNL     1     -39.388  49.448 -53.103  1.00  0.00     0.036 A 
HETATM   19  C   UNL     1     -39.814  50.084 -54.267  1.00  0.00     0.005 A 
HETATM   20  C   UNL     1     -40.283  51.400 -54.209  1.00  0.00     0.029 A 
BRANCH  17  21
HETATM   21  O   UNL     1     -39.000  49.479 -50.779  1.00  0.00    -0.361 OA
HETATM   22  H   UNL     1     -38.836  48.550 -51.014  1.00  0.00     0.217 HD
ENDBRANCH  17  21
ENDBRANCH  12  15
ENDBRANCH   6  11
BRANCH   8  23
HETATM   23  C   UNL     1     -41.673  59.356 -50.964  1.00  0.00     0.409 C 
HETATM   24  F   UNL     1     -42.889  58.928 -50.581  1.00  0.00    -0.169 F 
HETATM   25  F   UNL     1     -40.787  58.944 -50.024  1.00  0.00    -0.169 F 
HETATM   26  F   UNL     1     -41.683  60.712 -50.902  1.00  0.00    -0.169 F 
ENDBRANCH   8  23
BRANCH   1  27
HETATM   27  C   UNL     1     -44.225  60.396 -53.138  1.00  0.00    -0.035 A 
HETATM   28  C   UNL     1     -44.090  61.754 -52.814  1.00  0.00     0.012 A 
HETATM   29  C   UNL     1     -45.063  62.413 -52.057  1.00  0.00     0.037 A 
HETATM   30  C   UNL     1     -46.192  61.735 -51.599  1.00  0.00     0.068 A 
HETATM   31  C   UNL     1     -46.338  60.384 -51.903  1.00  0.00     0.037 A 
HETATM   32  C   UNL     1     -45.365  59.723 -52.664  1.00  0.00     0.012 A 
BRANCH  30  33
HETATM   33  O   UNL     1     -47.060  62.496 -50.868  1.00  0.00    -0.356 OA
HETATM   34  C   UNL     1     -46.707  62.759 -49.516  1.00  0.00     0.210 C 
ENDBRANCH  30  33
ENDBRANCH   1  27
TORSDOF 6
ENDMDL
MODEL 8
REMARK VINA RESULT:      -8.0      4.693      9.270
REMARK  6 active torsions:
REMARK  status: ('A' for Active; 'I' for Inactive)
REMARK    1  A    between atoms: O_2  and  C_3 
REMARK    2  A    between atoms: C_6  and  C_7 
REMARK    3  A    between atoms: C_12  and  C_13 
REMARK       I    between atoms: C_13  and  N_14 
REMARK    4  A    between atoms: N_14  and  C_15 
REMARK    5  A    between atoms: C_17  and  O_18 
REMARK    6  A    between atoms: C_24  and  C_25 
ROOT
HETATM    1  C   UNL     1     -42.374  60.190 -52.454  1.00  0.00     0.118 C 
HETATM    2  N   UNL     1     -41.599  59.385 -53.393  1.00  0.00    -0.366 N 
HETATM    3  C   UNL     1     -41.478  58.047 -53.282  1.00  0.00     0.123 A 
HETATM    4  N   UNL     1     -42.030  57.356 -52.241  1.00  0.00    -0.240 N 
HETATM    5  N   UNL     1     -41.726  56.045 -52.230  1.00  0.00    -0.165 NA
HETATM    6  C   UNL     1     -41.035  55.875 -53.381  1.00  0.00     0.148 A 
HETATM    7  C   UNL     1     -40.856  57.110 -54.063  1.00  0.00     0.089 A 
HETATM    8  C   UNL     1     -42.832  57.968 -51.199  1.00  0.00     0.221 C 
HETATM    9  C   UNL     1     -42.517  59.471 -51.099  1.00  0.00     0.066 C 
HETATM   10  H   UNL     1     -41.270  59.878 -54.223  1.00  0.00     0.161 HD
ENDROOT
BRANCH   6  11
HETATM   11  C   UNL     1     -40.544  54.554 -53.814  1.00  0.00     0.276 C 
HETATM   12  N   UNL     1     -40.608  53.623 -52.795  1.00  0.00    -0.322 N 
HETATM   13  H   UNL     1     -40.958  54.006 -51.920  1.00  0.00     0.169 HD
HETATM   14  O   UNL     1     -40.130  54.365 -54.952  1.00  0.00    -0.266 OA
BRANCH  12  15
HETATM   15  C   UNL     1     -40.245  52.265 -52.827  1.00  0.00     0.037 A 
HETATM   16  C   UNL     1     -40.274  51.483 -53.984  1.00  0.00     0.066 A 
HETATM   17  C   UNL     1     -39.903  50.139 -53.921  1.00  0.00     0.067 A 
HETATM   18  C   UNL     1     -39.496  49.562 -52.725  1.00  0.00     0.036 A 
HETATM   19  C   UNL     1     -39.466  50.336 -51.568  1.00  0.00     0.005 A 
HETATM   20  C   UNL     1     -39.844  51.680 -51.619  1.00  0.00     0.029 A 
BRANCH  17  21
HETATM   21  O   UNL     1     -39.929  49.345 -55.032  1.00  0.00    -0.361 OA
HETATM   22  H   UNL     1     -39.506  49.829 -55.762  1.00  0.00     0.217 HD
ENDBRANCH  17  21
ENDBRANCH  12  15
ENDBRANCH   6  11
BRANCH   8  23
HETATM   23  C   UNL     1     -44.294  57.655 -51.423  1.00  0.00     0.409 C 
HETATM   24  F   UNL     1     -44.632  57.501 -52.715  1.00  0.00    -0.169 F 
HETATM   25  F   UNL     1     -44.667  56.526 -50.772  1.00  0.00    -0.169 F 
HETATM   26  F   UNL     1     -45.066  58.652 -50.919  1.00  0.00    -0.169 F 
ENDBRANCH   8  23
BRANCH   1  27
HETATM   27  C   UNL     1     -43.674  60.704 -53.050  1.00  0.00    -0.035 A 
HETATM   28  C   UNL     1     -44.149  60.308 -54.308  1.00  0.00     0.012 A 
HETATM   29  C   UNL     1     -45.338  60.830 -54.825  1.00  0.00     0.037 A 
HETATM   30  C   UNL     1     -46.080  61.765 -54.105  1.00  0.00     0.068 A 
HETATM   31  C   UNL     1     -45.618  62.179 -52.858  1.00  0.00     0.037 A 
HETATM   32  C   UNL     1     -44.428  61.653 -52.338  1.00  0.00     0.012 A 
BRANCH  30  33
HETATM   33  O   UNL     1     -47.218  62.196 -54.728  1.00  0.00    -0.356 OA
HETATM   34  C   UNL     1     -47.400  63.602 -54.837  1.00  0.00     0.210 C 
ENDBRANCH  30  33
ENDBRANCH   1  27
TORSDOF 6
ENDMDL
MODEL 9
REMARK VINA RESULT:      -8.0      1.769      2.118
REMARK  6 active torsions:
REMARK  status: ('A' for Active; 'I' for Inactive)
REMARK    1  A    between atoms: O_2  and  C_3 
REMARK    2  A    between atoms: C_6  and  C_7 
REMARK    3  A    between atoms: C_12  and  C_13 
REMARK       I    between atoms: C_13  and  N_14 
REMARK    4  A    between atoms: N_14  and  C_15 
REMARK    5  A    between atoms: C_17  and  O_18 
REMARK    6  A    between atoms: C_24  and  C_25 
ROOT
HETATM    1  C   UNL     1     -43.513  55.329 -52.277  1.00  0.00     0.118 C 
HETATM    2  N   UNL     1     -43.809  55.715 -53.653  1.00  0.00    -0.366 N 
HETATM    3  C   UNL     1     -43.513  56.932 -54.151  1.00  0.00     0.123 A 
HETATM    4  N   UNL     1     -42.962  57.914 -53.376  1.00  0.00    -0.240 N 
HETATM    5  N   UNL     1     -42.826  59.097 -54.004  1.00  0.00    -0.165 NA
HETATM    6  C   UNL     1     -43.210  58.823 -55.273  1.00  0.00     0.148 A 
HETATM    7  C   UNL     1     -43.652  57.477 -55.399  1.00  0.00     0.089 A 
HETATM    8  C   UNL     1     -42.597  57.737 -51.984  1.00  0.00     0.221 C 
HETATM    9  C   UNL     1     -43.390  56.569 -51.372  1.00  0.00     0.066 C 
HETATM   10  H   UNL     1     -44.127  54.960 -54.260  1.00  0.00     0.161 HD
ENDROOT
BRANCH   6  11
HETATM   11  C   UNL     1     -43.166  59.837 -56.342  1.00  0.00     0.276 C 
HETATM   12  N   UNL     1     -42.158  59.583 -57.251  1.00  0.00    -0.322 N 
HETATM   13  H   UNL     1     -41.604  58.761 -57.021  1.00  0.00     0.169 HD
HETATM   14  O   UNL     1     -43.951  60.778 -56.364  1.00  0.00    -0.266 OA
BRANCH  12  15
HETATM   15  C   UNL     1     -41.815  60.312 -58.403  1.00  0.00     0.037 A 
HETATM   16  C   UNL     1     -42.085  59.879 -59.703  1.00  0.00     0.066 A 
HETATM   17  C   UNL     1     -41.701  60.666 -60.789  1.00  0.00     0.067 A 
HETATM   18  C   UNL     1     -41.058  61.883 -60.603  1.00  0.00     0.036 A 
HETATM   19  C   UNL     1     -40.785  62.321 -59.309  1.00  0.00     0.005 A 
HETATM   20  C   UNL     1     -41.158  61.536 -58.215  1.00  0.00     0.029 A 
BRANCH  17  21
HETATM   21  O   UNL     1     -41.942  60.267 -62.072  1.00  0.00    -0.361 OA
HETATM   22  H   UNL     1     -41.670  60.983 -62.671  1.00  0.00     0.217 HD
ENDBRANCH  17  21
ENDBRANCH  12  15
ENDBRANCH   6  11
BRANCH   8  23
HETATM   23  C   UNL     1     -41.097  57.600 -51.857  1.00  0.00     0.409 C 
HETATM   24  F   UNL     1     -40.440  58.773 -51.809  1.00  0.00    -0.169 F 
HETATM   25  F   UNL     1     -40.753  56.901 -50.749  1.00  0.00    -0.169 F 
HETATM   26  F   UNL     1     -40.602  56.902 -52.911  1.00  0.00    -0.169 F 
ENDBRANCH   8  23
BRANCH   1  27
HETATM   27  C   UNL     1     -42.364  54.341 -52.176  1.00  0.00    -0.035 A 
HETATM   28  C   UNL     1     -41.837  53.902 -50.953  1.00  0.00     0.012 A 
HETATM   29  C   UNL     1     -40.760  53.012 -50.912  1.00  0.00     0.037 A 
HETATM   30  C   UNL     1     -40.176  52.542 -52.088  1.00  0.00     0.068 A 
HETATM   31  C   UNL     1     -40.679  52.976 -53.312  1.00  0.00     0.037 A 
HETATM   32  C   UNL     1     -41.760  53.866 -53.354  1.00  0.00     0.012 A 
BRANCH  30  33
HETATM   33  O   UNL     1     -39.130  51.682 -51.904  1.00  0.00    -0.356 OA
HETATM   34  C   UNL     1     -39.440  50.384 -51.416  1.00  0.00     0.210 C 
ENDBRANCH  30  33
ENDBRANCH   1  27
TORSDOF 6
ENDMDL
MODEL 10
REMARK VINA RESULT:      -8.0      1.655      1.994
REMARK  6 active torsions:
REMARK  status: ('A' for Active; 'I' for Inactive)
REMARK    1  A    between atoms: O_2  and  C_3 
REMARK    2  A    between atoms: C_6  and  C_7 
REMARK    3  A    between atoms: C_12  and  C_13 
REMARK       I    between atoms: C_13  and  N_14 
REMARK    4  A    between atoms: N_14  and  C_15 
REMARK    5  A    between atoms: C_17  and  O_18 
REMARK    6  A    between atoms: C_24  and  C_25 
ROOT
HETATM    1  C   UNL     1     -43.495  55.200 -53.331  1.00  0.00     0.118 C 
HETATM    2  N   UNL     1     -43.917  55.572 -54.677  1.00  0.00    -0.366 N 
HETATM    3  C   UNL     1     -43.671  56.785 -55.212  1.00  0.00     0.123 A 
HETATM    4  N   UNL     1     -43.053  57.775 -54.500  1.00  0.00    -0.240 N 
HETATM    5  N   UNL     1     -42.978  58.952 -55.150  1.00  0.00    -0.165 NA
HETATM    6  C   UNL     1     -43.477  58.665 -56.375  1.00  0.00     0.148 A 
HETATM    7  C   UNL     1     -43.926  57.317 -56.447  1.00  0.00     0.089 A 
HETATM    8  C   UNL     1     -42.560  57.612 -53.146  1.00  0.00     0.221 C 
HETATM    9  C   UNL     1     -43.291  56.449 -52.452  1.00  0.00     0.066 C 
HETATM   10  H   UNL     1     -44.288  54.811 -55.245  1.00  0.00     0.161 HD
ENDROOT
BRANCH   6  11
HETATM   11  C   UNL     1     -43.534  59.669 -57.453  1.00  0.00     0.276 C 
HETATM   12  N   UNL     1     -43.144  59.141 -58.669  1.00  0.00    -0.322 N 
HETATM   13  H   UNL     1     -42.863  58.165 -58.614  1.00  0.00     0.169 HD
HETATM   14  O   UNL     1     -43.884  60.823 -57.236  1.00  0.00    -0.266 OA
BRANCH  12  15
HETATM   15  C   UNL     1     -43.080  59.780 -59.919  1.00  0.00     0.037 A 
HETATM   16  C   UNL     1     -44.154  59.848 -60.810  1.00  0.00     0.066 A 
HETATM   17  C   UNL     1     -43.998  60.497 -62.035  1.00  0.00     0.067 A 
HETATM   18  C   UNL     1     -42.791  61.088 -62.386  1.00  0.00     0.036 A 
HETATM   19  C   UNL     1     -41.715  61.023 -61.503  1.00  0.00     0.005 A 
HETATM   20  C   UNL     1     -41.860  60.368 -60.277  1.00  0.00     0.029 A 
BRANCH  17  21
HETATM   21  O   UNL     1     -45.024  60.573 -62.932  1.00  0.00    -0.361 OA
HETATM   22  H   UNL     1     -45.380  59.677 -63.064  1.00  0.00     0.217 HD
ENDBRANCH  17  21
ENDBRANCH  12  15
ENDBRANCH   6  11
BRANCH   8  23
HETATM   23  C   UNL     1     -41.055  57.478 -53.157  1.00  0.00     0.409 C 
HETATM   24  F   UNL     1     -40.581  56.677 -54.128  1.00  0.00    -0.169 F 
HETATM   25  F   UNL     1     -40.450  58.683 -53.298  1.00  0.00    -0.169 F 
HETATM   26  F   UNL     1     -40.623  56.977 -51.972  1.00  0.00    -0.169 F 
ENDBRANCH   8  23
BRANCH   1  27
HETATM   27  C   UNL     1     -42.338  54.215 -53.326  1.00  0.00    -0.035 A 
HETATM   28  C   UNL     1     -41.886  53.559 -54.481  1.00  0.00     0.012 A 
HETATM   29  C   UNL     1     -40.835  52.640 -54.421  1.00  0.00     0.037 A 
HETATM   30  C   UNL     1     -40.212  52.345 -53.209  1.00  0.00     0.068 A 
HETATM   31  C   UNL     1     -40.654  52.979 -52.050  1.00  0.00     0.037 A 
HETATM   32  C   UNL     1     -41.706  53.903 -52.110  1.00  0.00     0.012 A 
BRANCH  30  33
HETATM   33  O   UNL     1     -39.203  51.427 -53.292  1.00  0.00    -0.356 OA
HETATM   34  C   UNL     1     -39.460  50.252 -54.050  1.00  0.00     0.210 C 
ENDBRANCH  30  33
ENDBRANCH   1  27
TORSDOF 6
ENDMDL
