MODEL 1
REMARK VINA RESULT:      -8.1      0.000      0.000
REMARK  8 active torsions:
REMARK  status: ('A' for Active; 'I' for Inactive)
REMARK    1  A    between atoms: C_5  and  C_6 
REMARK    2  A    between atoms: N_7  and  N_8 
REMARK       I    between atoms: N_8  and  C_9 
REMARK    3  A    between atoms: C_9  and  C_10 
REMARK    4  A    between atoms: N_13  and  C_14 
REMARK    5  A    between atoms: C_18  and  N_19 
REMARK    6  A    between atoms: C_20  and  C_21 
REMARK    7  A    between atoms: C_21  and  N_22 
REMARK    8  A    between atoms: C_30  and  O_31 
ROOT
HETATM    1  C   UNL     1     -44.752  58.144 -51.587  1.00  0.00     0.170 A 
HETATM    2  N   UNL     1     -45.785  57.961 -50.716  1.00  0.00    -0.152 NA
HETATM    3  N   UNL     1     -46.045  59.120 -50.136  1.00  0.00     0.012 NA
HETATM    4  N   UNL     1     -45.166  60.055 -50.588  1.00  0.00    -0.215 N 
HETATM    5  C   UNL     1     -44.366  59.477 -51.570  1.00  0.00     0.096 A 
ENDROOT
BRANCH   1   6
HETATM    6  C   UNL     1     -44.174  57.075 -52.389  1.00  0.00     0.293 C 
HETATM    7  N   UNL     1     -43.350  56.218 -51.682  1.00  0.00    -0.242 N 
HETATM    8  H   UNL     1     -43.189  56.365 -50.688  1.00  0.00     0.192 HD
HETATM    9  O   UNL     1     -44.422  56.997 -53.590  1.00  0.00    -0.264 OA
BRANCH   7  10
HETATM   10  N   UNL     1     -42.790  55.154 -52.320  1.00  0.00    -0.183 NA
HETATM   11  C   UNL     1     -41.586  54.839 -51.958  1.00  0.00     0.153 C 
BRANCH  11  12
HETATM   12  C   UNL     1     -40.891  53.688 -52.574  1.00  0.00     0.017 A 
HETATM   13  C   UNL     1     -40.535  52.617 -51.747  1.00  0.00     0.034 A 
HETATM   14  C   UNL     1     -39.884  51.513 -52.301  1.00  0.00     0.012 A 
HETATM   15  C   UNL     1     -39.587  51.468 -53.663  1.00  0.00     0.022 A 
HETATM   16 BR   UNL     1     -39.400  50.062 -51.189  1.00  0.00    -0.051 Br
HETATM   17  C   UNL     1     -39.942  52.538 -54.485  1.00  0.00     0.039 A 
HETATM   18  C   UNL     1     -40.591  53.644 -53.942  1.00  0.00     0.077 A 
BRANCH  18  19
HETATM   19  O   UNL     1     -40.906  54.651 -54.813  1.00  0.00    -0.360 OA
HETATM   20  H   UNL     1     -41.699  55.115 -54.468  1.00  0.00     0.217 HD
ENDBRANCH  18  19
ENDBRANCH  11  12
ENDBRANCH   7  10
ENDBRANCH   1   6
BRANCH   5  21
HETATM   21  C   UNL     1     -43.395  60.198 -52.427  1.00  0.00     0.296 C 
BRANCH  21  22
HETATM   22  N   UNL     1     -41.948  60.052 -52.021  1.00  0.00    -0.066 N 
HETATM   23  H   UNL     1     -41.490  60.942 -52.271  1.00  0.00     0.280 HD
HETATM   24  C   UNL     1     -41.754  59.804 -50.542  1.00  0.00     0.235 C 
HETATM   25  C   UNL     1     -40.264  59.816 -50.223  1.00  0.00     0.028 C 
HETATM   26  C   UNL     1     -39.500  58.795 -51.057  1.00  0.00     0.003 C 
HETATM   27  C   UNL     1     -39.775  58.981 -52.545  1.00  0.00     0.028 C 
HETATM   28  C   UNL     1     -41.267  58.981 -52.847  1.00  0.00     0.235 C 
ENDBRANCH  21  22
ENDBRANCH   5  21
BRANCH   4  29
HETATM   29  C   UNL     1     -45.096  61.361 -50.046  1.00  0.00     0.225 A 
HETATM   30  N   UNL     1     -45.301  62.422 -50.834  1.00  0.00    -0.081 NA
HETATM   31  O   UNL     1     -45.135  63.510 -49.970  1.00  0.00    -0.103 OA
HETATM   32  N   UNL     1     -44.797  63.089 -48.694  1.00  0.00    -0.083 NA
HETATM   33  C   UNL     1     -44.771  61.759 -48.738  1.00  0.00     0.201 A 
BRANCH  33  34
HETATM   34  N   UNL     1     -44.480  60.967 -47.696  1.00  0.00    -0.379 N 
HETATM   35  H   UNL     1     -45.218  60.641 -47.076  1.00  0.00     0.158 HD
HETATM   36  H   UNL     1     -43.535  60.770 -47.373  1.00  0.00     0.158 HD
ENDBRANCH  33  34
ENDBRANCH   4  29
TORSDOF 8
ENDMDL
MODEL 2
REMARK VINA RESULT:      -7.6      5.484      7.391
REMARK  8 active torsions:
REMARK  status: ('A' for Active; 'I' for Inactive)
REMARK    1  A    between atoms: C_5  and  C_6 
REMARK    2  A    between atoms: N_7  and  N_8 
REMARK       I    between atoms: N_8  and  C_9 
REMARK    3  A    between atoms: C_9  and  C_10 
REMARK    4  A    between atoms: N_13  and  C_14 
REMARK    5  A    between atoms: C_18  and  N_19 
REMARK    6  A    between atoms: C_20  and  C_21 
REMARK    7  A    between atoms: C_21  and  N_22 
REMARK    8  A    between atoms: C_30  and  O_31 
ROOT
HETATM    1  C   UNL     1     -42.626  58.830 -56.246  1.00  0.00     0.170 A 
HETATM    2  N   UNL     1     -41.739  59.826 -56.530  1.00  0.00    -0.152 NA
HETATM    3  N   UNL     1     -42.179  60.477 -57.594  1.00  0.00     0.012 NA
HETATM    4  N   UNL     1     -43.324  59.893 -58.036  1.00  0.00    -0.215 N 
HETATM    5  C   UNL     1     -43.675  58.875 -57.153  1.00  0.00     0.096 A 
ENDROOT
BRANCH   1   6
HETATM    6  C   UNL     1     -42.454  57.887 -55.150  1.00  0.00     0.293 C 
HETATM    7  N   UNL     1     -42.153  56.598 -55.553  1.00  0.00    -0.242 N 
HETATM    8  H   UNL     1     -42.071  56.377 -56.543  1.00  0.00     0.192 HD
HETATM    9  O   UNL     1     -42.591  58.256 -53.987  1.00  0.00    -0.264 OA
BRANCH   7  10
HETATM   10  N   UNL     1     -41.927  55.641 -54.612  1.00  0.00    -0.183 NA
HETATM   11  C   UNL     1     -40.922  54.852 -54.829  1.00  0.00     0.153 C 
BRANCH  11  12
HETATM   12  C   UNL     1     -40.576  53.789 -53.861  1.00  0.00     0.017 A 
HETATM   13  C   UNL     1     -40.233  52.529 -54.363  1.00  0.00     0.034 A 
HETATM   14  C   UNL     1     -39.895  51.507 -53.475  1.00  0.00     0.012 A 
HETATM   15  C   UNL     1     -39.894  51.729 -52.098  1.00  0.00     0.022 A 
HETATM   16 BR   UNL     1     -39.431  49.802 -54.148  1.00  0.00    -0.051 Br
HETATM   17  C   UNL     1     -40.237  52.986 -51.599  1.00  0.00     0.039 A 
HETATM   18  C   UNL     1     -40.578  54.012 -52.477  1.00  0.00     0.077 A 
BRANCH  18  19
HETATM   19  O   UNL     1     -40.901  55.214 -51.910  1.00  0.00    -0.360 OA
HETATM   20  H   UNL     1     -41.817  55.152 -51.564  1.00  0.00     0.217 HD
ENDBRANCH  18  19
ENDBRANCH  11  12
ENDBRANCH   7  10
ENDBRANCH   1   6
BRANCH   5  21
HETATM   21  C   UNL     1     -44.940  58.103 -57.184  1.00  0.00     0.296 C 
BRANCH  21  22
HETATM   22  N   UNL     1     -44.983  56.980 -58.193  1.00  0.00    -0.066 N 
HETATM   23  H   UNL     1     -45.271  56.138 -57.670  1.00  0.00     0.280 HD
HETATM   24  C   UNL     1     -45.963  57.213 -59.320  1.00  0.00     0.235 C 
HETATM   25  C   UNL     1     -46.028  55.965 -60.192  1.00  0.00     0.028 C 
HETATM   26  C   UNL     1     -44.656  55.578 -60.728  1.00  0.00     0.003 C 
HETATM   27  C   UNL     1     -43.641  55.442 -59.599  1.00  0.00     0.028 C 
HETATM   28  C   UNL     1     -43.596  56.689 -58.728  1.00  0.00     0.235 C 
ENDBRANCH  21  22
ENDBRANCH   5  21
BRANCH   4  29
HETATM   29  C   UNL     1     -43.958  60.273 -59.244  1.00  0.00     0.225 A 
HETATM   30  N   UNL     1     -45.165  60.849 -59.212  1.00  0.00    -0.081 NA
HETATM   31  O   UNL     1     -45.466  61.057 -60.563  1.00  0.00    -0.103 OA
HETATM   32  N   UNL     1     -44.458  60.571 -61.381  1.00  0.00    -0.083 NA
HETATM   33  C   UNL     1     -43.523  60.083 -60.567  1.00  0.00     0.201 A 
BRANCH  33  34
HETATM   34  N   UNL     1     -42.379  59.516 -60.973  1.00  0.00    -0.379 N 
HETATM   35  H   UNL     1     -41.984  59.749 -61.881  1.00  0.00     0.158 HD
HETATM   36  H   UNL     1     -41.927  58.736 -60.500  1.00  0.00     0.158 HD
ENDBRANCH  33  34
ENDBRANCH   4  29
TORSDOF 8
ENDMDL
MODEL 3
REMARK VINA RESULT:      -7.6      6.099      8.021
REMARK  8 active torsions:
REMARK  status: ('A' for Active; 'I' for Inactive)
REMARK    1  A    between atoms: C_5  and  C_6 
REMARK    2  A    between atoms: N_7  and  N_8 
REMARK       I    between atoms: N_8  and  C_9 
REMARK    3  A    between atoms: C_9  and  C_10 
REMARK    4  A    between atoms: N_13  and  C_14 
REMARK    5  A    between atoms: C_18  and  N_19 
REMARK    6  A    between atoms: C_20  and  C_21 
REMARK    7  A    between atoms: C_21  and  N_22 
REMARK    8  A    between atoms: C_30  and  O_31 
ROOT
HETATM    1  C   UNL     1     -42.660  58.352 -55.664  1.00  0.00     0.170 A 
HETATM    2  N   UNL     1     -42.006  59.533 -55.859  1.00  0.00    -0.152 NA
HETATM    3  N   UNL     1     -41.338  59.821 -54.756  1.00  0.00     0.012 NA
HETATM    4  N   UNL     1     -41.578  58.862 -53.822  1.00  0.00    -0.215 N 
HETATM    5  C   UNL     1     -42.369  57.870 -54.396  1.00  0.00     0.096 A 
ENDROOT
BRANCH   1   6
HETATM    6  C   UNL     1     -43.522  57.734 -56.661  1.00  0.00     0.293 C 
HETATM    7  N   UNL     1     -44.753  58.348 -56.806  1.00  0.00    -0.242 N 
HETATM    8  H   UNL     1     -44.991  59.159 -56.240  1.00  0.00     0.192 HD
HETATM    9  O   UNL     1     -43.142  56.743 -57.280  1.00  0.00    -0.264 OA
BRANCH   7  10
HETATM   10  N   UNL     1     -45.624  57.882 -57.742  1.00  0.00    -0.183 NA
HETATM   11  C   UNL     1     -45.707  58.567 -58.839  1.00  0.00     0.153 C 
BRANCH  11  12
HETATM   12  C   UNL     1     -46.608  58.138 -59.929  1.00  0.00     0.017 A 
HETATM   13  C   UNL     1     -47.301  59.128 -60.635  1.00  0.00     0.034 A 
HETATM   14  C   UNL     1     -48.155  58.755 -61.675  1.00  0.00     0.012 A 
HETATM   15  C   UNL     1     -48.322  57.413 -62.016  1.00  0.00     0.022 A 
HETATM   16 BR   UNL     1     -49.095  60.088 -62.632  1.00  0.00    -0.051 Br
HETATM   17  C   UNL     1     -47.630  56.428 -61.310  1.00  0.00     0.039 A 
HETATM   18  C   UNL     1     -46.777  56.790 -60.270  1.00  0.00     0.077 A 
BRANCH  18  19
HETATM   19  O   UNL     1     -46.135  55.766 -59.628  1.00  0.00    -0.360 OA
HETATM   20  H   UNL     1     -45.201  56.033 -59.488  1.00  0.00     0.217 HD
ENDBRANCH  18  19
ENDBRANCH  11  12
ENDBRANCH   7  10
ENDBRANCH   1   6
BRANCH   5  21
HETATM   21  C   UNL     1     -42.718  56.574 -53.767  1.00  0.00     0.296 C 
BRANCH  21  22
HETATM   22  N   UNL     1     -41.606  55.553 -53.739  1.00  0.00    -0.066 N 
HETATM   23  H   UNL     1     -40.741  56.078 -53.535  1.00  0.00     0.280 HD
HETATM   24  C   UNL     1     -41.788  54.485 -52.685  1.00  0.00     0.235 C 
HETATM   25  C   UNL     1     -40.549  53.599 -52.649  1.00  0.00     0.028 C 
HETATM   26  C   UNL     1     -40.256  52.982 -54.011  1.00  0.00     0.003 C 
HETATM   27  C   UNL     1     -40.173  54.051 -55.095  1.00  0.00     0.028 C 
HETATM   28  C   UNL     1     -41.411  54.937 -55.109  1.00  0.00     0.235 C 
ENDBRANCH  21  22
ENDBRANCH   5  21
BRANCH   4  29
HETATM   29  C   UNL     1     -41.118  58.965 -52.487  1.00  0.00     0.225 A 
HETATM   30  N   UNL     1     -39.806  59.016 -52.235  1.00  0.00    -0.081 NA
HETATM   31  O   UNL     1     -39.742  59.093 -50.839  1.00  0.00    -0.103 OA
HETATM   32  N   UNL     1     -41.008  59.048 -50.277  1.00  0.00    -0.083 NA
HETATM   33  C   UNL     1     -41.862  58.967 -51.295  1.00  0.00     0.201 A 
BRANCH  33  34
HETATM   34  N   UNL     1     -43.195  58.900 -51.168  1.00  0.00    -0.379 N 
HETATM   35  H   UNL     1     -43.666  59.400 -50.417  1.00  0.00     0.158 HD
HETATM   36  H   UNL     1     -43.788  58.256 -51.687  1.00  0.00     0.158 HD
ENDBRANCH  33  34
ENDBRANCH   4  29
TORSDOF 8
ENDMDL
MODEL 4
REMARK VINA RESULT:      -7.5      1.308      2.038
REMARK  8 active torsions:
REMARK  status: ('A' for Active; 'I' for Inactive)
REMARK    1  A    between atoms: C_5  and  C_6 
REMARK    2  A    between atoms: N_7  and  N_8 
REMARK       I    between atoms: N_8  and  C_9 
REMARK    3  A    between atoms: C_9  and  C_10 
REMARK    4  A    between atoms: N_13  and  C_14 
REMARK    5  A    between atoms: C_18  and  N_19 
REMARK    6  A    between atoms: C_20  and  C_21 
REMARK    7  A    between atoms: C_21  and  N_22 
REMARK    8  A    between atoms: C_30  and  O_31 
ROOT
HETATM    1  C   UNL     1     -44.558  58.228 -51.492  1.00  0.00     0.170 A 
HETATM    2  N   UNL     1     -45.693  58.083 -50.750  1.00  0.00    -0.152 NA
HETATM    3  N   UNL     1     -45.908  59.216 -50.102  1.00  0.00     0.012 NA
HETATM    4  N   UNL     1     -44.904  60.089 -50.379  1.00  0.00    -0.215 N 
HETATM    5  C   UNL     1     -44.057  59.511 -51.321  1.00  0.00     0.096 A 
ENDROOT
BRANCH   1   6
HETATM    6  C   UNL     1     -43.996  57.171 -52.320  1.00  0.00     0.293 C 
HETATM    7  N   UNL     1     -42.954  56.480 -51.727  1.00  0.00    -0.242 N 
HETATM    8  H   UNL     1     -42.641  56.729 -50.791  1.00  0.00     0.192 HD
HETATM    9  O   UNL     1     -44.440  56.963 -53.447  1.00  0.00    -0.264 OA
BRANCH   7  10
HETATM   10  N   UNL     1     -42.381  55.440 -52.392  1.00  0.00    -0.183 NA
HETATM   11  C   UNL     1     -41.506  54.751 -51.730  1.00  0.00     0.153 C 
BRANCH  11  12
HETATM   12  C   UNL     1     -40.836  53.588 -52.350  1.00  0.00     0.017 A 
HETATM   13  C   UNL     1     -40.476  52.519 -51.523  1.00  0.00     0.034 A 
HETATM   14  C   UNL     1     -39.848  51.404 -52.081  1.00  0.00     0.012 A 
HETATM   15  C   UNL     1     -39.579  51.345 -53.448  1.00  0.00     0.022 A 
HETATM   16 BR   UNL     1     -39.359  49.955 -50.968  1.00  0.00    -0.051 Br
HETATM   17  C   UNL     1     -39.938  52.413 -54.271  1.00  0.00     0.039 A 
HETATM   18  C   UNL     1     -40.563  53.530 -53.724  1.00  0.00     0.077 A 
BRANCH  18  19
HETATM   19  O   UNL     1     -40.884  54.534 -54.596  1.00  0.00    -0.360 OA
HETATM   20  H   UNL     1     -40.304  54.451 -55.384  1.00  0.00     0.217 HD
ENDBRANCH  18  19
ENDBRANCH  11  12
ENDBRANCH   7  10
ENDBRANCH   1   6
BRANCH   5  21
HETATM   21  C   UNL     1     -42.936  60.195 -52.008  1.00  0.00     0.296 C 
BRANCH  21  22
HETATM   22  N   UNL     1     -43.092  60.338 -53.504  1.00  0.00    -0.066 N 
HETATM   23  H   UNL     1     -43.905  59.759 -53.763  1.00  0.00     0.280 HD
HETATM   24  C   UNL     1     -43.342  61.759 -53.954  1.00  0.00     0.235 C 
HETATM   25  C   UNL     1     -43.624  61.768 -55.452  1.00  0.00     0.028 C 
HETATM   26  C   UNL     1     -42.489  61.132 -56.244  1.00  0.00     0.003 C 
HETATM   27  C   UNL     1     -42.167  59.736 -55.723  1.00  0.00     0.028 C 
HETATM   28  C   UNL     1     -41.901  59.740 -54.225  1.00  0.00     0.235 C 
ENDBRANCH  21  22
ENDBRANCH   5  21
BRANCH   4  29
HETATM   29  C   UNL     1     -44.775  61.337 -49.722  1.00  0.00     0.225 A 
HETATM   30  N   UNL     1     -44.608  62.454 -50.439  1.00  0.00    -0.081 NA
HETATM   31  O   UNL     1     -44.503  63.455 -49.467  1.00  0.00    -0.103 OA
HETATM   32  N   UNL     1     -44.569  62.922 -48.189  1.00  0.00    -0.083 NA
HETATM   33  C   UNL     1     -44.737  61.610 -48.344  1.00  0.00     0.201 A 
BRANCH  33  34
HETATM   34  N   UNL     1     -44.845  60.731 -47.338  1.00  0.00    -0.379 N 
HETATM   35  H   UNL     1     -44.043  60.525 -46.747  1.00  0.00     0.158 HD
HETATM   36  H   UNL     1     -45.648  60.122 -47.193  1.00  0.00     0.158 HD
ENDBRANCH  33  34
ENDBRANCH   4  29
TORSDOF 8
ENDMDL
MODEL 5
REMARK VINA RESULT:      -7.4      2.857      4.272
REMARK  8 active torsions:
REMARK  status: ('A' for Active; 'I' for Inactive)
REMARK    1  A    between atoms: C_5  and  C_6 
REMARK    2  A    between atoms: N_7  and  N_8 
REMARK       I    between atoms: N_8  and  C_9 
REMARK    3  A    between atoms: C_9  and  C_10 
REMARK    4  A    between atoms: N_13  and  C_14 
REMARK    5  A    between atoms: C_18  and  N_19 
REMARK    6  A    between atoms: C_20  and  C_21 
REMARK    7  A    between atoms: C_21  and  N_22 
REMARK    8  A    between atoms: C_30  and  O_31 
ROOT
HETATM    1  C   UNL     1     -43.172  58.298 -51.780  1.00  0.00     0.170 A 
HETATM    2  N   UNL     1     -42.770  59.324 -50.976  1.00  0.00    -0.152 NA
HETATM    3  N   UNL     1     -43.066  60.461 -51.582  1.00  0.00     0.012 NA
HETATM    4  N   UNL     1     -43.622  60.193 -52.793  1.00  0.00    -0.215 N 
HETATM    5  C   UNL     1     -43.766  58.814 -52.923  1.00  0.00     0.096 A 
ENDROOT
BRANCH   1   6
HETATM    6  C   UNL     1     -42.983  56.892 -51.449  1.00  0.00     0.293 C 
HETATM    7  N   UNL     1     -41.723  56.404 -51.747  1.00  0.00    -0.242 N 
HETATM    8  H   UNL     1     -41.023  57.013 -52.164  1.00  0.00     0.192 HD
HETATM    9  O   UNL     1     -43.903  56.242 -50.961  1.00  0.00    -0.264 OA
BRANCH   7  10
HETATM   10  N   UNL     1     -41.419  55.114 -51.439  1.00  0.00    -0.183 NA
HETATM   11  C   UNL     1     -40.793  54.440 -52.353  1.00  0.00     0.153 C 
BRANCH  11  12
HETATM   12  C   UNL     1     -40.398  53.035 -52.115  1.00  0.00     0.017 A 
HETATM   13  C   UNL     1     -40.172  52.219 -53.229  1.00  0.00     0.034 A 
HETATM   14  C   UNL     1     -39.791  50.890 -53.038  1.00  0.00     0.012 A 
HETATM   15  C   UNL     1     -39.633  50.371 -51.753  1.00  0.00     0.022 A 
HETATM   16 BR   UNL     1     -39.485  49.783 -54.539  1.00  0.00    -0.051 Br
HETATM   17  C   UNL     1     -39.859  51.186 -50.643  1.00  0.00     0.039 A 
HETATM   18  C   UNL     1     -40.242  52.513 -50.824  1.00  0.00     0.077 A 
BRANCH  18  19
HETATM   19  O   UNL     1     -40.444  53.247 -49.688  1.00  0.00    -0.360 OA
HETATM   20  H   UNL     1     -39.922  54.075 -49.762  1.00  0.00     0.217 HD
ENDBRANCH  18  19
ENDBRANCH  11  12
ENDBRANCH   7  10
ENDBRANCH   1   6
BRANCH   5  21
HETATM   21  C   UNL     1     -44.477  58.120 -54.022  1.00  0.00     0.296 C 
BRANCH  21  22
HETATM   22  N   UNL     1     -43.601  57.296 -54.935  1.00  0.00    -0.066 N 
HETATM   23  H   UNL     1     -42.631  57.590 -54.741  1.00  0.00     0.280 HD
HETATM   24  C   UNL     1     -43.715  55.807 -54.704  1.00  0.00     0.235 C 
HETATM   25  C   UNL     1     -42.691  55.085 -55.572  1.00  0.00     0.028 C 
HETATM   26  C   UNL     1     -42.859  55.427 -57.046  1.00  0.00     0.003 C 
HETATM   27  C   UNL     1     -42.847  56.935 -57.269  1.00  0.00     0.028 C 
HETATM   28  C   UNL     1     -43.864  57.644 -56.386  1.00  0.00     0.235 C 
ENDBRANCH  21  22
ENDBRANCH   5  21
BRANCH   4  29
HETATM   29  C   UNL     1     -43.914  61.206 -53.739  1.00  0.00     0.225 A 
HETATM   30  N   UNL     1     -44.954  62.023 -53.541  1.00  0.00    -0.081 NA
HETATM   31  O   UNL     1     -44.937  62.855 -54.666  1.00  0.00    -0.103 OA
HETATM   32  N   UNL     1     -43.917  62.501 -55.535  1.00  0.00    -0.083 NA
HETATM   33  C   UNL     1     -43.282  61.479 -54.964  1.00  0.00     0.201 A 
BRANCH  33  34
HETATM   34  N   UNL     1     -42.228  60.843 -55.495  1.00  0.00    -0.379 N 
HETATM   35  H   UNL     1     -41.489  61.370 -55.956  1.00  0.00     0.158 HD
HETATM   36  H   UNL     1     -42.166  59.834 -55.608  1.00  0.00     0.158 HD
ENDBRANCH  33  34
ENDBRANCH   4  29
TORSDOF 8
ENDMDL
MODEL 6
REMARK VINA RESULT:      -7.4      5.500      7.459
REMARK  8 active torsions:
REMARK  status: ('A' for Active; 'I' for Inactive)
REMARK    1  A    between atoms: C_5  and  C_6 
REMARK    2  A    between atoms: N_7  and  N_8 
REMARK       I    between atoms: N_8  and  C_9 
REMARK    3  A    between atoms: C_9  and  C_10 
REMARK    4  A    between atoms: N_13  and  C_14 
REMARK    5  A    between atoms: C_18  and  N_19 
REMARK    6  A    between atoms: C_20  and  C_21 
REMARK    7  A    between atoms: C_21  and  N_22 
REMARK    8  A    between atoms: C_30  and  O_31 
ROOT
HETATM    1  C   UNL     1     -42.641  58.350 -56.566  1.00  0.00     0.170 A 
HETATM    2  N   UNL     1     -42.952  59.537 -55.971  1.00  0.00    -0.152 NA
HETATM    3  N   UNL     1     -42.838  60.494 -56.877  1.00  0.00     0.012 NA
HETATM    4  N   UNL     1     -42.415  59.953 -58.051  1.00  0.00    -0.215 N 
HETATM    5  C   UNL     1     -42.344  58.570 -57.904  1.00  0.00     0.096 A 
ENDROOT
BRANCH   1   6
HETATM    6  C   UNL     1     -42.632  57.074 -55.865  1.00  0.00     0.293 C 
HETATM    7  N   UNL     1     -41.709  56.998 -54.838  1.00  0.00    -0.242 N 
HETATM    8  H   UNL     1     -41.107  57.791 -54.630  1.00  0.00     0.192 HD
HETATM    9  O   UNL     1     -43.394  56.173 -56.208  1.00  0.00    -0.264 OA
BRANCH   7  10
HETATM   10  N   UNL     1     -41.643  55.867 -54.083  1.00  0.00    -0.183 NA
HETATM   11  C   UNL     1     -40.589  55.130 -54.247  1.00  0.00     0.153 C 
BRANCH  11  12
HETATM   12  C   UNL     1     -40.408  53.890 -53.464  1.00  0.00     0.017 A 
HETATM   13  C   UNL     1     -40.138  52.707 -54.161  1.00  0.00     0.034 A 
HETATM   14  C   UNL     1     -39.955  51.520 -53.450  1.00  0.00     0.012 A 
HETATM   15  C   UNL     1     -40.037  51.502 -52.057  1.00  0.00     0.022 A 
HETATM   16 BR   UNL     1     -39.590  49.919 -54.386  1.00  0.00    -0.051 Br
HETATM   17  C   UNL     1     -40.307  52.683 -51.364  1.00  0.00     0.039 A 
HETATM   18  C   UNL     1     -40.493  53.871 -52.065  1.00  0.00     0.077 A 
BRANCH  18  19
HETATM   19  O   UNL     1     -40.753  54.985 -51.314  1.00  0.00    -0.360 OA
HETATM   20  H   UNL     1     -41.522  55.448 -51.712  1.00  0.00     0.217 HD
ENDBRANCH  18  19
ENDBRANCH  11  12
ENDBRANCH   7  10
ENDBRANCH   1   6
BRANCH   5  21
HETATM   21  C   UNL     1     -42.084  57.599 -58.993  1.00  0.00     0.296 C 
BRANCH  21  22
HETATM   22  N   UNL     1     -43.311  57.111 -59.726  1.00  0.00    -0.066 N 
HETATM   23  H   UNL     1     -43.219  57.452 -60.696  1.00  0.00     0.280 HD
HETATM   24  C   UNL     1     -43.445  55.605 -59.749  1.00  0.00     0.235 C 
HETATM   25  C   UNL     1     -44.629  55.222 -60.629  1.00  0.00     0.028 C 
HETATM   26  C   UNL     1     -45.919  55.882 -60.159  1.00  0.00     0.003 C 
HETATM   27  C   UNL     1     -45.754  57.393 -60.037  1.00  0.00     0.028 C 
HETATM   28  C   UNL     1     -44.560  57.761 -59.168  1.00  0.00     0.235 C 
ENDBRANCH  21  22
ENDBRANCH   5  21
BRANCH   4  29
HETATM   29  C   UNL     1     -42.061  60.742 -59.171  1.00  0.00     0.225 A 
HETATM   30  N   UNL     1     -42.548  60.442 -60.380  1.00  0.00    -0.081 NA
HETATM   31  O   UNL     1     -41.974  61.408 -61.215  1.00  0.00    -0.103 OA
HETATM   32  N   UNL     1     -41.126  62.243 -60.505  1.00  0.00    -0.083 NA
HETATM   33  C   UNL     1     -41.177  61.833 -59.239  1.00  0.00     0.201 A 
BRANCH  33  34
HETATM   34  N   UNL     1     -40.489  62.386 -58.230  1.00  0.00    -0.379 N 
HETATM   35  H   UNL     1     -40.321  61.862 -57.375  1.00  0.00     0.158 HD
HETATM   36  H   UNL     1     -40.233  63.370 -58.184  1.00  0.00     0.158 HD
ENDBRANCH  33  34
ENDBRANCH   4  29
TORSDOF 8
ENDMDL
MODEL 7
REMARK VINA RESULT:      -7.3      3.943      9.002
REMARK  8 active torsions:
REMARK  status: ('A' for Active; 'I' for Inactive)
REMARK    1  A    between atoms: C_5  and  C_6 
REMARK    2  A    between atoms: N_7  and  N_8 
REMARK       I    between atoms: N_8  and  C_9 
REMARK    3  A    between atoms: C_9  and  C_10 
REMARK    4  A    between atoms: N_13  and  C_14 
REMARK    5  A    between atoms: C_18  and  N_19 
REMARK    6  A    between atoms: C_20  and  C_21 
REMARK    7  A    between atoms: C_21  and  N_22 
REMARK    8  A    between atoms: C_30  and  O_31 
ROOT
HETATM    1  C   UNL     1     -44.784  58.825 -51.722  1.00  0.00     0.170 A 
HETATM    2  N   UNL     1     -44.706  59.540 -52.880  1.00  0.00    -0.152 NA
HETATM    3  N   UNL     1     -43.932  58.876 -53.722  1.00  0.00     0.012 NA
HETATM    4  N   UNL     1     -43.469  57.751 -53.115  1.00  0.00    -0.215 N 
HETATM    5  C   UNL     1     -44.050  57.654 -51.853  1.00  0.00     0.096 A 
ENDROOT
BRANCH   1   6
HETATM    6  C   UNL     1     -45.533  59.263 -50.552  1.00  0.00     0.293 C 
HETATM    7  N   UNL     1     -44.940  60.302 -49.857  1.00  0.00    -0.242 N 
HETATM    8  H   UNL     1     -44.055  60.691 -50.173  1.00  0.00     0.192 HD
HETATM    9  O   UNL     1     -46.588  58.712 -50.249  1.00  0.00    -0.264 OA
BRANCH   7  10
HETATM   10  N   UNL     1     -45.574  60.824 -48.771  1.00  0.00    -0.183 NA
HETATM   11  C   UNL     1     -45.075  61.918 -48.289  1.00  0.00     0.153 C 
BRANCH  11  12
HETATM   12  C   UNL     1     -45.696  62.580 -47.122  1.00  0.00     0.017 A 
HETATM   13  C   UNL     1     -44.865  62.963 -46.064  1.00  0.00     0.034 A 
HETATM   14  C   UNL     1     -45.421  63.596 -44.951  1.00  0.00     0.012 A 
HETATM   15  C   UNL     1     -46.791  63.850 -44.884  1.00  0.00     0.022 A 
HETATM   16 BR   UNL     1     -44.302  64.116 -43.519  1.00  0.00    -0.051 Br
HETATM   17  C   UNL     1     -47.619  63.466 -45.940  1.00  0.00     0.039 A 
HETATM   18  C   UNL     1     -47.073  62.833 -47.054  1.00  0.00     0.077 A 
BRANCH  18  19
HETATM   19  O   UNL     1     -47.950  62.489 -48.046  1.00  0.00    -0.360 OA
HETATM   20  H   UNL     1     -47.987  63.228 -48.691  1.00  0.00     0.217 HD
ENDBRANCH  18  19
ENDBRANCH  11  12
ENDBRANCH   7  10
ENDBRANCH   1   6
BRANCH   5  21
HETATM   21  C   UNL     1     -43.936  56.494 -50.937  1.00  0.00     0.296 C 
BRANCH  21  22
HETATM   22  N   UNL     1     -42.658  55.700 -51.062  1.00  0.00    -0.066 N 
HETATM   23  H   UNL     1     -42.159  56.089 -51.877  1.00  0.00     0.280 HD
HETATM   24  C   UNL     1     -41.761  55.798 -49.849  1.00  0.00     0.235 C 
HETATM   25  C   UNL     1     -40.448  55.083 -50.138  1.00  0.00     0.028 C 
HETATM   26  C   UNL     1     -40.672  53.630 -50.539  1.00  0.00     0.003 C 
HETATM   27  C   UNL     1     -41.656  53.524 -51.699  1.00  0.00     0.028 C 
HETATM   28  C   UNL     1     -42.958  54.255 -51.402  1.00  0.00     0.235 C 
ENDBRANCH  21  22
ENDBRANCH   5  21
BRANCH   4  29
HETATM   29  C   UNL     1     -42.501  56.906 -53.709  1.00  0.00     0.225 A 
HETATM   30  N   UNL     1     -41.218  57.000 -53.344  1.00  0.00    -0.081 NA
HETATM   31  O   UNL     1     -40.578  56.045 -54.141  1.00  0.00    -0.103 OA
HETATM   32  N   UNL     1     -41.475  55.423 -54.995  1.00  0.00    -0.083 NA
HETATM   33  C   UNL     1     -42.667  55.955 -54.731  1.00  0.00     0.201 A 
BRANCH  33  34
HETATM   34  N   UNL     1     -43.806  55.619 -55.352  1.00  0.00    -0.379 N 
HETATM   35  H   UNL     1     -43.831  55.524 -56.365  1.00  0.00     0.158 HD
HETATM   36  H   UNL     1     -44.717  55.588 -54.899  1.00  0.00     0.158 HD
ENDBRANCH  33  34
ENDBRANCH   4  29
TORSDOF 8
ENDMDL
MODEL 8
REMARK VINA RESULT:      -7.2      5.168      7.006
REMARK  8 active torsions:
REMARK  status: ('A' for Active; 'I' for Inactive)
REMARK    1  A    between atoms: C_5  and  C_6 
REMARK    2  A    between atoms: N_7  and  N_8 
REMARK       I    between atoms: N_8  and  C_9 
REMARK    3  A    between atoms: C_9  and  C_10 
REMARK    4  A    between atoms: N_13  and  C_14 
REMARK    5  A    between atoms: C_18  and  N_19 
REMARK    6  A    between atoms: C_20  and  C_21 
REMARK    7  A    between atoms: C_21  and  N_22 
REMARK    8  A    between atoms: C_30  and  O_31 
ROOT
HETATM    1  C   UNL     1     -42.869  56.364 -57.614  1.00  0.00     0.170 A 
HETATM    2  N   UNL     1     -43.232  55.612 -58.693  1.00  0.00    -0.152 NA
HETATM    3  N   UNL     1     -43.293  56.408 -59.747  1.00  0.00     0.012 NA
HETATM    4  N   UNL     1     -43.015  57.682 -59.365  1.00  0.00    -0.215 N 
HETATM    5  C   UNL     1     -42.672  57.679 -58.015  1.00  0.00     0.096 A 
ENDROOT
BRANCH   1   6
HETATM    6  C   UNL     1     -42.726  55.828 -56.268  1.00  0.00     0.293 C 
HETATM    7  N   UNL     1     -41.608  55.033 -56.091  1.00  0.00    -0.242 N 
HETATM    8  H   UNL     1     -40.970  54.865 -56.866  1.00  0.00     0.192 HD
HETATM    9  O   UNL     1     -43.565  56.081 -55.408  1.00  0.00    -0.264 OA
BRANCH   7  10
HETATM   10  N   UNL     1     -41.349  54.513 -54.860  1.00  0.00    -0.183 NA
HETATM   11  C   UNL     1     -40.671  53.409 -54.836  1.00  0.00     0.153 C 
BRANCH  11  12
HETATM   12  C   UNL     1     -40.318  52.768 -53.552  1.00  0.00     0.017 A 
HETATM   13  C   UNL     1     -40.398  53.542 -52.389  1.00  0.00     0.034 A 
HETATM   14  C   UNL     1     -40.077  52.964 -51.159  1.00  0.00     0.012 A 
HETATM   15  C   UNL     1     -39.683  51.628 -51.079  1.00  0.00     0.022 A 
HETATM   16 BR   UNL     1     -40.182  54.004 -49.584  1.00  0.00    -0.051 Br
HETATM   17  C   UNL     1     -39.605  50.858 -52.240  1.00  0.00     0.039 A 
HETATM   18  C   UNL     1     -39.920  51.427 -53.472  1.00  0.00     0.077 A 
BRANCH  18  19
HETATM   19  O   UNL     1     -39.819  50.607 -54.562  1.00  0.00    -0.360 OA
HETATM   20  H   UNL     1     -40.719  50.282 -54.784  1.00  0.00     0.217 HD
ENDBRANCH  18  19
ENDBRANCH  11  12
ENDBRANCH   7  10
ENDBRANCH   1   6
BRANCH   5  21
HETATM   21  C   UNL     1     -42.145  58.836 -57.256  1.00  0.00     0.296 C 
BRANCH  21  22
HETATM   22  N   UNL     1     -42.829  59.105 -55.937  1.00  0.00    -0.066 N 
HETATM   23  H   UNL     1     -43.467  58.309 -55.778  1.00  0.00     0.280 HD
HETATM   24  C   UNL     1     -41.876  59.206 -54.768  1.00  0.00     0.235 C 
HETATM   25  C   UNL     1     -42.677  59.333 -53.478  1.00  0.00     0.028 C 
HETATM   26  C   UNL     1     -43.625  60.525 -53.517  1.00  0.00     0.003 C 
HETATM   27  C   UNL     1     -44.519  60.478 -54.752  1.00  0.00     0.028 C 
HETATM   28  C   UNL     1     -43.707  60.336 -56.031  1.00  0.00     0.235 C 
ENDBRANCH  21  22
ENDBRANCH   5  21
BRANCH   4  29
HETATM   29  C   UNL     1     -43.143  58.787 -60.242  1.00  0.00     0.225 A 
HETATM   30  N   UNL     1     -42.076  59.545 -60.520  1.00  0.00    -0.081 NA
HETATM   31  O   UNL     1     -42.584  60.523 -61.381  1.00  0.00    -0.103 OA
HETATM   32  N   UNL     1     -43.947  60.361 -61.575  1.00  0.00    -0.083 NA
HETATM   33  C   UNL     1     -44.296  59.287 -60.870  1.00  0.00     0.201 A 
BRANCH  33  34
HETATM   34  N   UNL     1     -45.541  58.797 -60.793  1.00  0.00    -0.379 N 
HETATM   35  H   UNL     1     -46.278  59.333 -60.339  1.00  0.00     0.158 HD
HETATM   36  H   UNL     1     -45.796  57.840 -61.031  1.00  0.00     0.158 HD
ENDBRANCH  33  34
ENDBRANCH   4  29
TORSDOF 8
ENDMDL
MODEL 9
REMARK VINA RESULT:      -7.2      5.006      7.821
REMARK  8 active torsions:
REMARK  status: ('A' for Active; 'I' for Inactive)
REMARK    1  A    between atoms: C_5  and  C_6 
REMARK    2  A    between atoms: N_7  and  N_8 
REMARK       I    between atoms: N_8  and  C_9 
REMARK    3  A    between atoms: C_9  and  C_10 
REMARK    4  A    between atoms: N_13  and  C_14 
REMARK    5  A    between atoms: C_18  and  N_19 
REMARK    6  A    between atoms: C_20  and  C_21 
REMARK    7  A    between atoms: C_21  and  N_22 
REMARK    8  A    between atoms: C_30  and  O_31 
ROOT
HETATM    1  C   UNL     1     -41.865  53.953 -54.233  1.00  0.00     0.170 A 
HETATM    2  N   UNL     1     -40.799  53.102 -54.244  1.00  0.00    -0.152 NA
HETATM    3  N   UNL     1     -40.420  52.901 -52.993  1.00  0.00     0.012 NA
HETATM    4  N   UNL     1     -41.200  53.643 -52.163  1.00  0.00    -0.215 N 
HETATM    5  C   UNL     1     -42.181  54.278 -52.921  1.00  0.00     0.096 A 
ENDROOT
BRANCH   1   6
HETATM    6  C   UNL     1     -42.533  54.423 -55.438  1.00  0.00     0.293 C 
HETATM    7  N   UNL     1     -41.966  55.555 -55.997  1.00  0.00    -0.242 N 
HETATM    8  H   UNL     1     -41.152  55.987 -55.565  1.00  0.00     0.192 HD
HETATM    9  O   UNL     1     -43.522  53.834 -55.868  1.00  0.00    -0.264 OA
BRANCH   7  10
HETATM   10  N   UNL     1     -42.482  56.058 -57.151  1.00  0.00    -0.183 NA
HETATM   11  C   UNL     1     -42.568  57.349 -57.225  1.00  0.00     0.153 C 
BRANCH  11  12
HETATM   12  C   UNL     1     -43.097  58.001 -58.442  1.00  0.00     0.017 A 
HETATM   13  C   UNL     1     -42.358  59.050 -58.998  1.00  0.00     0.034 A 
HETATM   14  C   UNL     1     -42.827  59.682 -60.151  1.00  0.00     0.012 A 
HETATM   15  C   UNL     1     -44.019  59.276 -60.753  1.00  0.00     0.022 A 
HETATM   16 BR   UNL     1     -41.833  61.101 -60.907  1.00  0.00    -0.051 Br
HETATM   17  C   UNL     1     -44.755  58.230 -60.196  1.00  0.00     0.039 A 
HETATM   18  C   UNL     1     -44.295  57.595 -59.044  1.00  0.00     0.077 A 
BRANCH  18  19
HETATM   19  O   UNL     1     -45.073  56.578 -58.561  1.00  0.00    -0.360 OA
HETATM   20  H   UNL     1     -45.482  56.880 -57.721  1.00  0.00     0.217 HD
ENDBRANCH  18  19
ENDBRANCH  11  12
ENDBRANCH   7  10
ENDBRANCH   1   6
BRANCH   5  21
HETATM   21  C   UNL     1     -43.326  55.047 -52.381  1.00  0.00     0.296 C 
BRANCH  21  22
HETATM   22  N   UNL     1     -43.193  56.548 -52.474  1.00  0.00    -0.066 N 
HETATM   23  H   UNL     1     -43.462  56.917 -51.549  1.00  0.00     0.280 HD
HETATM   24  C   UNL     1     -41.792  57.015 -52.797  1.00  0.00     0.235 C 
HETATM   25  C   UNL     1     -41.742  58.536 -52.726  1.00  0.00     0.028 C 
HETATM   26  C   UNL     1     -42.763  59.179 -53.656  1.00  0.00     0.003 C 
HETATM   27  C   UNL     1     -44.164  58.633 -53.400  1.00  0.00     0.028 C 
HETATM   28  C   UNL     1     -44.196  57.113 -53.460  1.00  0.00     0.235 C 
ENDBRANCH  21  22
ENDBRANCH   5  21
BRANCH   4  29
HETATM   29  C   UNL     1     -40.948  53.752 -50.774  1.00  0.00     0.225 A 
HETATM   30  N   UNL     1     -41.037  54.944 -50.172  1.00  0.00    -0.081 NA
HETATM   31  O   UNL     1     -40.708  54.664 -48.841  1.00  0.00    -0.103 OA
HETATM   32  N   UNL     1     -40.391  53.325 -48.674  1.00  0.00    -0.083 NA
HETATM   33  C   UNL     1     -40.537  52.758 -49.870  1.00  0.00     0.201 A 
BRANCH  33  34
HETATM   34  N   UNL     1     -40.321  51.461 -50.130  1.00  0.00    -0.379 N 
HETATM   35  H   UNL     1     -39.372  51.105 -50.217  1.00  0.00     0.158 HD
HETATM   36  H   UNL     1     -41.049  50.802 -50.401  1.00  0.00     0.158 HD
ENDBRANCH  33  34
ENDBRANCH   4  29
TORSDOF 8
ENDMDL
MODEL 10
REMARK VINA RESULT:      -7.2      5.186      7.642
REMARK  8 active torsions:
REMARK  status: ('A' for Active; 'I' for Inactive)
REMARK    1  A    between atoms: C_5  and  C_6 
REMARK    2  A    between atoms: N_7  and  N_8 
REMARK       I    between atoms: N_8  and  C_9 
REMARK    3  A    between atoms: C_9  and  C_10 
REMARK    4  A    between atoms: N_13  and  C_14 
REMARK    5  A    between atoms: C_18  and  N_19 
REMARK    6  A    between atoms: C_20  and  C_21 
REMARK    7  A    between atoms: C_21  and  N_22 
REMARK    8  A    between atoms: C_30  and  O_31 
ROOT
HETATM    1  C   UNL     1     -42.906  55.836 -54.438  1.00  0.00     0.170 A 
HETATM    2  N   UNL     1     -43.551  54.666 -54.164  1.00  0.00    -0.152 NA
HETATM    3  N   UNL     1     -42.998  54.133 -53.088  1.00  0.00     0.012 NA
HETATM    4  N   UNL     1     -41.969  54.920 -52.675  1.00  0.00    -0.215 N 
HETATM    5  C   UNL     1     -41.925  56.055 -53.480  1.00  0.00     0.096 A 
ENDROOT
BRANCH   1   6
HETATM    6  C   UNL     1     -43.228  56.688 -55.573  1.00  0.00     0.293 C 
HETATM    7  N   UNL     1     -42.351  56.571 -56.637  1.00  0.00    -0.242 N 
HETATM    8  H   UNL     1     -41.561  55.933 -56.582  1.00  0.00     0.192 HD
HETATM    9  O   UNL     1     -44.201  57.436 -55.530  1.00  0.00    -0.264 OA
BRANCH   7  10
HETATM   10  N   UNL     1     -42.580  57.288 -57.771  1.00  0.00    -0.183 NA
HETATM   11  C   UNL     1     -41.924  58.400 -57.887  1.00  0.00     0.153 C 
BRANCH  11  12
HETATM   12  C   UNL     1     -42.084  59.247 -59.088  1.00  0.00     0.017 A 
HETATM   13  C   UNL     1     -42.391  60.599 -58.901  1.00  0.00     0.034 A 
HETATM   14  C   UNL     1     -42.542  61.427 -60.016  1.00  0.00     0.012 A 
HETATM   15  C   UNL     1     -42.387  60.922 -61.307  1.00  0.00     0.022 A 
HETATM   16 BR   UNL     1     -42.957  63.255 -59.770  1.00  0.00    -0.051 Br
HETATM   17  C   UNL     1     -42.081  59.573 -61.490  1.00  0.00     0.039 A 
HETATM   18  C   UNL     1     -41.931  58.739 -60.385  1.00  0.00     0.077 A 
BRANCH  18  19
HETATM   19  O   UNL     1     -41.631  57.430 -60.648  1.00  0.00    -0.360 OA
HETATM   20  H   UNL     1     -40.659  57.358 -60.764  1.00  0.00     0.217 HD
ENDBRANCH  18  19
ENDBRANCH  11  12
ENDBRANCH   7  10
ENDBRANCH   1   6
BRANCH   5  21
HETATM   21  C   UNL     1     -41.058  57.236 -53.260  1.00  0.00     0.296 C 
BRANCH  21  22
HETATM   22  N   UNL     1     -41.456  58.119 -52.101  1.00  0.00    -0.066 N 
HETATM   23  H   UNL     1     -41.855  57.491 -51.387  1.00  0.00     0.280 HD
HETATM   24  C   UNL     1     -40.300  58.879 -51.491  1.00  0.00     0.235 C 
HETATM   25  C   UNL     1     -40.786  59.620 -50.252  1.00  0.00     0.028 C 
HETATM   26  C   UNL     1     -41.948  60.552 -50.570  1.00  0.00     0.003 C 
HETATM   27  C   UNL     1     -43.074  59.807 -51.278  1.00  0.00     0.028 C 
HETATM   28  C   UNL     1     -42.572  59.060 -52.506  1.00  0.00     0.235 C 
ENDBRANCH  21  22
ENDBRANCH   5  21
BRANCH   4  29
HETATM   29  C   UNL     1     -41.089  54.541 -51.632  1.00  0.00     0.225 A 
HETATM   30  N   UNL     1     -40.183  53.579 -51.840  1.00  0.00    -0.081 NA
HETATM   31  O   UNL     1     -39.528  53.473 -50.608  1.00  0.00    -0.103 OA
HETATM   32  N   UNL     1     -40.075  54.339 -49.674  1.00  0.00    -0.083 NA
HETATM   33  C   UNL     1     -41.042  55.001 -50.305  1.00  0.00     0.201 A 
BRANCH  33  34
HETATM   34  N   UNL     1     -41.818  55.938 -49.741  1.00  0.00    -0.379 N 
HETATM   35  H   UNL     1     -42.259  55.766 -48.841  1.00  0.00     0.158 HD
HETATM   36  H   UNL     1     -42.134  56.781 -50.215  1.00  0.00     0.158 HD
ENDBRANCH  33  34
ENDBRANCH   4  29
TORSDOF 8
ENDMDL
