MODEL 1
REMARK VINA RESULT:      -8.7      0.000      0.000
REMARK  4 active torsions:
REMARK  status: ('A' for Active; 'I' for Inactive)
REMARK    1  A    between atoms: C_2  and  C_3 
REMARK    2  A    between atoms: C_6  and  C_7 
REMARK       I    between atoms: C_7  and  N_8 
REMARK    3  A    between atoms: N_8  and  N_9 
REMARK       I    between atoms: N_9  and  C_10 
REMARK    4  A    between atoms: C_10  and  C_11 
ROOT
HETATM    1  N   UNL     1     -41.813  56.242 -56.173  1.00  0.00    -0.263 N 
HETATM    2  C   UNL     1     -42.738  56.196 -57.194  1.00  0.00     0.272 C 
HETATM    3  O   UNL     1     -43.243  55.144 -57.584  1.00  0.00    -0.266 OA
HETATM    4  H   UNL     1     -41.231  57.054 -55.969  1.00  0.00     0.190 HD
ENDROOT
BRANCH   1   5
HETATM    5  N   UNL     1     -41.374  55.035 -55.624  1.00  0.00    -0.263 N 
HETATM    6  C   UNL     1     -40.864  55.056 -54.342  1.00  0.00     0.270 C 
HETATM    7  O   UNL     1     -40.729  56.099 -53.704  1.00  0.00    -0.266 OA
HETATM    8  H   UNL     1     -41.631  54.191 -56.131  1.00  0.00     0.190 HD
BRANCH   6   9
HETATM    9  C   UNL     1     -40.511  53.741 -53.742  1.00  0.00     0.033 A 
HETATM   10  C   UNL     1     -40.347  53.565 -52.363  1.00  0.00     0.017 A 
HETATM   11  C   UNL     1     -40.007  52.309 -51.853  1.00  0.00     0.008 A 
HETATM   12  C   UNL     1     -39.828  51.215 -52.710  1.00  0.00    -0.059 A 
HETATM   13  C   UNL     1     -40.016  51.391 -54.087  1.00  0.00     0.008 A 
HETATM   14  C   UNL     1     -40.358  52.644 -54.599  1.00  0.00     0.017 A 
BRANCH  12  15
HETATM   15  C   UNL     1     -39.474  49.858 -52.157  1.00  0.00     0.034 C 
HETATM   16  C   UNL     1     -39.753  49.765 -50.664  1.00  0.00     0.010 C 
ENDBRANCH  12  15
ENDBRANCH   6   9
ENDBRANCH   1   5
BRANCH   2  17
HETATM   17  C   UNL     1     -43.070  57.492 -57.846  1.00  0.00     0.061 A 
HETATM   18  C   UNL     1     -44.215  57.587 -58.659  1.00  0.00     0.059 A 
HETATM   19  C   UNL     1     -44.577  58.755 -59.327  1.00  0.00    -0.001 A 
HETATM   20  N   UNL     1     -45.163  56.639 -58.966  1.00  0.00    -0.358 N 
HETATM   21  C   UNL     1     -45.769  58.472 -60.073  1.00  0.00    -0.027 A 
HETATM   22  C   UNL     1     -43.768  59.898 -59.163  1.00  0.00     0.014 A 
HETATM   23  C   UNL     1     -46.513  59.415 -60.952  1.00  0.00     0.051 C 
HETATM   24  C   UNL     1     -46.100  57.148 -59.827  1.00  0.00     0.012 A 
HETATM   25  C   UNL     1     -47.219  56.306 -60.321  1.00  0.00     0.068 C 
HETATM   26  C   UNL     1     -42.640  59.838 -58.337  1.00  0.00     0.002 A 
HETATM   27  C   UNL     1     -42.296  58.653 -57.687  1.00  0.00     0.019 A 
HETATM   28  H   UNL     1     -45.149  55.699 -58.584  1.00  0.00     0.166 HD
ENDBRANCH   2  17
TORSDOF 4
ENDMDL
MODEL 2
REMARK VINA RESULT:      -8.3      6.177      7.235
REMARK  4 active torsions:
REMARK  status: ('A' for Active; 'I' for Inactive)
REMARK    1  A    between atoms: C_2  and  C_3 
REMARK    2  A    between atoms: C_6  and  C_7 
REMARK       I    between atoms: C_7  and  N_8 
REMARK    3  A    between atoms: N_8  and  N_9 
REMARK       I    between atoms: N_9  and  C_10 
REMARK    4  A    between atoms: C_10  and  C_11 
ROOT
HETATM    1  N   UNL     1     -43.420  57.993 -52.153  1.00  0.00    -0.263 N 
HETATM    2  C   UNL     1     -44.586  58.143 -51.432  1.00  0.00     0.272 C 
HETATM    3  O   UNL     1     -45.068  57.237 -50.754  1.00  0.00    -0.266 OA
HETATM    4  H   UNL     1     -43.110  58.641 -52.875  1.00  0.00     0.190 HD
ENDROOT
BRANCH   1   5
HETATM    5  N   UNL     1     -42.817  56.732 -52.177  1.00  0.00    -0.263 N 
HETATM    6  C   UNL     1     -42.332  56.272 -53.383  1.00  0.00     0.270 C 
HETATM    7  O   UNL     1     -42.468  56.901 -54.431  1.00  0.00    -0.266 OA
HETATM    8  H   UNL     1     -42.608  56.317 -51.272  1.00  0.00     0.190 HD
BRANCH   6   9
HETATM    9  C   UNL     1     -41.595  54.979 -53.357  1.00  0.00     0.033 A 
HETATM   10  C   UNL     1     -41.401  54.250 -52.178  1.00  0.00     0.017 A 
HETATM   11  C   UNL     1     -40.693  53.045 -52.211  1.00  0.00     0.008 A 
HETATM   12  C   UNL     1     -40.174  52.553 -53.416  1.00  0.00    -0.059 A 
HETATM   13  C   UNL     1     -40.392  53.275 -54.596  1.00  0.00     0.008 A 
HETATM   14  C   UNL     1     -41.100  54.478 -54.568  1.00  0.00     0.017 A 
BRANCH  12  15
HETATM   15  C   UNL     1     -39.423  51.246 -53.450  1.00  0.00     0.034 C 
HETATM   16  C   UNL     1     -40.096  50.229 -54.359  1.00  0.00     0.010 C 
ENDBRANCH  12  15
ENDBRANCH   6   9
ENDBRANCH   1   5
BRANCH   2  17
HETATM   17  C   UNL     1     -45.271  59.459 -51.549  1.00  0.00     0.061 A 
HETATM   18  C   UNL     1     -45.478  60.240 -50.397  1.00  0.00     0.059 A 
HETATM   19  C   UNL     1     -46.137  61.467 -50.419  1.00  0.00    -0.001 A 
HETATM   20  N   UNL     1     -45.117  60.001 -49.091  1.00  0.00    -0.358 N 
HETATM   21  C   UNL     1     -46.185  61.954 -49.071  1.00  0.00    -0.027 A 
HETATM   22  C   UNL     1     -46.598  61.957 -51.658  1.00  0.00     0.014 A 
HETATM   23  C   UNL     1     -46.808  63.224 -48.605  1.00  0.00     0.051 C 
HETATM   24  C   UNL     1     -45.546  61.015 -48.275  1.00  0.00     0.012 A 
HETATM   25  C   UNL     1     -45.293  60.975 -46.812  1.00  0.00     0.068 C 
HETATM   26  C   UNL     1     -46.380  61.214 -52.823  1.00  0.00     0.002 A 
HETATM   27  C   UNL     1     -45.725  59.984 -52.771  1.00  0.00     0.019 A 
HETATM   28  H   UNL     1     -44.597  59.180 -48.802  1.00  0.00     0.166 HD
ENDBRANCH   2  17
TORSDOF 4
ENDMDL
MODEL 3
REMARK VINA RESULT:      -8.2      2.266      9.406
REMARK  4 active torsions:
REMARK  status: ('A' for Active; 'I' for Inactive)
REMARK    1  A    between atoms: C_2  and  C_3 
REMARK    2  A    between atoms: C_6  and  C_7 
REMARK       I    between atoms: C_7  and  N_8 
REMARK    3  A    between atoms: N_8  and  N_9 
REMARK       I    between atoms: N_9  and  C_10 
REMARK    4  A    between atoms: C_10  and  C_11 
ROOT
HETATM    1  N   UNL     1     -42.036  55.721 -54.469  1.00  0.00    -0.263 N 
HETATM    2  C   UNL     1     -40.847  55.085 -54.180  1.00  0.00     0.272 C 
HETATM    3  O   UNL     1     -39.909  55.039 -54.975  1.00  0.00    -0.266 OA
HETATM    4  H   UNL     1     -42.891  55.602 -53.927  1.00  0.00     0.190 HD
ENDROOT
BRANCH   1   5
HETATM    5  N   UNL     1     -42.205  56.255 -55.749  1.00  0.00    -0.263 N 
HETATM    6  C   UNL     1     -42.196  57.628 -55.881  1.00  0.00     0.270 C 
HETATM    7  O   UNL     1     -42.107  58.382 -54.914  1.00  0.00    -0.266 OA
HETATM    8  H   UNL     1     -42.137  55.598 -56.523  1.00  0.00     0.190 HD
BRANCH   6   9
HETATM    9  C   UNL     1     -42.264  58.166 -57.267  1.00  0.00     0.033 A 
HETATM   10  C   UNL     1     -42.659  57.383 -58.358  1.00  0.00     0.017 A 
HETATM   11  C   UNL     1     -42.697  57.938 -59.640  1.00  0.00     0.008 A 
HETATM   12  C   UNL     1     -42.343  59.277 -59.849  1.00  0.00    -0.059 A 
HETATM   13  C   UNL     1     -41.970  60.063 -58.751  1.00  0.00     0.008 A 
HETATM   14  C   UNL     1     -41.934  59.512 -57.469  1.00  0.00     0.017 A 
BRANCH  12  15
HETATM   15  C   UNL     1     -42.397  59.877 -61.232  1.00  0.00     0.034 C 
HETATM   16  C   UNL     1     -41.792  61.272 -61.268  1.00  0.00     0.010 C 
ENDBRANCH  12  15
ENDBRANCH   6   9
ENDBRANCH   1   5
BRANCH   2  17
HETATM   17  C   UNL     1     -40.763  54.407 -52.858  1.00  0.00     0.061 A 
HETATM   18  C   UNL     1     -40.344  53.065 -52.791  1.00  0.00     0.059 A 
HETATM   19  C   UNL     1     -40.269  52.351 -51.597  1.00  0.00    -0.001 A 
HETATM   20  N   UNL     1     -39.950  52.211 -53.795  1.00  0.00    -0.358 N 
HETATM   21  C   UNL     1     -39.836  51.022 -51.916  1.00  0.00    -0.027 A 
HETATM   22  C   UNL     1     -40.608  53.013 -50.399  1.00  0.00     0.014 A 
HETATM   23  C   UNL     1     -39.627  49.900 -50.960  1.00  0.00     0.051 C 
HETATM   24  C   UNL     1     -39.653  50.971 -53.290  1.00  0.00     0.012 A 
HETATM   25  C   UNL     1     -39.220  49.868 -54.185  1.00  0.00     0.068 C 
HETATM   26  C   UNL     1     -40.999  54.357 -50.435  1.00  0.00     0.002 A 
HETATM   27  C   UNL     1     -41.075  55.044 -51.646  1.00  0.00     0.019 A 
HETATM   28  H   UNL     1     -39.889  52.491 -54.768  1.00  0.00     0.166 HD
ENDBRANCH   2  17
TORSDOF 4
ENDMDL
MODEL 4
REMARK VINA RESULT:      -8.0      1.782      9.215
REMARK  4 active torsions:
REMARK  status: ('A' for Active; 'I' for Inactive)
REMARK    1  A    between atoms: C_2  and  C_3 
REMARK    2  A    between atoms: C_6  and  C_7 
REMARK       I    between atoms: C_7  and  N_8 
REMARK    3  A    between atoms: N_8  and  N_9 
REMARK       I    between atoms: N_9  and  C_10 
REMARK    4  A    between atoms: C_10  and  C_11 
ROOT
HETATM    1  N   UNL     1     -41.283  55.000 -55.864  1.00  0.00    -0.263 N 
HETATM    2  C   UNL     1     -41.950  54.036 -55.137  1.00  0.00     0.272 C 
HETATM    3  O   UNL     1     -43.133  53.760 -55.329  1.00  0.00    -0.266 OA
HETATM    4  H   UNL     1     -40.382  55.392 -55.597  1.00  0.00     0.190 HD
ENDROOT
BRANCH   1   5
HETATM    5  N   UNL     1     -42.012  55.747 -56.793  1.00  0.00    -0.263 N 
HETATM    6  C   UNL     1     -42.348  57.042 -56.458  1.00  0.00     0.270 C 
HETATM    7  O   UNL     1     -42.082  57.529 -55.361  1.00  0.00    -0.266 OA
HETATM    8  H   UNL     1     -42.087  55.352 -57.727  1.00  0.00     0.190 HD
BRANCH   6   9
HETATM    9  C   UNL     1     -43.024  57.850 -57.510  1.00  0.00     0.033 A 
HETATM   10  C   UNL     1     -42.352  58.828 -58.253  1.00  0.00     0.017 A 
HETATM   11  C   UNL     1     -43.038  59.563 -59.223  1.00  0.00     0.008 A 
HETATM   12  C   UNL     1     -44.398  59.332 -59.465  1.00  0.00    -0.059 A 
HETATM   13  C   UNL     1     -45.061  58.337 -58.735  1.00  0.00     0.008 A 
HETATM   14  C   UNL     1     -44.377  57.599 -57.766  1.00  0.00     0.017 A 
BRANCH  12  15
HETATM   15  C   UNL     1     -45.133  60.118 -60.521  1.00  0.00     0.034 C 
HETATM   16  C   UNL     1     -44.224  60.498 -61.680  1.00  0.00     0.010 C 
ENDBRANCH  12  15
ENDBRANCH   6   9
ENDBRANCH   1   5
BRANCH   2  17
HETATM   17  C   UNL     1     -41.172  53.364 -54.060  1.00  0.00     0.061 A 
HETATM   18  C   UNL     1     -41.047  53.984 -52.804  1.00  0.00     0.059 A 
HETATM   19  C   UNL     1     -40.312  53.435 -51.755  1.00  0.00    -0.001 A 
HETATM   20  N   UNL     1     -41.565  55.175 -52.349  1.00  0.00    -0.358 N 
HETATM   21  C   UNL     1     -40.384  54.350 -50.653  1.00  0.00    -0.027 A 
HETATM   22  C   UNL     1     -39.684  52.189 -51.959  1.00  0.00     0.014 A 
HETATM   23  C   UNL     1     -39.737  54.191 -49.321  1.00  0.00     0.051 C 
HETATM   24  C   UNL     1     -41.166  55.419 -51.061  1.00  0.00     0.012 A 
HETATM   25  C   UNL     1     -41.584  56.658 -50.356  1.00  0.00     0.068 C 
HETATM   26  C   UNL     1     -39.818  51.536 -53.189  1.00  0.00     0.002 A 
HETATM   27  C   UNL     1     -40.552  52.114 -54.225  1.00  0.00     0.019 A 
HETATM   28  H   UNL     1     -42.166  55.767 -52.912  1.00  0.00     0.166 HD
ENDBRANCH   2  17
TORSDOF 4
ENDMDL
MODEL 5
REMARK VINA RESULT:      -8.0      6.922      8.258
REMARK  4 active torsions:
REMARK  status: ('A' for Active; 'I' for Inactive)
REMARK    1  A    between atoms: C_2  and  C_3 
REMARK    2  A    between atoms: C_6  and  C_7 
REMARK       I    between atoms: C_7  and  N_8 
REMARK    3  A    between atoms: N_8  and  N_9 
REMARK       I    between atoms: N_9  and  C_10 
REMARK    4  A    between atoms: C_10  and  C_11 
ROOT
HETATM    1  N   UNL     1     -42.388  58.911 -50.855  1.00  0.00    -0.263 N 
HETATM    2  C   UNL     1     -43.589  59.579 -50.973  1.00  0.00     0.272 C 
HETATM    3  O   UNL     1     -44.577  59.079 -51.509  1.00  0.00    -0.266 OA
HETATM    4  H   UNL     1     -41.508  59.361 -50.609  1.00  0.00     0.190 HD
ENDROOT
BRANCH   1   5
HETATM    5  N   UNL     1     -42.274  57.650 -51.447  1.00  0.00    -0.263 N 
HETATM    6  C   UNL     1     -41.298  57.474 -52.406  1.00  0.00     0.270 C 
HETATM    7  O   UNL     1     -40.580  58.394 -52.792  1.00  0.00    -0.266 OA
HETATM    8  H   UNL     1     -42.792  56.896 -51.002  1.00  0.00     0.190 HD
BRANCH   6   9
HETATM    9  C   UNL     1     -41.125  56.094 -52.936  1.00  0.00     0.033 A 
HETATM   10  C   UNL     1     -40.709  55.842 -54.249  1.00  0.00     0.017 A 
HETATM   11  C   UNL     1     -40.570  54.525 -54.698  1.00  0.00     0.008 A 
HETATM   12  C   UNL     1     -40.842  53.448 -53.845  1.00  0.00    -0.059 A 
HETATM   13  C   UNL     1     -41.236  53.706 -52.525  1.00  0.00     0.008 A 
HETATM   14  C   UNL     1     -41.373  55.019 -52.074  1.00  0.00     0.017 A 
BRANCH  12  15
HETATM   15  C   UNL     1     -40.679  52.028 -54.327  1.00  0.00     0.034 C 
HETATM   16  C   UNL     1     -39.567  51.302 -53.586  1.00  0.00     0.010 C 
ENDBRANCH  12  15
ENDBRANCH   6   9
ENDBRANCH   1   5
BRANCH   2  17
HETATM   17  C   UNL     1     -43.623  60.974 -50.455  1.00  0.00     0.061 A 
HETATM   18  C   UNL     1     -44.296  61.251 -49.250  1.00  0.00     0.059 A 
HETATM   19  C   UNL     1     -44.400  62.533 -48.715  1.00  0.00    -0.001 A 
HETATM   20  N   UNL     1     -44.958  60.403 -48.392  1.00  0.00    -0.358 N 
HETATM   21  C   UNL     1     -45.171  62.436 -47.510  1.00  0.00    -0.027 A 
HETATM   22  C   UNL     1     -43.782  63.597 -49.404  1.00  0.00     0.014 A 
HETATM   23  C   UNL     1     -45.554  63.555 -46.606  1.00  0.00     0.051 C 
HETATM   24  C   UNL     1     -45.504  61.100 -47.345  1.00  0.00     0.012 A 
HETATM   25  C   UNL     1     -46.287  60.404 -46.293  1.00  0.00     0.068 C 
HETATM   26  C   UNL     1     -43.081  63.344 -50.588  1.00  0.00     0.002 A 
HETATM   27  C   UNL     1     -43.001  62.052 -51.106  1.00  0.00     0.019 A 
HETATM   28  H   UNL     1     -45.011  59.401 -48.537  1.00  0.00     0.166 HD
ENDBRANCH   2  17
TORSDOF 4
ENDMDL
MODEL 6
REMARK VINA RESULT:      -7.9      5.534     10.113
REMARK  4 active torsions:
REMARK  status: ('A' for Active; 'I' for Inactive)
REMARK    1  A    between atoms: C_2  and  C_3 
REMARK    2  A    between atoms: C_6  and  C_7 
REMARK       I    between atoms: C_7  and  N_8 
REMARK    3  A    between atoms: N_8  and  N_9 
REMARK       I    between atoms: N_9  and  C_10 
REMARK    4  A    between atoms: C_10  and  C_11 
ROOT
HETATM    1  N   UNL     1     -42.973  56.922 -50.694  1.00  0.00    -0.263 N 
HETATM    2  C   UNL     1     -41.616  56.734 -50.531  1.00  0.00     0.272 C 
HETATM    3  O   UNL     1     -40.815  57.668 -50.508  1.00  0.00    -0.266 OA
HETATM    4  H   UNL     1     -43.627  56.174 -50.922  1.00  0.00     0.190 HD
ENDROOT
BRANCH   1   5
HETATM    5  N   UNL     1     -43.436  58.219 -50.927  1.00  0.00    -0.263 N 
HETATM    6  C   UNL     1     -44.800  58.423 -50.942  1.00  0.00     0.270 C 
HETATM    7  O   UNL     1     -45.606  57.502 -50.819  1.00  0.00    -0.266 OA
HETATM    8  H   UNL     1     -42.740  58.959 -50.886  1.00  0.00     0.190 HD
BRANCH   6   9
HETATM    9  C   UNL     1     -45.263  59.831 -51.079  1.00  0.00     0.033 A 
HETATM   10  C   UNL     1     -46.410  60.177 -51.804  1.00  0.00     0.017 A 
HETATM   11  C   UNL     1     -46.794  61.516 -51.907  1.00  0.00     0.008 A 
HETATM   12  C   UNL     1     -46.043  62.525 -51.289  1.00  0.00    -0.059 A 
HETATM   13  C   UNL     1     -44.910  62.171 -50.545  1.00  0.00     0.008 A 
HETATM   14  C   UNL     1     -44.525  60.834 -50.438  1.00  0.00     0.017 A 
BRANCH  12  15
HETATM   15  C   UNL     1     -46.468  63.968 -51.391  1.00  0.00     0.034 C 
HETATM   16  C   UNL     1     -46.969  64.506 -50.060  1.00  0.00     0.010 C 
ENDBRANCH  12  15
ENDBRANCH   6   9
ENDBRANCH   1   5
BRANCH   2  17
HETATM   17  C   UNL     1     -41.150  55.324 -50.429  1.00  0.00     0.061 A 
HETATM   18  C   UNL     1     -40.865  54.600 -51.601  1.00  0.00     0.059 A 
HETATM   19  C   UNL     1     -40.453  53.269 -51.590  1.00  0.00    -0.001 A 
HETATM   20  N   UNL     1     -40.922  54.991 -52.919  1.00  0.00    -0.358 N 
HETATM   21  C   UNL     1     -40.286  52.859 -52.954  1.00  0.00    -0.027 A 
HETATM   22  C   UNL     1     -40.296  52.627 -50.345  1.00  0.00     0.014 A 
HETATM   23  C   UNL     1     -39.872  51.512 -53.434  1.00  0.00     0.051 C 
HETATM   24  C   UNL     1     -40.591  53.953 -53.749  1.00  0.00     0.012 A 
HETATM   25  C   UNL     1     -40.599  54.126 -55.224  1.00  0.00     0.068 C 
HETATM   26  C   UNL     1     -40.545  53.334 -49.162  1.00  0.00     0.002 A 
HETATM   27  C   UNL     1     -40.965  54.663 -49.204  1.00  0.00     0.019 A 
HETATM   28  H   UNL     1     -41.171  55.932 -53.206  1.00  0.00     0.166 HD
ENDBRANCH   2  17
TORSDOF 4
ENDMDL
MODEL 7
REMARK VINA RESULT:      -7.7      4.629      5.213
REMARK  4 active torsions:
REMARK  status: ('A' for Active; 'I' for Inactive)
REMARK    1  A    between atoms: C_2  and  C_3 
REMARK    2  A    between atoms: C_6  and  C_7 
REMARK       I    between atoms: C_7  and  N_8 
REMARK    3  A    between atoms: N_8  and  N_9 
REMARK       I    between atoms: N_9  and  C_10 
REMARK    4  A    between atoms: C_10  and  C_11 
ROOT
HETATM    1  N   UNL     1     -44.311  56.645 -52.340  1.00  0.00    -0.263 N 
HETATM    2  C   UNL     1     -44.289  57.823 -53.057  1.00  0.00     0.272 C 
HETATM    3  O   UNL     1     -43.665  57.948 -54.110  1.00  0.00    -0.266 OA
HETATM    4  H   UNL     1     -44.640  56.571 -51.379  1.00  0.00     0.190 HD
ENDROOT
BRANCH   1   5
HETATM    5  N   UNL     1     -43.522  55.584 -52.791  1.00  0.00    -0.263 N 
HETATM    6  C   UNL     1     -42.311  55.370 -52.166  1.00  0.00     0.270 C 
HETATM    7  O   UNL     1     -41.886  56.111 -51.282  1.00  0.00    -0.266 OA
HETATM    8  H   UNL     1     -43.972  54.926 -53.422  1.00  0.00     0.190 HD
BRANCH   6   9
HETATM    9  C   UNL     1     -41.545  54.167 -52.589  1.00  0.00     0.033 A 
HETATM   10  C   UNL     1     -41.618  53.649 -53.888  1.00  0.00     0.017 A 
HETATM   11  C   UNL     1     -40.882  52.510 -54.229  1.00  0.00     0.008 A 
HETATM   12  C   UNL     1     -40.066  51.877 -53.282  1.00  0.00    -0.059 A 
HETATM   13  C   UNL     1     -39.978  52.413 -51.991  1.00  0.00     0.008 A 
HETATM   14  C   UNL     1     -40.710  53.552 -51.648  1.00  0.00     0.017 A 
BRANCH  12  15
HETATM   15  C   UNL     1     -39.263  50.657 -53.656  1.00  0.00     0.034 C 
HETATM   16  C   UNL     1     -39.974  49.809 -54.700  1.00  0.00     0.010 C 
ENDBRANCH  12  15
ENDBRANCH   6   9
ENDBRANCH   1   5
BRANCH   2  17
HETATM   17  C   UNL     1     -45.029  58.972 -52.466  1.00  0.00     0.061 A 
HETATM   18  C   UNL     1     -45.538  59.977 -53.308  1.00  0.00     0.059 A 
HETATM   19  C   UNL     1     -46.214  61.098 -52.831  1.00  0.00    -0.001 A 
HETATM   20  N   UNL     1     -45.492  60.090 -54.679  1.00  0.00    -0.358 N 
HETATM   21  C   UNL     1     -46.557  61.909 -53.963  1.00  0.00    -0.027 A 
HETATM   22  C   UNL     1     -46.415  61.217 -51.440  1.00  0.00     0.014 A 
HETATM   23  C   UNL     1     -47.274  63.214 -53.939  1.00  0.00     0.051 C 
HETATM   24  C   UNL     1     -46.088  61.254 -55.091  1.00  0.00     0.012 A 
HETATM   25  C   UNL     1     -46.146  61.610 -56.532  1.00  0.00     0.068 C 
HETATM   26  C   UNL     1     -45.944  60.216 -50.583  1.00  0.00     0.002 A 
HETATM   27  C   UNL     1     -45.262  59.109 -51.088  1.00  0.00     0.019 A 
HETATM   28  H   UNL     1     -45.074  59.387 -55.278  1.00  0.00     0.166 HD
ENDBRANCH   2  17
TORSDOF 4
ENDMDL
MODEL 8
REMARK VINA RESULT:      -7.6      1.822      3.045
REMARK  4 active torsions:
REMARK  status: ('A' for Active; 'I' for Inactive)
REMARK    1  A    between atoms: C_2  and  C_3 
REMARK    2  A    between atoms: C_6  and  C_7 
REMARK       I    between atoms: C_7  and  N_8 
REMARK    3  A    between atoms: N_8  and  N_9 
REMARK       I    between atoms: N_9  and  C_10 
REMARK    4  A    between atoms: C_10  and  C_11 
ROOT
HETATM    1  N   UNL     1     -44.001  56.238 -57.302  1.00  0.00    -0.263 N 
HETATM    2  C   UNL     1     -43.841  56.355 -58.667  1.00  0.00     0.272 C 
HETATM    3  O   UNL     1     -42.958  55.762 -59.285  1.00  0.00    -0.266 OA
HETATM    4  H   UNL     1     -44.578  56.864 -56.742  1.00  0.00     0.190 HD
ENDROOT
BRANCH   1   5
HETATM    5  N   UNL     1     -43.065  55.484 -56.590  1.00  0.00    -0.263 N 
HETATM    6  C   UNL     1     -43.170  55.455 -55.215  1.00  0.00     0.270 C 
HETATM    7  O   UNL     1     -44.012  56.113 -54.605  1.00  0.00    -0.266 OA
HETATM    8  H   UNL     1     -42.482  54.857 -57.139  1.00  0.00     0.190 HD
BRANCH   6   9
HETATM    9  C   UNL     1     -42.232  54.555 -54.492  1.00  0.00     0.033 A 
HETATM   10  C   UNL     1     -42.367  54.271 -53.127  1.00  0.00     0.017 A 
HETATM   11  C   UNL     1     -41.452  53.424 -52.496  1.00  0.00     0.008 A 
HETATM   12  C   UNL     1     -40.396  52.850 -53.215  1.00  0.00    -0.059 A 
HETATM   13  C   UNL     1     -40.280  53.118 -54.586  1.00  0.00     0.008 A 
HETATM   14  C   UNL     1     -41.194  53.962 -55.219  1.00  0.00     0.017 A 
BRANCH  12  15
HETATM   15  C   UNL     1     -39.418  51.926 -52.535  1.00  0.00     0.034 C 
HETATM   16  C   UNL     1     -39.545  50.496 -53.038  1.00  0.00     0.010 C 
ENDBRANCH  12  15
ENDBRANCH   6   9
ENDBRANCH   1   5
BRANCH   2  17
HETATM   17  C   UNL     1     -44.773  57.282 -59.366  1.00  0.00     0.061 A 
HETATM   18  C   UNL     1     -44.258  58.393 -60.058  1.00  0.00     0.059 A 
HETATM   19  C   UNL     1     -45.065  59.322 -60.711  1.00  0.00    -0.001 A 
HETATM   20  N   UNL     1     -42.955  58.797 -60.237  1.00  0.00    -0.358 N 
HETATM   21  C   UNL     1     -44.203  60.321 -61.274  1.00  0.00    -0.027 A 
HETATM   22  C   UNL     1     -46.461  59.125 -60.693  1.00  0.00     0.014 A 
HETATM   23  C   UNL     1     -44.620  61.522 -62.049  1.00  0.00     0.051 C 
HETATM   24  C   UNL     1     -42.902  59.964 -60.955  1.00  0.00     0.012 A 
HETATM   25  C   UNL     1     -41.601  60.611 -61.262  1.00  0.00     0.068 C 
HETATM   26  C   UNL     1     -46.997  58.012 -60.037  1.00  0.00     0.002 A 
HETATM   27  C   UNL     1     -46.166  57.102 -59.384  1.00  0.00     0.019 A 
HETATM   28  H   UNL     1     -42.161  58.276 -59.881  1.00  0.00     0.166 HD
ENDBRANCH   2  17
TORSDOF 4
ENDMDL
MODEL 9
REMARK VINA RESULT:      -7.6      5.700      9.915
REMARK  4 active torsions:
REMARK  status: ('A' for Active; 'I' for Inactive)
REMARK    1  A    between atoms: C_2  and  C_3 
REMARK    2  A    between atoms: C_6  and  C_7 
REMARK       I    between atoms: C_7  and  N_8 
REMARK    3  A    between atoms: N_8  and  N_9 
REMARK       I    between atoms: N_9  and  C_10 
REMARK    4  A    between atoms: C_10  and  C_11 
ROOT
HETATM    1  N   UNL     1     -44.336  56.884 -52.961  1.00  0.00    -0.263 N 
HETATM    2  C   UNL     1     -42.967  56.724 -52.954  1.00  0.00     0.272 C 
HETATM    3  O   UNL     1     -42.195  57.627 -52.633  1.00  0.00    -0.266 OA
HETATM    4  H   UNL     1     -44.982  56.237 -53.412  1.00  0.00     0.190 HD
ENDROOT
BRANCH   1   5
HETATM    5  N   UNL     1     -44.855  58.149 -52.674  1.00  0.00    -0.263 N 
HETATM    6  C   UNL     1     -45.338  58.375 -51.402  1.00  0.00     0.270 C 
HETATM    7  O   UNL     1     -45.380  57.492 -50.547  1.00  0.00    -0.266 OA
HETATM    8  H   UNL     1     -44.673  58.876 -53.363  1.00  0.00     0.190 HD
BRANCH   6   9
HETATM    9  C   UNL     1     -45.778  59.762 -51.092  1.00  0.00     0.033 A 
HETATM   10  C   UNL     1     -46.529  60.530 -51.990  1.00  0.00     0.017 A 
HETATM   11  C   UNL     1     -46.910  61.831 -51.649  1.00  0.00     0.008 A 
HETATM   12  C   UNL     1     -46.548  62.380 -50.413  1.00  0.00    -0.059 A 
HETATM   13  C   UNL     1     -45.817  61.600 -49.508  1.00  0.00     0.008 A 
HETATM   14  C   UNL     1     -45.437  60.299 -49.844  1.00  0.00     0.017 A 
BRANCH  12  15
HETATM   15  C   UNL     1     -46.971  63.780 -50.042  1.00  0.00     0.034 C 
HETATM   16  C   UNL     1     -48.382  64.090 -50.518  1.00  0.00     0.010 C 
ENDBRANCH  12  15
ENDBRANCH   6   9
ENDBRANCH   1   5
BRANCH   2  17
HETATM   17  C   UNL     1     -42.452  55.402 -53.404  1.00  0.00     0.061 A 
HETATM   18  C   UNL     1     -41.596  54.667 -52.562  1.00  0.00     0.059 A 
HETATM   19  C   UNL     1     -41.049  53.438 -52.922  1.00  0.00    -0.001 A 
HETATM   20  N   UNL     1     -41.132  54.959 -51.300  1.00  0.00    -0.358 N 
HETATM   21  C   UNL     1     -40.214  53.004 -51.840  1.00  0.00    -0.027 A 
HETATM   22  C   UNL     1     -41.386  52.898 -54.180  1.00  0.00     0.014 A 
HETATM   23  C   UNL     1     -39.411  51.752 -51.781  1.00  0.00     0.051 C 
HETATM   24  C   UNL     1     -40.287  53.976 -50.854  1.00  0.00     0.012 A 
HETATM   25  C   UNL     1     -39.641  54.076 -49.520  1.00  0.00     0.068 C 
HETATM   26  C   UNL     1     -42.259  53.594 -55.024  1.00  0.00     0.002 A 
HETATM   27  C   UNL     1     -42.785  54.828 -54.641  1.00  0.00     0.019 A 
HETATM   28  H   UNL     1     -41.403  55.793 -50.791  1.00  0.00     0.166 HD
ENDBRANCH   2  17
TORSDOF 4
ENDMDL
MODEL 10
REMARK VINA RESULT:      -7.6      7.195      9.989
REMARK  4 active torsions:
REMARK  status: ('A' for Active; 'I' for Inactive)
REMARK    1  A    between atoms: C_2  and  C_3 
REMARK    2  A    between atoms: C_6  and  C_7 
REMARK       I    between atoms: C_7  and  N_8 
REMARK    3  A    between atoms: N_8  and  N_9 
REMARK       I    between atoms: N_9  and  C_10 
REMARK    4  A    between atoms: C_10  and  C_11 
ROOT
HETATM    1  N   UNL     1     -44.193  58.466 -51.481  1.00  0.00    -0.263 N 
HETATM    2  C   UNL     1     -43.026  57.748 -51.637  1.00  0.00     0.272 C 
HETATM    3  O   UNL     1     -42.009  57.986 -50.988  1.00  0.00    -0.266 OA
HETATM    4  H   UNL     1     -44.973  58.432 -52.135  1.00  0.00     0.190 HD
ENDROOT
BRANCH   1   5
HETATM    5  N   UNL     1     -44.184  59.560 -50.612  1.00  0.00    -0.263 N 
HETATM    6  C   UNL     1     -45.325  59.812 -49.880  1.00  0.00     0.270 C 
HETATM    7  O   UNL     1     -46.353  59.150 -50.013  1.00  0.00    -0.266 OA
HETATM    8  H   UNL     1     -43.277  59.987 -50.437  1.00  0.00     0.190 HD
BRANCH   6   9
HETATM    9  C   UNL     1     -45.248  60.912 -48.881  1.00  0.00     0.033 A 
HETATM   10  C   UNL     1     -44.837  62.207 -49.220  1.00  0.00     0.017 A 
HETATM   11  C   UNL     1     -44.776  63.201 -48.239  1.00  0.00     0.008 A 
HETATM   12  C   UNL     1     -45.125  62.917 -46.912  1.00  0.00    -0.059 A 
HETATM   13  C   UNL     1     -45.558  61.626 -46.583  1.00  0.00     0.008 A 
HETATM   14  C   UNL     1     -45.622  60.632 -47.561  1.00  0.00     0.017 A 
BRANCH  12  15
HETATM   15  C   UNL     1     -45.070  63.994 -45.858  1.00  0.00     0.034 C 
HETATM   16  C   UNL     1     -44.976  63.411 -44.457  1.00  0.00     0.010 C 
ENDBRANCH  12  15
ENDBRANCH   6   9
ENDBRANCH   1   5
BRANCH   2  17
HETATM   17  C   UNL     1     -43.038  56.682 -52.676  1.00  0.00     0.061 A 
HETATM   18  C   UNL     1     -42.210  55.555 -52.525  1.00  0.00     0.059 A 
HETATM   19  C   UNL     1     -42.142  54.531 -53.467  1.00  0.00    -0.001 A 
HETATM   20  N   UNL     1     -41.344  55.224 -51.508  1.00  0.00    -0.358 N 
HETATM   21  C   UNL     1     -41.182  53.575 -52.995  1.00  0.00    -0.027 A 
HETATM   22  C   UNL     1     -42.957  54.620 -54.613  1.00  0.00     0.014 A 
HETATM   23  C   UNL     1     -40.765  52.320 -53.678  1.00  0.00     0.051 C 
HETATM   24  C   UNL     1     -40.705  54.042 -51.779  1.00  0.00     0.012 A 
HETATM   25  C   UNL     1     -39.704  53.484 -50.835  1.00  0.00     0.068 C 
HETATM   26  C   UNL     1     -43.812  55.717 -54.774  1.00  0.00     0.002 A 
HETATM   27  C   UNL     1     -43.853  56.733 -53.819  1.00  0.00     0.019 A 
HETATM   28  H   UNL     1     -41.223  55.794 -50.678  1.00  0.00     0.166 HD
ENDBRANCH   2  17
TORSDOF 4
ENDMDL
