MODEL 1
REMARK VINA RESULT:      -8.1      0.000      0.000
REMARK  9 active torsions:
REMARK  status: ('A' for Active; 'I' for Inactive)
REMARK    1  A    between atoms: C_2  and  C_3 
REMARK    2  A    between atoms: C_3  and  C_4 
REMARK    3  A    between atoms: C_4  and  O_5 
REMARK    4  A    between atoms: O_5  and  C_6 
REMARK    5  A    between atoms: C_8  and  C_9 
REMARK       I    between atoms: C_9  and  N_10 
REMARK    6  A    between atoms: N_10  and  C_11 
REMARK    7  A    between atoms: N_12  and  C_13 
REMARK    8  A    between atoms: C_15  and  C_16 
REMARK    9  A    between atoms: C_25  and  O_26 
ROOT
HETATM    1  C   UNL     1     -44.491  57.428 -51.786  1.00  0.00     0.179 C 
HETATM    2  N   UNL     1     -44.918  57.379 -53.070  1.00  0.00    -0.333 N 
HETATM    3  S   UNL     1     -45.155  58.557 -50.746  1.00  0.00    -0.040 SA
HETATM    4  H   UNL     1     -45.836  57.784 -53.217  1.00  0.00     0.168 HD
ENDROOT
BRANCH   2   5
HETATM    5  C   UNL     1     -44.229  57.006 -54.243  1.00  0.00     0.035 A 
HETATM    6  C   UNL     1     -43.783  57.931 -55.197  1.00  0.00     0.046 A 
HETATM    7  C   UNL     1     -43.102  57.511 -56.355  1.00  0.00     0.035 A 
HETATM    8  C   UNL     1     -42.871  56.133 -56.517  1.00  0.00     0.078 A 
HETATM    9  C   UNL     1     -43.355  55.204 -55.600  1.00  0.00     0.040 A 
HETATM   10  C   UNL     1     -44.047  55.641 -54.473  1.00  0.00     0.032 A 
BRANCH   7  11
HETATM   11  C   UNL     1     -42.641  58.460 -57.385  1.00  0.00     0.112 A 
HETATM   12  S   UNL     1     -42.095  60.042 -56.987  1.00  0.00    -0.067 SA
HETATM   13  C   UNL     1     -41.923  60.416 -58.658  1.00  0.00     0.035 A 
HETATM   14  C   UNL     1     -42.275  59.296 -59.410  1.00  0.00     0.075 A 
HETATM   15  C   UNL     1     -41.508  61.615 -59.261  1.00  0.00     0.021 A 
HETATM   16  N   UNL     1     -42.704  58.201 -58.679  1.00  0.00    -0.239 NA
HETATM   17  C   UNL     1     -42.186  59.366 -60.815  1.00  0.00     0.033 A 
HETATM   18  C   UNL     1     -41.767  60.553 -61.427  1.00  0.00     0.002 A 
HETATM   19  C   UNL     1     -41.439  61.664 -60.657  1.00  0.00     0.002 A 
ENDBRANCH   7  11
BRANCH   8  20
HETATM   20  O   UNL     1     -42.175  55.619 -57.582  1.00  0.00    -0.360 OA
HETATM   21  H   UNL     1     -41.601  56.332 -57.934  1.00  0.00     0.217 HD
ENDBRANCH   8  20
ENDBRANCH   2   5
BRANCH   1  22
HETATM   22  N   UNL     1     -43.562  56.561 -51.290  1.00  0.00    -0.299 N 
HETATM   23  C   UNL     1     -42.175  56.682 -51.294  1.00  0.00     0.257 C 
HETATM   24  O   UNL     1     -41.542  57.557 -51.872  1.00  0.00    -0.267 OA
HETATM   25  H   UNL     1     -43.912  55.614 -51.223  1.00  0.00     0.171 HD
BRANCH  23  26
HETATM   26  C   UNL     1     -41.436  55.584 -50.605  1.00  0.00     0.035 A 
HETATM   27  C   UNL     1     -40.696  54.684 -51.390  1.00  0.00     0.053 A 
HETATM   28  C   UNL     1     -39.998  53.639 -50.787  1.00  0.00     0.069 A 
HETATM   29  C   UNL     1     -40.045  53.492 -49.399  1.00  0.00     0.037 A 
HETATM   30  C   UNL     1     -40.754  54.398 -48.609  1.00  0.00     0.004 A 
HETATM   31  C   UNL     1     -41.445  55.450 -49.209  1.00  0.00     0.017 A 
BRANCH  28  32
HETATM   32  O   UNL     1     -39.262  52.690 -51.438  1.00  0.00    -0.351 OA
BRANCH  32  33
HETATM   33  C   UNL     1     -39.989  51.640 -52.081  1.00  0.00     0.175 C 
BRANCH  33  34
HETATM   34  C   UNL     1     -39.696  51.732 -53.578  1.00  0.00     0.026 C 
BRANCH  34  35
HETATM   35  C   UNL     1     -40.743  52.558 -54.317  1.00  0.00    -0.002 C 
HETATM   36  C   UNL     1     -40.122  53.785 -54.968  1.00  0.00     0.005 C 
ENDBRANCH  34  35
ENDBRANCH  33  34
ENDBRANCH  32  33
ENDBRANCH  28  32
ENDBRANCH  23  26
ENDBRANCH   1  22
TORSDOF 9
ENDMDL
MODEL 2
REMARK VINA RESULT:      -8.0      2.713      7.864
REMARK  9 active torsions:
REMARK  status: ('A' for Active; 'I' for Inactive)
REMARK    1  A    between atoms: C_2  and  C_3 
REMARK    2  A    between atoms: C_3  and  C_4 
REMARK    3  A    between atoms: C_4  and  O_5 
REMARK    4  A    between atoms: O_5  and  C_6 
REMARK    5  A    between atoms: C_8  and  C_9 
REMARK       I    between atoms: C_9  and  N_10 
REMARK    6  A    between atoms: N_10  and  C_11 
REMARK    7  A    between atoms: N_12  and  C_13 
REMARK    8  A    between atoms: C_15  and  C_16 
REMARK    9  A    between atoms: C_25  and  O_26 
ROOT
HETATM    1  C   UNL     1     -43.178  61.225 -53.292  1.00  0.00     0.179 C 
HETATM    2  N   UNL     1     -43.039  60.528 -52.140  1.00  0.00    -0.333 N 
HETATM    3  S   UNL     1     -43.420  62.878 -53.223  1.00  0.00    -0.040 SA
HETATM    4  H   UNL     1     -42.747  61.090 -51.348  1.00  0.00     0.168 HD
ENDROOT
BRANCH   2   5
HETATM    5  C   UNL     1     -43.387  59.195 -51.836  1.00  0.00     0.035 A 
HETATM    6  C   UNL     1     -42.579  58.097 -52.163  1.00  0.00     0.046 A 
HETATM    7  C   UNL     1     -42.970  56.784 -51.842  1.00  0.00     0.035 A 
HETATM    8  C   UNL     1     -44.193  56.609 -51.170  1.00  0.00     0.078 A 
HETATM    9  C   UNL     1     -45.026  57.689 -50.888  1.00  0.00     0.040 A 
HETATM   10  C   UNL     1     -44.629  58.978 -51.235  1.00  0.00     0.032 A 
BRANCH   7  11
HETATM   11  C   UNL     1     -42.150  55.610 -52.193  1.00  0.00     0.112 A 
HETATM   12  S   UNL     1     -42.061  55.009 -53.803  1.00  0.00    -0.067 SA
HETATM   13  C   UNL     1     -41.093  53.690 -53.269  1.00  0.00     0.035 A 
HETATM   14  C   UNL     1     -40.883  53.810 -51.895  1.00  0.00     0.075 A 
HETATM   15  C   UNL     1     -40.559  52.624 -54.012  1.00  0.00     0.021 A 
HETATM   16  N   UNL     1     -41.507  54.889 -51.292  1.00  0.00    -0.239 NA
HETATM   17  C   UNL     1     -40.090  52.845 -51.243  1.00  0.00     0.033 A 
HETATM   18  C   UNL     1     -39.547  51.782 -51.973  1.00  0.00     0.002 A 
HETATM   19  C   UNL     1     -39.785  51.672 -53.339  1.00  0.00     0.002 A 
ENDBRANCH   7  11
BRANCH   8  20
HETATM   20  O   UNL     1     -44.647  55.379 -50.766  1.00  0.00    -0.360 OA
HETATM   21  H   UNL     1     -44.136  55.121 -49.970  1.00  0.00     0.217 HD
ENDBRANCH   8  20
ENDBRANCH   2   5
BRANCH   1  22
HETATM   22  N   UNL     1     -43.089  60.636 -54.519  1.00  0.00    -0.299 N 
HETATM   23  C   UNL     1     -42.046  59.874 -55.039  1.00  0.00     0.257 C 
HETATM   24  O   UNL     1     -40.954  59.709 -54.507  1.00  0.00    -0.267 OA
HETATM   25  H   UNL     1     -43.684  61.078 -55.207  1.00  0.00     0.171 HD
BRANCH  23  26
HETATM   26  C   UNL     1     -42.285  59.308 -56.400  1.00  0.00     0.035 A 
HETATM   27  C   UNL     1     -42.729  57.979 -56.499  1.00  0.00     0.053 A 
HETATM   28  C   UNL     1     -42.957  57.409 -57.751  1.00  0.00     0.069 A 
HETATM   29  C   UNL     1     -42.734  58.168 -58.902  1.00  0.00     0.037 A 
HETATM   30  C   UNL     1     -42.320  59.497 -58.811  1.00  0.00     0.004 A 
HETATM   31  C   UNL     1     -42.102  60.072 -57.560  1.00  0.00     0.017 A 
BRANCH  28  32
HETATM   32  O   UNL     1     -43.368  56.126 -57.981  1.00  0.00    -0.351 OA
BRANCH  32  33
HETATM   33  C   UNL     1     -43.106  55.589 -59.279  1.00  0.00     0.175 C 
BRANCH  33  34
HETATM   34  C   UNL     1     -44.311  54.736 -59.672  1.00  0.00     0.026 C 
BRANCH  34  35
HETATM   35  C   UNL     1     -45.134  55.385 -60.781  1.00  0.00    -0.002 C 
HETATM   36  C   UNL     1     -46.395  56.031 -60.228  1.00  0.00     0.005 C 
ENDBRANCH  34  35
ENDBRANCH  33  34
ENDBRANCH  32  33
ENDBRANCH  28  32
ENDBRANCH  23  26
ENDBRANCH   1  22
TORSDOF 9
ENDMDL
MODEL 3
REMARK VINA RESULT:      -7.9      2.847      7.942
REMARK  9 active torsions:
REMARK  status: ('A' for Active; 'I' for Inactive)
REMARK    1  A    between atoms: C_2  and  C_3 
REMARK    2  A    between atoms: C_3  and  C_4 
REMARK    3  A    between atoms: C_4  and  O_5 
REMARK    4  A    between atoms: O_5  and  C_6 
REMARK    5  A    between atoms: C_8  and  C_9 
REMARK       I    between atoms: C_9  and  N_10 
REMARK    6  A    between atoms: N_10  and  C_11 
REMARK    7  A    between atoms: N_12  and  C_13 
REMARK    8  A    between atoms: C_15  and  C_16 
REMARK    9  A    between atoms: C_25  and  O_26 
ROOT
HETATM    1  C   UNL     1     -43.122  61.417 -53.440  1.00  0.00     0.179 C 
HETATM    2  N   UNL     1     -42.876  60.713 -52.310  1.00  0.00    -0.333 N 
HETATM    3  S   UNL     1     -43.138  63.088 -53.375  1.00  0.00    -0.040 SA
HETATM    4  H   UNL     1     -42.384  61.237 -51.594  1.00  0.00     0.168 HD
ENDROOT
BRANCH   2   5
HETATM    5  C   UNL     1     -43.332  59.438 -51.916  1.00  0.00     0.035 A 
HETATM    6  C   UNL     1     -42.592  58.263 -52.111  1.00  0.00     0.046 A 
HETATM    7  C   UNL     1     -43.091  57.012 -51.705  1.00  0.00     0.035 A 
HETATM    8  C   UNL     1     -44.351  56.979 -51.082  1.00  0.00     0.078 A 
HETATM    9  C   UNL     1     -45.115  58.133 -50.930  1.00  0.00     0.040 A 
HETATM   10  C   UNL     1     -44.612  59.358 -51.361  1.00  0.00     0.032 A 
BRANCH   7  11
HETATM   11  C   UNL     1     -42.342  55.759 -51.918  1.00  0.00     0.112 A 
HETATM   12  S   UNL     1     -41.332  55.083 -50.701  1.00  0.00    -0.067 SA
HETATM   13  C   UNL     1     -40.825  53.851 -51.789  1.00  0.00     0.035 A 
HETATM   14  C   UNL     1     -41.480  54.027 -53.008  1.00  0.00     0.075 A 
HETATM   15  C   UNL     1     -39.910  52.805 -51.582  1.00  0.00     0.021 A 
HETATM   16  N   UNL     1     -42.320  55.126 -53.076  1.00  0.00    -0.239 NA
HETATM   17  C   UNL     1     -41.235  53.110 -54.049  1.00  0.00     0.033 A 
HETATM   18  C   UNL     1     -40.332  52.059 -53.852  1.00  0.00     0.002 A 
HETATM   19  C   UNL     1     -39.674  51.915 -52.635  1.00  0.00     0.002 A 
ENDBRANCH   7  11
BRANCH   8  20
HETATM   20  O   UNL     1     -44.910  55.822 -50.602  1.00  0.00    -0.360 OA
HETATM   21  H   UNL     1     -45.450  55.431 -51.321  1.00  0.00     0.217 HD
ENDBRANCH   8  20
ENDBRANCH   2   5
BRANCH   1  22
HETATM   22  N   UNL     1     -43.320  60.815 -54.648  1.00  0.00    -0.299 N 
HETATM   23  C   UNL     1     -42.456  59.978 -55.350  1.00  0.00     0.257 C 
HETATM   24  O   UNL     1     -41.293  59.741 -55.043  1.00  0.00    -0.267 OA
HETATM   25  H   UNL     1     -44.010  61.294 -55.213  1.00  0.00     0.171 HD
BRANCH  23  26
HETATM   26  C   UNL     1     -43.000  59.422 -56.624  1.00  0.00     0.035 A 
HETATM   27  C   UNL     1     -43.133  58.029 -56.738  1.00  0.00     0.053 A 
HETATM   28  C   UNL     1     -43.629  57.467 -57.914  1.00  0.00     0.069 A 
HETATM   29  C   UNL     1     -43.986  58.301 -58.976  1.00  0.00     0.037 A 
HETATM   30  C   UNL     1     -43.883  59.688 -58.860  1.00  0.00     0.004 A 
HETATM   31  C   UNL     1     -43.398  60.252 -57.681  1.00  0.00     0.017 A 
BRANCH  28  32
HETATM   32  O   UNL     1     -43.787  56.132 -58.157  1.00  0.00    -0.351 OA
BRANCH  32  33
HETATM   33  C   UNL     1     -43.316  55.646 -59.416  1.00  0.00     0.175 C 
BRANCH  33  34
HETATM   34  C   UNL     1     -44.363  54.669 -59.948  1.00  0.00     0.026 C 
BRANCH  34  35
HETATM   35  C   UNL     1     -45.182  55.271 -61.085  1.00  0.00    -0.002 C 
HETATM   36  C   UNL     1     -46.441  55.946 -60.564  1.00  0.00     0.005 C 
ENDBRANCH  34  35
ENDBRANCH  33  34
ENDBRANCH  32  33
ENDBRANCH  28  32
ENDBRANCH  23  26
ENDBRANCH   1  22
TORSDOF 9
ENDMDL
MODEL 4
REMARK VINA RESULT:      -7.8      2.846      7.404
REMARK  9 active torsions:
REMARK  status: ('A' for Active; 'I' for Inactive)
REMARK    1  A    between atoms: C_2  and  C_3 
REMARK    2  A    between atoms: C_3  and  C_4 
REMARK    3  A    between atoms: C_4  and  O_5 
REMARK    4  A    between atoms: O_5  and  C_6 
REMARK    5  A    between atoms: C_8  and  C_9 
REMARK       I    between atoms: C_9  and  N_10 
REMARK    6  A    between atoms: N_10  and  C_11 
REMARK    7  A    between atoms: N_12  and  C_13 
REMARK    8  A    between atoms: C_15  and  C_16 
REMARK    9  A    between atoms: C_25  and  O_26 
ROOT
HETATM    1  C   UNL     1     -43.243  61.873 -55.888  1.00  0.00     0.179 C 
HETATM    2  N   UNL     1     -42.846  62.368 -54.691  1.00  0.00    -0.333 N 
HETATM    3  S   UNL     1     -43.739  62.930 -57.086  1.00  0.00    -0.040 SA
HETATM    4  H   UNL     1     -42.551  63.338 -54.722  1.00  0.00     0.168 HD
ENDROOT
BRANCH   2   5
HETATM    5  C   UNL     1     -42.932  61.805 -53.402  1.00  0.00     0.035 A 
HETATM    6  C   UNL     1     -42.641  60.460 -53.130  1.00  0.00     0.046 A 
HETATM    7  C   UNL     1     -42.745  59.941 -51.826  1.00  0.00     0.035 A 
HETATM    8  C   UNL     1     -43.136  60.820 -50.800  1.00  0.00     0.078 A 
HETATM    9  C   UNL     1     -43.476  62.143 -51.068  1.00  0.00     0.040 A 
HETATM   10  C   UNL     1     -43.389  62.629 -52.371  1.00  0.00     0.032 A 
BRANCH   7  11
HETATM   11  C   UNL     1     -42.467  58.527 -51.518  1.00  0.00     0.112 A 
HETATM   12  S   UNL     1     -40.969  58.019 -50.841  1.00  0.00    -0.067 SA
HETATM   13  C   UNL     1     -41.460  56.374 -50.956  1.00  0.00     0.035 A 
HETATM   14  C   UNL     1     -42.749  56.324 -51.486  1.00  0.00     0.075 A 
HETATM   15  C   UNL     1     -40.754  55.211 -50.606  1.00  0.00     0.021 A 
HETATM   16  N   UNL     1     -43.300  57.549 -51.823  1.00  0.00    -0.239 NA
HETATM   17  C   UNL     1     -43.367  55.068 -51.648  1.00  0.00     0.033 A 
HETATM   18  C   UNL     1     -42.678  53.903 -51.296  1.00  0.00     0.002 A 
HETATM   19  C   UNL     1     -41.385  53.976 -50.787  1.00  0.00     0.002 A 
ENDBRANCH   7  11
BRANCH   8  20
HETATM   20  O   UNL     1     -43.221  60.433 -49.486  1.00  0.00    -0.360 OA
HETATM   21  H   UNL     1     -44.141  60.595 -49.187  1.00  0.00     0.217 HD
ENDBRANCH   8  20
ENDBRANCH   2   5
BRANCH   1  22
HETATM   22  N   UNL     1     -43.216  60.540 -56.173  1.00  0.00    -0.299 N 
HETATM   23  C   UNL     1     -42.225  59.814 -56.828  1.00  0.00     0.257 C 
HETATM   24  O   UNL     1     -41.242  60.295 -57.381  1.00  0.00    -0.267 OA
HETATM   25  H   UNL     1     -44.141  60.130 -56.202  1.00  0.00     0.171 HD
BRANCH  23  26
HETATM   26  C   UNL     1     -42.466  58.344 -56.924  1.00  0.00     0.035 A 
HETATM   27  C   UNL     1     -42.141  57.544 -55.816  1.00  0.00     0.053 A 
HETATM   28  C   UNL     1     -42.343  56.165 -55.866  1.00  0.00     0.069 A 
HETATM   29  C   UNL     1     -42.864  55.589 -57.027  1.00  0.00     0.037 A 
HETATM   30  C   UNL     1     -43.216  56.380 -58.121  1.00  0.00     0.004 A 
HETATM   31  C   UNL     1     -43.025  57.760 -58.069  1.00  0.00     0.017 A 
BRANCH  28  32
HETATM   32  O   UNL     1     -42.050  55.278 -54.869  1.00  0.00    -0.351 OA
BRANCH  32  33
HETATM   33  C   UNL     1     -40.687  55.216 -54.443  1.00  0.00     0.175 C 
BRANCH  33  34
HETATM   34  C   UNL     1     -40.145  53.846 -54.849  1.00  0.00     0.026 C 
BRANCH  34  35
HETATM   35  C   UNL     1     -41.032  52.709 -54.352  1.00  0.00    -0.002 C 
HETATM   36  C   UNL     1     -40.232  51.432 -54.148  1.00  0.00     0.005 C 
ENDBRANCH  34  35
ENDBRANCH  33  34
ENDBRANCH  32  33
ENDBRANCH  28  32
ENDBRANCH  23  26
ENDBRANCH   1  22
TORSDOF 9
ENDMDL
MODEL 5
REMARK VINA RESULT:      -7.6      3.159      8.688
REMARK  9 active torsions:
REMARK  status: ('A' for Active; 'I' for Inactive)
REMARK    1  A    between atoms: C_2  and  C_3 
REMARK    2  A    between atoms: C_3  and  C_4 
REMARK    3  A    between atoms: C_4  and  O_5 
REMARK    4  A    between atoms: O_5  and  C_6 
REMARK    5  A    between atoms: C_8  and  C_9 
REMARK       I    between atoms: C_9  and  N_10 
REMARK    6  A    between atoms: N_10  and  C_11 
REMARK    7  A    between atoms: N_12  and  C_13 
REMARK    8  A    between atoms: C_15  and  C_16 
REMARK    9  A    between atoms: C_25  and  O_26 
ROOT
HETATM    1  C   UNL     1     -43.167  60.586 -55.191  1.00  0.00     0.179 C 
HETATM    2  N   UNL     1     -42.831  60.157 -53.952  1.00  0.00    -0.333 N 
HETATM    3  S   UNL     1     -43.401  62.221 -55.454  1.00  0.00    -0.040 SA
HETATM    4  H   UNL     1     -42.412  60.870 -53.366  1.00  0.00     0.168 HD
ENDROOT
BRANCH   2   5
HETATM    5  C   UNL     1     -43.117  58.937 -53.305  1.00  0.00     0.035 A 
HETATM    6  C   UNL     1     -42.334  57.784 -53.458  1.00  0.00     0.046 A 
HETATM    7  C   UNL     1     -42.662  56.587 -52.794  1.00  0.00     0.035 A 
HETATM    8  C   UNL     1     -43.793  56.588 -51.959  1.00  0.00     0.078 A 
HETATM    9  C   UNL     1     -44.605  57.713 -51.841  1.00  0.00     0.040 A 
HETATM   10  C   UNL     1     -44.275  58.880 -52.526  1.00  0.00     0.032 A 
BRANCH   7  11
HETATM   11  C   UNL     1     -41.867  55.355 -52.955  1.00  0.00     0.112 A 
HETATM   12  S   UNL     1     -41.780  54.517 -54.455  1.00  0.00    -0.067 SA
HETATM   13  C   UNL     1     -40.850  53.271 -53.718  1.00  0.00     0.035 A 
HETATM   14  C   UNL     1     -40.649  53.591 -52.375  1.00  0.00     0.075 A 
HETATM   15  C   UNL     1     -40.336  52.093 -54.286  1.00  0.00     0.021 A 
HETATM   16  N   UNL     1     -41.251  54.763 -51.948  1.00  0.00    -0.239 NA
HETATM   17  C   UNL     1     -39.886  52.716 -51.575  1.00  0.00     0.033 A 
HETATM   18  C   UNL     1     -39.363  51.544 -52.131  1.00  0.00     0.002 A 
HETATM   19  C   UNL     1     -39.592  51.235 -53.469  1.00  0.00     0.002 A 
ENDBRANCH   7  11
BRANCH   8  20
HETATM   20  O   UNL     1     -44.174  55.493 -51.227  1.00  0.00    -0.360 OA
HETATM   21  H   UNL     1     -43.521  55.377 -50.504  1.00  0.00     0.217 HD
ENDBRANCH   8  20
ENDBRANCH   2   5
BRANCH   1  22
HETATM   22  N   UNL     1     -43.284  59.738 -56.253  1.00  0.00    -0.299 N 
HETATM   23  C   UNL     1     -42.377  59.512 -57.285  1.00  0.00     0.257 C 
HETATM   24  O   UNL     1     -41.349  60.151 -57.478  1.00  0.00    -0.267 OA
HETATM   25  H   UNL     1     -44.247  59.518 -56.470  1.00  0.00     0.171 HD
BRANCH  23  26
HETATM   26  C   UNL     1     -42.775  58.461 -58.267  1.00  0.00     0.035 A 
HETATM   27  C   UNL     1     -44.112  58.033 -58.279  1.00  0.00     0.053 A 
HETATM   28  C   UNL     1     -44.524  57.047 -59.174  1.00  0.00     0.069 A 
HETATM   29  C   UNL     1     -43.595  56.487 -60.054  1.00  0.00     0.037 A 
HETATM   30  C   UNL     1     -42.271  56.926 -60.068  1.00  0.00     0.004 A 
HETATM   31  C   UNL     1     -41.860  57.920 -59.180  1.00  0.00     0.017 A 
BRANCH  28  32
HETATM   32  O   UNL     1     -45.786  56.532 -59.270  1.00  0.00    -0.351 OA
BRANCH  32  33
HETATM   33  C   UNL     1     -46.442  56.664 -60.534  1.00  0.00     0.175 C 
BRANCH  33  34
HETATM   34  C   UNL     1     -47.117  58.034 -60.555  1.00  0.00     0.026 C 
BRANCH  34  35
HETATM   35  C   UNL     1     -48.104  58.168 -61.710  1.00  0.00    -0.002 C 
HETATM   36  C   UNL     1     -48.538  56.806 -62.228  1.00  0.00     0.005 C 
ENDBRANCH  34  35
ENDBRANCH  33  34
ENDBRANCH  32  33
ENDBRANCH  28  32
ENDBRANCH  23  26
ENDBRANCH   1  22
TORSDOF 9
ENDMDL
MODEL 6
REMARK VINA RESULT:      -7.6      2.794      8.283
REMARK  9 active torsions:
REMARK  status: ('A' for Active; 'I' for Inactive)
REMARK    1  A    between atoms: C_2  and  C_3 
REMARK    2  A    between atoms: C_3  and  C_4 
REMARK    3  A    between atoms: C_4  and  O_5 
REMARK    4  A    between atoms: O_5  and  C_6 
REMARK    5  A    between atoms: C_8  and  C_9 
REMARK       I    between atoms: C_9  and  N_10 
REMARK    6  A    between atoms: N_10  and  C_11 
REMARK    7  A    between atoms: N_12  and  C_13 
REMARK    8  A    between atoms: C_15  and  C_16 
REMARK    9  A    between atoms: C_25  and  O_26 
ROOT
HETATM    1  C   UNL     1     -42.860  61.186 -54.006  1.00  0.00     0.179 C 
HETATM    2  N   UNL     1     -42.925  60.095 -53.207  1.00  0.00    -0.333 N 
HETATM    3  S   UNL     1     -43.132  62.699 -53.347  1.00  0.00    -0.040 SA
HETATM    4  H   UNL     1     -42.791  60.294 -52.222  1.00  0.00     0.168 HD
ENDROOT
BRANCH   2   5
HETATM    5  C   UNL     1     -43.305  58.771 -53.508  1.00  0.00     0.035 A 
HETATM    6  C   UNL     1     -42.531  57.653 -53.166  1.00  0.00     0.046 A 
HETATM    7  C   UNL     1     -42.950  56.349 -53.491  1.00  0.00     0.035 A 
HETATM    8  C   UNL     1     -44.180  56.202 -54.158  1.00  0.00     0.078 A 
HETATM    9  C   UNL     1     -44.930  57.309 -54.546  1.00  0.00     0.040 A 
HETATM   10  C   UNL     1     -44.484  58.591 -54.235  1.00  0.00     0.032 A 
BRANCH   7  11
HETATM   11  C   UNL     1     -42.145  55.159 -53.162  1.00  0.00     0.112 A 
HETATM   12  S   UNL     1     -41.386  54.966 -51.630  1.00  0.00    -0.067 SA
HETATM   13  C   UNL     1     -40.640  53.512 -52.168  1.00  0.00     0.035 A 
HETATM   14  C   UNL     1     -41.039  53.259 -53.481  1.00  0.00     0.075 A 
HETATM   15  C   UNL     1     -39.762  52.658 -51.481  1.00  0.00     0.021 A 
HETATM   16  N   UNL     1     -41.873  54.212 -54.042  1.00  0.00    -0.239 NA
HETATM   17  C   UNL     1     -40.565  52.096 -54.122  1.00  0.00     0.033 A 
HETATM   18  C   UNL     1     -39.696  51.234 -53.444  1.00  0.00     0.002 A 
HETATM   19  C   UNL     1     -39.296  51.517 -52.142  1.00  0.00     0.002 A 
ENDBRANCH   7  11
BRANCH   8  20
HETATM   20  O   UNL     1     -44.707  54.977 -54.477  1.00  0.00    -0.360 OA
HETATM   21  H   UNL     1     -45.500  55.130 -55.034  1.00  0.00     0.217 HD
ENDBRANCH   8  20
ENDBRANCH   2   5
BRANCH   1  22
HETATM   22  N   UNL     1     -42.538  61.107 -55.329  1.00  0.00    -0.299 N 
HETATM   23  C   UNL     1     -43.374  61.251 -56.433  1.00  0.00     0.257 C 
HETATM   24  O   UNL     1     -44.594  61.354 -56.390  1.00  0.00    -0.267 OA
HETATM   25  H   UNL     1     -41.696  60.569 -55.493  1.00  0.00     0.171 HD
BRANCH  23  26
HETATM   26  C   UNL     1     -42.697  61.175 -57.761  1.00  0.00     0.035 A 
HETATM   27  C   UNL     1     -42.797  59.980 -58.492  1.00  0.00     0.053 A 
HETATM   28  C   UNL     1     -42.173  59.865 -59.734  1.00  0.00     0.069 A 
HETATM   29  C   UNL     1     -41.445  60.944 -60.239  1.00  0.00     0.037 A 
HETATM   30  C   UNL     1     -41.364  62.144 -59.532  1.00  0.00     0.004 A 
HETATM   31  C   UNL     1     -41.996  62.265 -58.296  1.00  0.00     0.017 A 
BRANCH  28  32
HETATM   32  O   UNL     1     -42.178  58.754 -60.529  1.00  0.00    -0.351 OA
BRANCH  32  33
HETATM   33  C   UNL     1     -43.254  57.832 -60.343  1.00  0.00     0.175 C 
BRANCH  33  34
HETATM   34  C   UNL     1     -42.659  56.546 -59.772  1.00  0.00     0.026 C 
BRANCH  34  35
HETATM   35  C   UNL     1     -43.577  55.899 -58.741  1.00  0.00    -0.002 C 
HETATM   36  C   UNL     1     -42.861  55.691 -57.415  1.00  0.00     0.005 C 
ENDBRANCH  34  35
ENDBRANCH  33  34
ENDBRANCH  32  33
ENDBRANCH  28  32
ENDBRANCH  23  26
ENDBRANCH   1  22
TORSDOF 9
ENDMDL
MODEL 7
REMARK VINA RESULT:      -7.6      2.574      3.447
REMARK  9 active torsions:
REMARK  status: ('A' for Active; 'I' for Inactive)
REMARK    1  A    between atoms: C_2  and  C_3 
REMARK    2  A    between atoms: C_3  and  C_4 
REMARK    3  A    between atoms: C_4  and  O_5 
REMARK    4  A    between atoms: O_5  and  C_6 
REMARK    5  A    between atoms: C_8  and  C_9 
REMARK       I    between atoms: C_9  and  N_10 
REMARK    6  A    between atoms: N_10  and  C_11 
REMARK    7  A    between atoms: N_12  and  C_13 
REMARK    8  A    between atoms: C_15  and  C_16 
REMARK    9  A    between atoms: C_25  and  O_26 
ROOT
HETATM    1  C   UNL     1     -44.543  59.248 -51.574  1.00  0.00     0.179 C 
HETATM    2  N   UNL     1     -44.856  59.739 -52.797  1.00  0.00    -0.333 N 
HETATM    3  S   UNL     1     -45.064  60.061 -50.209  1.00  0.00    -0.040 SA
HETATM    4  H   UNL     1     -45.660  60.356 -52.802  1.00  0.00     0.168 HD
ENDROOT
BRANCH   2   5
HETATM    5  C   UNL     1     -44.151  59.656 -54.016  1.00  0.00     0.035 A 
HETATM    6  C   UNL     1     -44.610  58.923 -55.119  1.00  0.00     0.046 A 
HETATM    7  C   UNL     1     -43.869  58.867 -56.315  1.00  0.00     0.035 A 
HETATM    8  C   UNL     1     -42.661  59.584 -56.372  1.00  0.00     0.078 A 
HETATM    9  C   UNL     1     -42.173  60.273 -55.265  1.00  0.00     0.040 A 
HETATM   10  C   UNL     1     -42.911  60.295 -54.084  1.00  0.00     0.032 A 
BRANCH   7  11
HETATM   11  C   UNL     1     -44.318  58.085 -57.482  1.00  0.00     0.112 A 
HETATM   12  S   UNL     1     -45.817  58.397 -58.266  1.00  0.00    -0.067 SA
HETATM   13  C   UNL     1     -45.569  57.047 -59.303  1.00  0.00     0.035 A 
HETATM   14  C   UNL     1     -44.343  56.459 -58.995  1.00  0.00     0.075 A 
HETATM   15  C   UNL     1     -46.401  56.542 -60.316  1.00  0.00     0.021 A 
HETATM   16  N   UNL     1     -43.653  57.042 -57.944  1.00  0.00    -0.239 NA
HETATM   17  C   UNL     1     -43.918  55.342 -59.741  1.00  0.00     0.033 A 
HETATM   18  C   UNL     1     -44.734  54.834 -60.758  1.00  0.00     0.002 A 
HETATM   19  C   UNL     1     -45.963  55.425 -61.036  1.00  0.00     0.002 A 
ENDBRANCH   7  11
BRANCH   8  20
HETATM   20  O   UNL     1     -41.886  59.639 -57.503  1.00  0.00    -0.360 OA
HETATM   21  H   UNL     1     -42.284  59.035 -58.166  1.00  0.00     0.217 HD
ENDBRANCH   8  20
ENDBRANCH   2   5
BRANCH   1  22
HETATM   22  N   UNL     1     -43.850  58.084 -51.408  1.00  0.00    -0.299 N 
HETATM   23  C   UNL     1     -42.480  57.912 -51.228  1.00  0.00     0.257 C 
HETATM   24  O   UNL     1     -41.636  58.796 -51.316  1.00  0.00    -0.267 OA
HETATM   25  H   UNL     1     -44.340  57.283 -51.783  1.00  0.00     0.171 HD
BRANCH  23  26
HETATM   26  C   UNL     1     -42.038  56.504 -51.004  1.00  0.00     0.035 A 
HETATM   27  C   UNL     1     -42.293  55.558 -52.010  1.00  0.00     0.053 A 
HETATM   28  C   UNL     1     -41.904  54.230 -51.838  1.00  0.00     0.069 A 
HETATM   29  C   UNL     1     -41.264  53.850 -50.656  1.00  0.00     0.037 A 
HETATM   30  C   UNL     1     -40.981  54.789 -49.664  1.00  0.00     0.004 A 
HETATM   31  C   UNL     1     -41.360  56.119 -49.839  1.00  0.00     0.017 A 
BRANCH  28  32
HETATM   32  O   UNL     1     -42.113  53.215 -52.728  1.00  0.00    -0.351 OA
BRANCH  32  33
HETATM   33  C   UNL     1     -41.731  53.458 -54.084  1.00  0.00     0.175 C 
BRANCH  33  34
HETATM   34  C   UNL     1     -40.234  53.176 -54.194  1.00  0.00     0.026 C 
BRANCH  34  35
HETATM   35  C   UNL     1     -39.845  51.873 -53.503  1.00  0.00    -0.002 C 
HETATM   36  C   UNL     1     -40.242  50.664 -54.337  1.00  0.00     0.005 C 
ENDBRANCH  34  35
ENDBRANCH  33  34
ENDBRANCH  32  33
ENDBRANCH  28  32
ENDBRANCH  23  26
ENDBRANCH   1  22
TORSDOF 9
ENDMDL
MODEL 8
REMARK VINA RESULT:      -7.6      2.842      4.097
REMARK  9 active torsions:
REMARK  status: ('A' for Active; 'I' for Inactive)
REMARK    1  A    between atoms: C_2  and  C_3 
REMARK    2  A    between atoms: C_3  and  C_4 
REMARK    3  A    between atoms: C_4  and  O_5 
REMARK    4  A    between atoms: O_5  and  C_6 
REMARK    5  A    between atoms: C_8  and  C_9 
REMARK       I    between atoms: C_9  and  N_10 
REMARK    6  A    between atoms: N_10  and  C_11 
REMARK    7  A    between atoms: N_12  and  C_13 
REMARK    8  A    between atoms: C_15  and  C_16 
REMARK    9  A    between atoms: C_25  and  O_26 
ROOT
HETATM    1  C   UNL     1     -42.649  59.476 -52.161  1.00  0.00     0.179 C 
HETATM    2  N   UNL     1     -43.452  60.183 -52.991  1.00  0.00    -0.333 N 
HETATM    3  S   UNL     1     -42.343  60.061 -50.625  1.00  0.00    -0.040 SA
HETATM    4  H   UNL     1     -44.078  60.824 -52.515  1.00  0.00     0.168 HD
ENDROOT
BRANCH   2   5
HETATM    5  C   UNL     1     -43.441  60.285 -54.397  1.00  0.00     0.035 A 
HETATM    6  C   UNL     1     -43.797  59.227 -55.246  1.00  0.00     0.046 A 
HETATM    7  C   UNL     1     -43.767  59.375 -56.646  1.00  0.00     0.035 A 
HETATM    8  C   UNL     1     -43.381  60.624 -57.165  1.00  0.00     0.078 A 
HETATM    9  C   UNL     1     -42.977  61.663 -56.331  1.00  0.00     0.040 A 
HETATM   10  C   UNL     1     -42.992  61.487 -54.949  1.00  0.00     0.032 A 
BRANCH   7  11
HETATM   11  C   UNL     1     -44.115  58.273 -57.561  1.00  0.00     0.112 A 
HETATM   12  S   UNL     1     -43.071  56.929 -57.808  1.00  0.00    -0.067 SA
HETATM   13  C   UNL     1     -44.133  56.309 -59.011  1.00  0.00     0.035 A 
HETATM   14  C   UNL     1     -45.230  57.163 -59.129  1.00  0.00     0.075 A 
HETATM   15  C   UNL     1     -44.005  55.152 -59.798  1.00  0.00     0.021 A 
HETATM   16  N   UNL     1     -45.197  58.286 -58.319  1.00  0.00    -0.239 NA
HETATM   17  C   UNL     1     -46.249  56.837 -60.046  1.00  0.00     0.033 A 
HETATM   18  C   UNL     1     -46.136  55.683 -60.829  1.00  0.00     0.002 A 
HETATM   19  C   UNL     1     -45.024  54.856 -60.709  1.00  0.00     0.002 A 
ENDBRANCH   7  11
BRANCH   8  20
HETATM   20  O   UNL     1     -43.365  60.893 -58.510  1.00  0.00    -0.360 OA
HETATM   21  H   UNL     1     -44.247  60.660 -58.871  1.00  0.00     0.217 HD
ENDBRANCH   8  20
ENDBRANCH   2   5
BRANCH   1  22
HETATM   22  N   UNL     1     -42.107  58.275 -52.515  1.00  0.00    -0.299 N 
HETATM   23  C   UNL     1     -42.756  57.061 -52.725  1.00  0.00     0.257 C 
HETATM   24  O   UNL     1     -43.941  56.841 -52.499  1.00  0.00    -0.267 OA
HETATM   25  H   UNL     1     -41.128  58.203 -52.272  1.00  0.00     0.171 HD
BRANCH  23  26
HETATM   26  C   UNL     1     -41.881  55.938 -53.175  1.00  0.00     0.035 A 
HETATM   27  C   UNL     1     -41.658  54.872 -52.288  1.00  0.00     0.053 A 
HETATM   28  C   UNL     1     -40.841  53.808 -52.665  1.00  0.00     0.069 A 
HETATM   29  C   UNL     1     -40.243  53.814 -53.928  1.00  0.00     0.037 A 
HETATM   30  C   UNL     1     -40.482  54.855 -54.825  1.00  0.00     0.004 A 
HETATM   31  C   UNL     1     -41.308  55.916 -54.454  1.00  0.00     0.017 A 
BRANCH  28  32
HETATM   32  O   UNL     1     -40.530  52.726 -51.890  1.00  0.00    -0.351 OA
BRANCH  32  33
HETATM   33  C   UNL     1     -39.411  51.938 -52.303  1.00  0.00     0.175 C 
BRANCH  33  34
HETATM   34  C   UNL     1     -39.593  50.542 -51.709  1.00  0.00     0.026 C 
BRANCH  34  35
HETATM   35  C   UNL     1     -39.658  49.465 -52.788  1.00  0.00    -0.002 C 
HETATM   36  C   UNL     1     -39.779  50.077 -54.175  1.00  0.00     0.005 C 
ENDBRANCH  34  35
ENDBRANCH  33  34
ENDBRANCH  32  33
ENDBRANCH  28  32
ENDBRANCH  23  26
ENDBRANCH   1  22
TORSDOF 9
ENDMDL
MODEL 9
REMARK VINA RESULT:      -7.3      2.771      8.576
REMARK  9 active torsions:
REMARK  status: ('A' for Active; 'I' for Inactive)
REMARK    1  A    between atoms: C_2  and  C_3 
REMARK    2  A    between atoms: C_3  and  C_4 
REMARK    3  A    between atoms: C_4  and  O_5 
REMARK    4  A    between atoms: O_5  and  C_6 
REMARK    5  A    between atoms: C_8  and  C_9 
REMARK       I    between atoms: C_9  and  N_10 
REMARK    6  A    between atoms: N_10  and  C_11 
REMARK    7  A    between atoms: N_12  and  C_13 
REMARK    8  A    between atoms: C_15  and  C_16 
REMARK    9  A    between atoms: C_25  and  O_26 
ROOT
HETATM    1  C   UNL     1     -43.211  61.014 -53.479  1.00  0.00     0.179 C 
HETATM    2  N   UNL     1     -42.723  60.252 -52.472  1.00  0.00    -0.333 N 
HETATM    3  S   UNL     1     -43.270  62.675 -53.292  1.00  0.00    -0.040 SA
HETATM    4  H   UNL     1     -42.117  60.751 -51.831  1.00  0.00     0.168 HD
ENDROOT
BRANCH   2   5
HETATM    5  C   UNL     1     -43.049  58.934 -52.090  1.00  0.00     0.035 A 
HETATM    6  C   UNL     1     -42.260  57.822 -52.417  1.00  0.00     0.046 A 
HETATM    7  C   UNL     1     -42.629  56.525 -52.016  1.00  0.00     0.035 A 
HETATM    8  C   UNL     1     -43.808  56.381 -51.263  1.00  0.00     0.078 A 
HETATM    9  C   UNL     1     -44.624  57.472 -50.978  1.00  0.00     0.040 A 
HETATM   10  C   UNL     1     -44.252  58.745 -51.405  1.00  0.00     0.032 A 
BRANCH   7  11
HETATM   11  C   UNL     1     -41.829  55.336 -52.364  1.00  0.00     0.112 A 
HETATM   12  S   UNL     1     -41.666  54.791 -53.988  1.00  0.00    -0.067 SA
HETATM   13  C   UNL     1     -40.776  53.420 -53.451  1.00  0.00     0.035 A 
HETATM   14  C   UNL     1     -40.644  53.482 -52.064  1.00  0.00     0.075 A 
HETATM   15  C   UNL     1     -40.236  52.363 -54.203  1.00  0.00     0.021 A 
HETATM   16  N   UNL     1     -41.266  54.560 -51.456  1.00  0.00    -0.239 NA
HETATM   17  C   UNL     1     -39.923  52.465 -51.405  1.00  0.00     0.033 A 
HETATM   18  C   UNL     1     -39.374  51.412 -52.144  1.00  0.00     0.002 A 
HETATM   19  C   UNL     1     -39.535  51.360 -53.525  1.00  0.00     0.002 A 
ENDBRANCH   7  11
BRANCH   8  20
HETATM   20  O   UNL     1     -44.234  55.170 -50.778  1.00  0.00    -0.360 OA
HETATM   21  H   UNL     1     -44.264  54.542 -51.532  1.00  0.00     0.217 HD
ENDBRANCH   8  20
ENDBRANCH   2   5
BRANCH   1  22
HETATM   22  N   UNL     1     -43.624  60.483 -54.666  1.00  0.00    -0.299 N 
HETATM   23  C   UNL     1     -42.870  59.802 -55.618  1.00  0.00     0.257 C 
HETATM   24  O   UNL     1     -41.651  59.675 -55.599  1.00  0.00    -0.267 OA
HETATM   25  H   UNL     1     -44.467  60.919 -55.015  1.00  0.00     0.171 HD
BRANCH  23  26
HETATM   26  C   UNL     1     -43.637  59.280 -56.787  1.00  0.00     0.035 A 
HETATM   27  C   UNL     1     -43.106  59.476 -58.072  1.00  0.00     0.053 A 
HETATM   28  C   UNL     1     -43.795  59.012 -59.192  1.00  0.00     0.069 A 
HETATM   29  C   UNL     1     -45.018  58.357 -59.024  1.00  0.00     0.037 A 
HETATM   30  C   UNL     1     -45.538  58.134 -57.749  1.00  0.00     0.004 A 
HETATM   31  C   UNL     1     -44.845  58.588 -56.628  1.00  0.00     0.017 A 
BRANCH  28  32
HETATM   32  O   UNL     1     -43.397  59.157 -60.492  1.00  0.00    -0.351 OA
BRANCH  32  33
HETATM   33  C   UNL     1     -42.000  59.357 -60.719  1.00  0.00     0.175 C 
BRANCH  33  34
HETATM   34  C   UNL     1     -41.855  60.597 -61.598  1.00  0.00     0.026 C 
BRANCH  34  35
HETATM   35  C   UNL     1     -41.998  61.887 -60.797  1.00  0.00    -0.002 C 
HETATM   36  C   UNL     1     -40.877  62.035 -59.780  1.00  0.00     0.005 C 
ENDBRANCH  34  35
ENDBRANCH  33  34
ENDBRANCH  32  33
ENDBRANCH  28  32
ENDBRANCH  23  26
ENDBRANCH   1  22
TORSDOF 9
ENDMDL
MODEL 10
REMARK VINA RESULT:      -7.3      2.565      3.618
REMARK  9 active torsions:
REMARK  status: ('A' for Active; 'I' for Inactive)
REMARK    1  A    between atoms: C_2  and  C_3 
REMARK    2  A    between atoms: C_3  and  C_4 
REMARK    3  A    between atoms: C_4  and  O_5 
REMARK    4  A    between atoms: O_5  and  C_6 
REMARK    5  A    between atoms: C_8  and  C_9 
REMARK       I    between atoms: C_9  and  N_10 
REMARK    6  A    between atoms: N_10  and  C_11 
REMARK    7  A    between atoms: N_12  and  C_13 
REMARK    8  A    between atoms: C_15  and  C_16 
REMARK    9  A    between atoms: C_25  and  O_26 
ROOT
HETATM    1  C   UNL     1     -40.895  59.216 -51.205  1.00  0.00     0.179 C 
HETATM    2  N   UNL     1     -42.019  59.955 -51.368  1.00  0.00    -0.333 N 
HETATM    3  S   UNL     1     -39.623  59.846 -50.321  1.00  0.00    -0.040 SA
HETATM    4  H   UNL     1     -42.145  60.676 -50.667  1.00  0.00     0.168 HD
ENDROOT
BRANCH   2   5
HETATM    5  C   UNL     1     -42.940  59.984 -52.435  1.00  0.00     0.035 A 
HETATM    6  C   UNL     1     -42.674  59.428 -53.694  1.00  0.00     0.046 A 
HETATM    7  C   UNL     1     -43.625  59.485 -54.731  1.00  0.00     0.035 A 
HETATM    8  C   UNL     1     -44.858  60.105 -54.457  1.00  0.00     0.078 A 
HETATM    9  C   UNL     1     -45.110  60.704 -53.226  1.00  0.00     0.040 A 
HETATM   10  C   UNL     1     -44.146  60.657 -52.223  1.00  0.00     0.032 A 
BRANCH   7  11
HETATM   11  C   UNL     1     -43.363  58.928 -56.070  1.00  0.00     0.112 A 
HETATM   12  S   UNL     1     -43.476  57.242 -56.394  1.00  0.00    -0.067 SA
HETATM   13  C   UNL     1     -42.919  57.501 -58.001  1.00  0.00     0.035 A 
HETATM   14  C   UNL     1     -42.702  58.866 -58.190  1.00  0.00     0.075 A 
HETATM   15  C   UNL     1     -42.685  56.564 -59.022  1.00  0.00     0.021 A 
HETATM   16  N   UNL     1     -42.935  59.662 -57.081  1.00  0.00    -0.239 NA
HETATM   17  C   UNL     1     -42.263  59.316 -59.452  1.00  0.00     0.033 A 
HETATM   18  C   UNL     1     -42.035  58.393 -60.478  1.00  0.00     0.002 A 
HETATM   19  C   UNL     1     -42.238  57.033 -60.261  1.00  0.00     0.002 A 
ENDBRANCH   7  11
BRANCH   8  20
HETATM   20  O   UNL     1     -45.873  60.172 -55.378  1.00  0.00    -0.360 OA
HETATM   21  H   UNL     1     -46.308  59.293 -55.405  1.00  0.00     0.217 HD
ENDBRANCH   8  20
ENDBRANCH   2   5
BRANCH   1  22
HETATM   22  N   UNL     1     -40.773  57.952 -51.703  1.00  0.00    -0.299 N 
HETATM   23  C   UNL     1     -41.593  56.850 -51.478  1.00  0.00     0.257 C 
HETATM   24  O   UNL     1     -42.515  56.805 -50.673  1.00  0.00    -0.267 OA
HETATM   25  H   UNL     1     -39.825  57.735 -51.982  1.00  0.00     0.171 HD
BRANCH  23  26
HETATM   26  C   UNL     1     -41.224  55.615 -52.231  1.00  0.00     0.035 A 
HETATM   27  C   UNL     1     -41.036  54.426 -51.508  1.00  0.00     0.053 A 
HETATM   28  C   UNL     1     -40.683  53.252 -52.172  1.00  0.00     0.069 A 
HETATM   29  C   UNL     1     -40.514  53.270 -53.559  1.00  0.00     0.037 A 
HETATM   30  C   UNL     1     -40.728  54.441 -54.287  1.00  0.00     0.004 A 
HETATM   31  C   UNL     1     -41.091  55.613 -53.627  1.00  0.00     0.017 A 
BRANCH  28  32
HETATM   32  O   UNL     1     -40.451  52.040 -51.584  1.00  0.00    -0.351 OA
BRANCH  32  33
HETATM   33  C   UNL     1     -39.203  51.409 -51.880  1.00  0.00     0.175 C 
BRANCH  33  34
HETATM   34  C   UNL     1     -39.507  49.968 -52.289  1.00  0.00     0.026 C 
BRANCH  34  35
HETATM   35  C   UNL     1     -39.346  49.754 -53.791  1.00  0.00    -0.002 C 
HETATM   36  C   UNL     1     -40.660  49.971 -54.525  1.00  0.00     0.005 C 
ENDBRANCH  34  35
ENDBRANCH  33  34
ENDBRANCH  32  33
ENDBRANCH  28  32
ENDBRANCH  23  26
ENDBRANCH   1  22
TORSDOF 9
ENDMDL
