MODEL 1
REMARK VINA RESULT:      -9.1      0.000      0.000
REMARK  6 active torsions:
REMARK  status: ('A' for Active; 'I' for Inactive)
REMARK    1  A    between atoms: C_4  and  C_5 
REMARK    2  A    between atoms: C_5  and  C_6 
REMARK    3  A    between atoms: C_8  and  C_9 
REMARK    4  A    between atoms: C_9  and  C_10 
REMARK       I    between atoms: C_10  and  N_11 
REMARK    5  A    between atoms: N_11  and  N_12 
REMARK       I    between atoms: N_12  and  C_13 
REMARK       I    between atoms: C_13  and  N_14 
REMARK    6  A    between atoms: N_14  and  C_15 
ROOT
HETATM    1  C   UNL     1     -42.816  58.125 -51.351  1.00  0.00     0.238 C 
HETATM    2  N   UNL     1     -41.836  57.487 -50.619  1.00  0.00    -0.266 N 
HETATM    3  O   UNL     1     -43.918  57.613 -51.551  1.00  0.00    -0.272 OA
HETATM    4  H   UNL     1     -41.032  58.005 -50.283  1.00  0.00     0.190 HD
ENDROOT
BRANCH   1   5
HETATM    5  C   UNL     1     -42.428  59.440 -52.009  1.00  0.00     0.139 C 
BRANCH   5   6
HETATM    6  C   UNL     1     -41.780  59.375 -53.393  1.00  0.00     0.185 C 
HETATM    7  N   UNL     1     -42.713  58.777 -54.344  1.00  0.00    -0.363 N 
HETATM    8  C   UNL     1     -42.493  57.549 -54.908  1.00  0.00     0.125 C 
HETATM    9  H   UNL     1     -43.414  59.389 -54.752  1.00  0.00     0.161 HD
HETATM   10  N   UNL     1     -41.454  56.806 -54.645  1.00  0.00    -0.159 NA
HETATM   11  N   UNL     1     -40.456  57.354 -53.881  1.00  0.00    -0.244 N 
HETATM   12  C   UNL     1     -40.447  58.632 -53.362  1.00  0.00     0.261 C 
HETATM   13  H   UNL     1     -39.575  56.847 -53.851  1.00  0.00     0.192 HD
HETATM   14  O   UNL     1     -39.444  59.098 -52.825  1.00  0.00    -0.269 OA
BRANCH   8  15
HETATM   15  C   UNL     1     -43.541  57.002 -55.871  1.00  0.00     0.118 C 
BRANCH  15  16
HETATM   16  C   UNL     1     -43.058  56.981 -57.300  1.00  0.00    -0.051 A 
HETATM   17  C   UNL     1     -43.258  55.845 -58.100  1.00  0.00     0.007 A 
HETATM   18  C   UNL     1     -42.837  55.832 -59.430  1.00  0.00     0.001 A 
HETATM   19  C   UNL     1     -42.219  56.953 -59.977  1.00  0.00     0.000 A 
HETATM   20  C   UNL     1     -42.019  58.089 -59.194  1.00  0.00     0.001 A 
HETATM   21  C   UNL     1     -42.438  58.104 -57.861  1.00  0.00     0.007 A 
ENDBRANCH  15  16
ENDBRANCH   8  15
ENDBRANCH   5   6
ENDBRANCH   1   5
BRANCH   2  22
HETATM   22  N   UNL     1     -42.230  56.360 -49.876  1.00  0.00    -0.249 N 
HETATM   23  C   UNL     1     -42.005  55.067 -50.299  1.00  0.00     0.339 C 
HETATM   24  N   UNL     1     -40.918  54.913 -51.130  1.00  0.00    -0.308 N 
HETATM   25  O   UNL     1     -42.748  54.172 -49.906  1.00  0.00    -0.245 OA
HETATM   26  H   UNL     1     -40.229  55.653 -51.084  1.00  0.00     0.170 HD
HETATM   27  H   UNL     1     -43.075  56.490 -49.317  1.00  0.00     0.192 HD
BRANCH  24  28
HETATM   28  C   UNL     1     -40.534  53.740 -51.814  1.00  0.00     0.038 A 
HETATM   29  C   UNL     1     -40.108  52.571 -51.178  1.00  0.00     0.055 A 
HETATM   30  C   UNL     1     -39.755  51.438 -51.924  1.00  0.00     0.058 A 
HETATM   31 CL   UNL     1     -39.230  50.034 -51.061  1.00  0.00    -0.082 Cl
HETATM   32  C   UNL     1     -39.837  51.465 -53.319  1.00  0.00     0.055 A 
HETATM   33 CL   UNL     1     -39.427  50.107 -54.303  1.00  0.00    -0.083 Cl
HETATM   34  C   UNL     1     -40.271  52.627 -53.961  1.00  0.00     0.028 A 
HETATM   35  C   UNL     1     -40.614  53.757 -53.212  1.00  0.00     0.031 A 
ENDBRANCH  24  28
ENDBRANCH   2  22
TORSDOF 6
ENDMDL
MODEL 2
REMARK VINA RESULT:      -9.0      3.238      6.950
REMARK  6 active torsions:
REMARK  status: ('A' for Active; 'I' for Inactive)
REMARK    1  A    between atoms: C_4  and  C_5 
REMARK    2  A    between atoms: C_5  and  C_6 
REMARK    3  A    between atoms: C_8  and  C_9 
REMARK    4  A    between atoms: C_9  and  C_10 
REMARK       I    between atoms: C_10  and  N_11 
REMARK    5  A    between atoms: N_11  and  N_12 
REMARK       I    between atoms: N_12  and  C_13 
REMARK       I    between atoms: C_13  and  N_14 
REMARK    6  A    between atoms: N_14  and  C_15 
ROOT
HETATM    1  C   UNL     1     -41.642  59.223 -52.724  1.00  0.00     0.238 C 
HETATM    2  N   UNL     1     -42.639  59.556 -53.616  1.00  0.00    -0.266 N 
HETATM    3  O   UNL     1     -40.453  59.222 -53.044  1.00  0.00    -0.272 OA
HETATM    4  H   UNL     1     -43.574  59.763 -53.284  1.00  0.00     0.190 HD
ENDROOT
BRANCH   1   5
HETATM    5  C   UNL     1     -42.089  58.733 -51.355  1.00  0.00     0.139 C 
BRANCH   5   6
HETATM    6  C   UNL     1     -42.280  57.228 -51.169  1.00  0.00     0.185 C 
HETATM    7  N   UNL     1     -41.368  56.505 -52.052  1.00  0.00    -0.363 N 
HETATM    8  C   UNL     1     -41.815  55.765 -53.114  1.00  0.00     0.125 C 
HETATM    9  H   UNL     1     -40.414  56.377 -51.729  1.00  0.00     0.161 HD
HETATM   10  N   UNL     1     -43.073  55.647 -53.438  1.00  0.00    -0.159 NA
HETATM   11  N   UNL     1     -44.003  56.167 -52.576  1.00  0.00    -0.244 N 
HETATM   12  C   UNL     1     -43.731  56.807 -51.385  1.00  0.00     0.261 C 
HETATM   13  H   UNL     1     -44.972  55.897 -52.734  1.00  0.00     0.192 HD
HETATM   14  O   UNL     1     -44.627  57.100 -50.596  1.00  0.00    -0.269 OA
BRANCH   8  15
HETATM   15  C   UNL     1     -40.780  55.068 -53.991  1.00  0.00     0.118 C 
BRANCH  15  16
HETATM   16  C   UNL     1     -40.440  53.684 -53.496  1.00  0.00    -0.051 A 
HETATM   17  C   UNL     1     -40.262  52.629 -54.404  1.00  0.00     0.007 A 
HETATM   18  C   UNL     1     -39.920  51.354 -53.951  1.00  0.00     0.001 A 
HETATM   19  C   UNL     1     -39.747  51.121 -52.589  1.00  0.00     0.000 A 
HETATM   20  C   UNL     1     -39.916  52.163 -51.678  1.00  0.00     0.001 A 
HETATM   21  C   UNL     1     -40.259  53.439 -52.128  1.00  0.00     0.007 A 
ENDBRANCH  15  16
ENDBRANCH   8  15
ENDBRANCH   5   6
ENDBRANCH   1   5
BRANCH   2  22
HETATM   22  N   UNL     1     -42.237  60.161 -54.820  1.00  0.00    -0.249 N 
HETATM   23  C   UNL     1     -42.401  59.564 -56.053  1.00  0.00     0.339 C 
HETATM   24  N   UNL     1     -43.449  58.672 -56.125  1.00  0.00    -0.308 N 
HETATM   25  O   UNL     1     -41.645  59.868 -56.970  1.00  0.00    -0.245 OA
HETATM   26  H   UNL     1     -44.163  58.784 -55.418  1.00  0.00     0.170 HD
HETATM   27  H   UNL     1     -41.420  60.769 -54.742  1.00  0.00     0.192 HD
BRANCH  24  28
HETATM   28  C   UNL     1     -43.765  57.824 -57.208  1.00  0.00     0.038 A 
HETATM   29  C   UNL     1     -44.772  58.092 -58.140  1.00  0.00     0.055 A 
HETATM   30  C   UNL     1     -45.020  57.208 -59.199  1.00  0.00     0.058 A 
HETATM   31 CL   UNL     1     -46.289  57.610 -60.304  1.00  0.00    -0.082 Cl
HETATM   32  C   UNL     1     -44.251  56.050 -59.339  1.00  0.00     0.055 A 
HETATM   33 CL   UNL     1     -44.494  54.920 -60.621  1.00  0.00    -0.083 Cl
HETATM   34  C   UNL     1     -43.238  55.780 -58.416  1.00  0.00     0.028 A 
HETATM   35  C   UNL     1     -42.999  56.661 -57.357  1.00  0.00     0.031 A 
ENDBRANCH  24  28
ENDBRANCH   2  22
TORSDOF 6
ENDMDL
MODEL 3
REMARK VINA RESULT:      -8.9      4.958      8.961
REMARK  6 active torsions:
REMARK  status: ('A' for Active; 'I' for Inactive)
REMARK    1  A    between atoms: C_4  and  C_5 
REMARK    2  A    between atoms: C_5  and  C_6 
REMARK    3  A    between atoms: C_8  and  C_9 
REMARK    4  A    between atoms: C_9  and  C_10 
REMARK       I    between atoms: C_10  and  N_11 
REMARK    5  A    between atoms: N_11  and  N_12 
REMARK       I    between atoms: N_12  and  C_13 
REMARK       I    between atoms: C_13  and  N_14 
REMARK    6  A    between atoms: N_14  and  C_15 
ROOT
HETATM    1  C   UNL     1     -42.460  55.069 -55.416  1.00  0.00     0.238 C 
HETATM    2  N   UNL     1     -43.318  55.316 -56.467  1.00  0.00    -0.266 N 
HETATM    3  O   UNL     1     -41.267  54.819 -55.592  1.00  0.00    -0.272 OA
HETATM    4  H   UNL     1     -44.227  55.731 -56.298  1.00  0.00     0.190 HD
ENDROOT
BRANCH   1   5
HETATM    5  C   UNL     1     -43.084  54.995 -54.031  1.00  0.00     0.139 C 
BRANCH   5   6
HETATM    6  C   UNL     1     -42.297  55.597 -52.867  1.00  0.00     0.185 C 
HETATM    7  N   UNL     1     -41.143  54.754 -52.566  1.00  0.00    -0.363 N 
HETATM    8  C   UNL     1     -41.044  54.039 -51.403  1.00  0.00     0.125 C 
HETATM    9  H   UNL     1     -40.312  54.886 -53.136  1.00  0.00     0.161 HD
HETATM   10  N   UNL     1     -41.961  54.036 -50.474  1.00  0.00    -0.159 NA
HETATM   11  N   UNL     1     -43.004  54.915 -50.606  1.00  0.00    -0.244 N 
HETATM   12  C   UNL     1     -43.176  55.815 -51.638  1.00  0.00     0.261 C 
HETATM   13  H   UNL     1     -43.597  55.045 -49.789  1.00  0.00     0.192 HD
HETATM   14  O   UNL     1     -44.051  56.677 -51.597  1.00  0.00    -0.269 OA
BRANCH   8  15
HETATM   15  C   UNL     1     -39.810  53.169 -51.196  1.00  0.00     0.118 C 
BRANCH  15  16
HETATM   16  C   UNL     1     -39.809  51.945 -52.079  1.00  0.00    -0.051 A 
HETATM   17  C   UNL     1     -40.022  52.067 -53.460  1.00  0.00     0.007 A 
HETATM   18  C   UNL     1     -39.995  50.941 -54.283  1.00  0.00     0.001 A 
HETATM   19  C   UNL     1     -39.749  49.684 -53.738  1.00  0.00     0.000 A 
HETATM   20  C   UNL     1     -39.532  49.551 -52.367  1.00  0.00     0.001 A 
HETATM   21  C   UNL     1     -39.560  50.677 -51.540  1.00  0.00     0.007 A 
ENDBRANCH  15  16
ENDBRANCH   8  15
ENDBRANCH   5   6
ENDBRANCH   1   5
BRANCH   2  22
HETATM   22  N   UNL     1     -42.731  55.547 -57.724  1.00  0.00    -0.249 N 
HETATM   23  C   UNL     1     -43.452  55.961 -58.825  1.00  0.00     0.339 C 
HETATM   24  N   UNL     1     -44.592  56.675 -58.531  1.00  0.00    -0.308 N 
HETATM   25  O   UNL     1     -43.036  55.691 -59.947  1.00  0.00    -0.245 OA
HETATM   26  H   UNL     1     -44.615  57.097 -57.612  1.00  0.00     0.170 HD
HETATM   27  H   UNL     1     -41.923  54.958 -57.935  1.00  0.00     0.192 HD
BRANCH  24  28
HETATM   28  C   UNL     1     -45.582  57.103 -59.442  1.00  0.00     0.038 A 
HETATM   29  C   UNL     1     -45.744  58.430 -59.851  1.00  0.00     0.055 A 
HETATM   30  C   UNL     1     -46.742  58.777 -60.771  1.00  0.00     0.058 A 
HETATM   31 CL   UNL     1     -46.881  60.442 -61.220  1.00  0.00    -0.082 Cl
HETATM   32  C   UNL     1     -47.582  57.793 -61.298  1.00  0.00     0.055 A 
HETATM   33 CL   UNL     1     -48.828  58.145 -62.440  1.00  0.00    -0.083 Cl
HETATM   34  C   UNL     1     -47.421  56.464 -60.900  1.00  0.00     0.028 A 
HETATM   35  C   UNL     1     -46.429  56.123 -59.976  1.00  0.00     0.031 A 
ENDBRANCH  24  28
ENDBRANCH   2  22
TORSDOF 6
ENDMDL
MODEL 4
REMARK VINA RESULT:      -8.4      3.889      7.664
REMARK  6 active torsions:
REMARK  status: ('A' for Active; 'I' for Inactive)
REMARK    1  A    between atoms: C_4  and  C_5 
REMARK    2  A    between atoms: C_5  and  C_6 
REMARK    3  A    between atoms: C_8  and  C_9 
REMARK    4  A    between atoms: C_9  and  C_10 
REMARK       I    between atoms: C_10  and  N_11 
REMARK    5  A    between atoms: N_11  and  N_12 
REMARK       I    between atoms: N_12  and  C_13 
REMARK       I    between atoms: C_13  and  N_14 
REMARK    6  A    between atoms: N_14  and  C_15 
ROOT
HETATM    1  C   UNL     1     -42.270  56.662 -53.825  1.00  0.00     0.238 C 
HETATM    2  N   UNL     1     -43.363  56.141 -54.485  1.00  0.00    -0.266 N 
HETATM    3  O   UNL     1     -41.119  56.318 -54.097  1.00  0.00    -0.272 OA
HETATM    4  H   UNL     1     -44.269  56.589 -54.405  1.00  0.00     0.190 HD
ENDROOT
BRANCH   1   5
HETATM    5  C   UNL     1     -42.559  57.591 -52.656  1.00  0.00     0.139 C 
BRANCH   5   6
HETATM    6  C   UNL     1     -42.557  56.984 -51.253  1.00  0.00     0.185 C 
HETATM    7  N   UNL     1     -41.432  56.062 -51.119  1.00  0.00    -0.363 N 
HETATM    8  C   UNL     1     -41.609  54.710 -50.989  1.00  0.00     0.125 C 
HETATM    9  H   UNL     1     -40.527  56.464 -50.896  1.00  0.00     0.161 HD
HETATM   10  N   UNL     1     -42.777  54.129 -50.983  1.00  0.00    -0.159 NA
HETATM   11  N   UNL     1     -43.888  54.931 -50.951  1.00  0.00    -0.244 N 
HETATM   12  C   UNL     1     -43.886  56.311 -50.922  1.00  0.00     0.261 C 
HETATM   13  H   UNL     1     -44.774  54.475 -50.746  1.00  0.00     0.192 HD
HETATM   14  O   UNL     1     -44.920  56.948 -50.732  1.00  0.00    -0.269 OA
BRANCH   8  15
HETATM   15  C   UNL     1     -40.369  53.830 -50.880  1.00  0.00     0.118 C 
BRANCH  15  16
HETATM   16  C   UNL     1     -40.253  52.850 -52.022  1.00  0.00    -0.051 A 
HETATM   17  C   UNL     1     -40.661  53.214 -53.314  1.00  0.00     0.007 A 
HETATM   18  C   UNL     1     -40.529  52.320 -54.377  1.00  0.00     0.001 A 
HETATM   19  C   UNL     1     -39.984  51.057 -54.163  1.00  0.00     0.000 A 
HETATM   20  C   UNL     1     -39.571  50.685 -52.884  1.00  0.00     0.001 A 
HETATM   21  C   UNL     1     -39.703  51.578 -51.818  1.00  0.00     0.007 A 
ENDBRANCH  15  16
ENDBRANCH   8  15
ENDBRANCH   5   6
ENDBRANCH   1   5
BRANCH   2  22
HETATM   22  N   UNL     1     -43.108  55.416 -55.662  1.00  0.00    -0.249 N 
HETATM   23  C   UNL     1     -42.941  56.016 -56.893  1.00  0.00     0.339 C 
HETATM   24  N   UNL     1     -42.464  57.307 -56.843  1.00  0.00    -0.308 N 
HETATM   25  O   UNL     1     -43.199  55.378 -57.909  1.00  0.00    -0.245 OA
HETATM   26  H   UNL     1     -41.989  57.562 -55.987  1.00  0.00     0.170 HD
HETATM   27  H   UNL     1     -43.526  54.484 -55.691  1.00  0.00     0.192 HD
BRANCH  24  28
HETATM   28  C   UNL     1     -42.327  58.201 -57.927  1.00  0.00     0.038 A 
HETATM   29  C   UNL     1     -41.803  59.492 -57.811  1.00  0.00     0.055 A 
HETATM   30  C   UNL     1     -41.684  60.319 -58.936  1.00  0.00     0.058 A 
HETATM   31 CL   UNL     1     -41.034  61.905 -58.706  1.00  0.00    -0.082 Cl
HETATM   32  C   UNL     1     -42.080  59.854 -60.193  1.00  0.00     0.055 A 
HETATM   33 CL   UNL     1     -41.955  60.812 -61.624  1.00  0.00    -0.083 Cl
HETATM   34  C   UNL     1     -42.595  58.562 -60.317  1.00  0.00     0.028 A 
HETATM   35  C   UNL     1     -42.720  57.743 -59.191  1.00  0.00     0.031 A 
ENDBRANCH  24  28
ENDBRANCH   2  22
TORSDOF 6
ENDMDL
MODEL 5
REMARK VINA RESULT:      -8.3      3.773      6.936
REMARK  6 active torsions:
REMARK  status: ('A' for Active; 'I' for Inactive)
REMARK    1  A    between atoms: C_4  and  C_5 
REMARK    2  A    between atoms: C_5  and  C_6 
REMARK    3  A    between atoms: C_8  and  C_9 
REMARK    4  A    between atoms: C_9  and  C_10 
REMARK       I    between atoms: C_10  and  N_11 
REMARK    5  A    between atoms: N_11  and  N_12 
REMARK       I    between atoms: N_12  and  C_13 
REMARK       I    between atoms: C_13  and  N_14 
REMARK    6  A    between atoms: N_14  and  C_15 
ROOT
HETATM    1  C   UNL     1     -42.695  58.440 -51.239  1.00  0.00     0.238 C 
HETATM    2  N   UNL     1     -42.036  57.376 -50.659  1.00  0.00    -0.266 N 
HETATM    3  O   UNL     1     -43.841  58.337 -51.676  1.00  0.00    -0.272 OA
HETATM    4  H   UNL     1     -41.196  57.532 -50.114  1.00  0.00     0.190 HD
ENDROOT
BRANCH   1   5
HETATM    5  C   UNL     1     -41.892  59.718 -51.427  1.00  0.00     0.139 C 
BRANCH   5   6
HETATM    6  C   UNL     1     -42.545  61.033 -51.000  1.00  0.00     0.185 C 
HETATM    7  N   UNL     1     -43.311  60.826 -49.774  1.00  0.00    -0.363 N 
HETATM    8  C   UNL     1     -44.678  60.901 -49.747  1.00  0.00     0.125 C 
HETATM    9  H   UNL     1     -42.799  60.850 -48.898  1.00  0.00     0.161 HD
HETATM   10  N   UNL     1     -45.412  61.149 -50.797  1.00  0.00    -0.159 NA
HETATM   11  N   UNL     1     -44.769  61.505 -51.953  1.00  0.00    -0.244 N 
HETATM   12  C   UNL     1     -43.404  61.629 -52.112  1.00  0.00     0.261 C 
HETATM   13  H   UNL     1     -45.348  61.886 -52.698  1.00  0.00     0.192 HD
HETATM   14  O   UNL     1     -42.919  62.108 -53.136  1.00  0.00    -0.269 OA
BRANCH   8  15
HETATM   15  C   UNL     1     -45.386  60.643 -48.421  1.00  0.00     0.118 C 
BRANCH  15  16
HETATM   16  C   UNL     1     -45.218  61.781 -47.445  1.00  0.00    -0.051 A 
HETATM   17  C   UNL     1     -45.137  63.104 -47.904  1.00  0.00     0.007 A 
HETATM   18  C   UNL     1     -45.009  64.161 -47.002  1.00  0.00     0.001 A 
HETATM   19  C   UNL     1     -44.967  63.909 -45.634  1.00  0.00     0.000 A 
HETATM   20  C   UNL     1     -45.051  62.599 -45.165  1.00  0.00     0.001 A 
HETATM   21  C   UNL     1     -45.178  61.539 -46.066  1.00  0.00     0.007 A 
ENDBRANCH  15  16
ENDBRANCH   8  15
ENDBRANCH   5   6
ENDBRANCH   1   5
BRANCH   2  22
HETATM   22  N   UNL     1     -42.812  56.250 -50.333  1.00  0.00    -0.249 N 
HETATM   23  C   UNL     1     -42.564  54.994 -50.845  1.00  0.00     0.339 C 
HETATM   24  N   UNL     1     -41.253  54.763 -51.196  1.00  0.00    -0.308 N 
HETATM   25  O   UNL     1     -43.489  54.191 -50.933  1.00  0.00    -0.245 OA
HETATM   26  H   UNL     1     -40.573  55.373 -50.759  1.00  0.00     0.170 HD
HETATM   27  H   UNL     1     -43.795  56.449 -50.137  1.00  0.00     0.192 HD
BRANCH  24  28
HETATM   28  C   UNL     1     -40.741  53.629 -51.863  1.00  0.00     0.038 A 
HETATM   29  C   UNL     1     -40.298  52.475 -51.210  1.00  0.00     0.055 A 
HETATM   30  C   UNL     1     -39.814  51.381 -51.941  1.00  0.00     0.058 A 
HETATM   31 CL   UNL     1     -39.277  49.995 -51.057  1.00  0.00    -0.082 Cl
HETATM   32  C   UNL     1     -39.781  51.432 -53.337  1.00  0.00     0.055 A 
HETATM   33 CL   UNL     1     -39.207  50.121 -54.304  1.00  0.00    -0.083 Cl
HETATM   34  C   UNL     1     -40.231  52.578 -53.996  1.00  0.00     0.028 A 
HETATM   35  C   UNL     1     -40.705  53.670 -53.263  1.00  0.00     0.031 A 
ENDBRANCH  24  28
ENDBRANCH   2  22
TORSDOF 6
ENDMDL
MODEL 6
REMARK VINA RESULT:      -8.3      3.888      5.889
REMARK  6 active torsions:
REMARK  status: ('A' for Active; 'I' for Inactive)
REMARK    1  A    between atoms: C_4  and  C_5 
REMARK    2  A    between atoms: C_5  and  C_6 
REMARK    3  A    between atoms: C_8  and  C_9 
REMARK    4  A    between atoms: C_9  and  C_10 
REMARK       I    between atoms: C_10  and  N_11 
REMARK    5  A    between atoms: N_11  and  N_12 
REMARK       I    between atoms: N_12  and  C_13 
REMARK       I    between atoms: C_13  and  N_14 
REMARK    6  A    between atoms: N_14  and  C_15 
ROOT
HETATM    1  C   UNL     1     -42.601  56.729 -58.433  1.00  0.00     0.238 C 
HETATM    2  N   UNL     1     -42.594  56.101 -57.206  1.00  0.00    -0.266 N 
HETATM    3  O   UNL     1     -42.283  57.911 -58.563  1.00  0.00    -0.272 OA
HETATM    4  H   UNL     1     -42.642  55.090 -57.149  1.00  0.00     0.190 HD
ENDROOT
BRANCH   1   5
HETATM    5  C   UNL     1     -43.142  55.926 -59.606  1.00  0.00     0.139 C 
BRANCH   5   6
HETATM    6  C   UNL     1     -44.209  56.584 -60.482  1.00  0.00     0.185 C 
HETATM    7  N   UNL     1     -44.833  57.685 -59.753  1.00  0.00    -0.363 N 
HETATM    8  C   UNL     1     -46.137  57.641 -59.340  1.00  0.00     0.125 C 
HETATM    9  H   UNL     1     -44.346  58.577 -59.756  1.00  0.00     0.161 HD
HETATM   10  N   UNL     1     -46.929  56.625 -59.547  1.00  0.00    -0.159 NA
HETATM   11  N   UNL     1     -46.473  55.615 -60.353  1.00  0.00    -0.244 N 
HETATM   12  C   UNL     1     -45.242  55.573 -60.976  1.00  0.00     0.261 C 
HETATM   13  H   UNL     1     -47.161  54.935 -60.666  1.00  0.00     0.192 HD
HETATM   14  O   UNL     1     -44.975  54.710 -61.809  1.00  0.00    -0.269 OA
BRANCH   8  15
HETATM   15  C   UNL     1     -46.687  58.832 -58.564  1.00  0.00     0.118 C 
BRANCH  15  16
HETATM   16  C   UNL     1     -46.016  59.009 -57.223  1.00  0.00    -0.051 A 
HETATM   17  C   UNL     1     -45.650  60.286 -56.776  1.00  0.00     0.007 A 
HETATM   18  C   UNL     1     -45.055  60.456 -55.525  1.00  0.00     0.001 A 
HETATM   19  C   UNL     1     -44.825  59.353 -54.707  1.00  0.00     0.000 A 
HETATM   20  C   UNL     1     -45.189  58.078 -55.139  1.00  0.00     0.001 A 
HETATM   21  C   UNL     1     -45.784  57.906 -56.391  1.00  0.00     0.007 A 
ENDBRANCH  15  16
ENDBRANCH   8  15
ENDBRANCH   5   6
ENDBRANCH   1   5
BRANCH   2  22
HETATM   22  N   UNL     1     -41.948  56.772 -56.153  1.00  0.00    -0.249 N 
HETATM   23  C   UNL     1     -41.451  56.123 -55.042  1.00  0.00     0.339 C 
HETATM   24  N   UNL     1     -41.093  54.811 -55.254  1.00  0.00    -0.308 N 
HETATM   25  O   UNL     1     -41.348  56.740 -53.986  1.00  0.00    -0.245 OA
HETATM   26  H   UNL     1     -40.917  54.559 -56.218  1.00  0.00     0.170 HD
HETATM   27  H   UNL     1     -42.280  57.723 -55.983  1.00  0.00     0.192 HD
BRANCH  24  28
HETATM   28  C   UNL     1     -40.686  53.876 -54.277  1.00  0.00     0.038 A 
HETATM   29  C   UNL     1     -40.681  54.136 -52.904  1.00  0.00     0.055 A 
HETATM   30  C   UNL     1     -40.276  53.152 -51.991  1.00  0.00     0.058 A 
HETATM   31 CL   UNL     1     -40.290  53.556 -50.310  1.00  0.00    -0.082 Cl
HETATM   32  C   UNL     1     -39.883  51.891 -52.449  1.00  0.00     0.055 A 
HETATM   33 CL   UNL     1     -39.380  50.628 -51.385  1.00  0.00    -0.083 Cl
HETATM   34  C   UNL     1     -39.895  51.622 -53.820  1.00  0.00     0.028 A 
HETATM   35  C   UNL     1     -40.291  52.609 -54.726  1.00  0.00     0.031 A 
ENDBRANCH  24  28
ENDBRANCH   2  22
TORSDOF 6
ENDMDL
MODEL 7
REMARK VINA RESULT:      -8.3      1.328      2.256
REMARK  6 active torsions:
REMARK  status: ('A' for Active; 'I' for Inactive)
REMARK    1  A    between atoms: C_4  and  C_5 
REMARK    2  A    between atoms: C_5  and  C_6 
REMARK    3  A    between atoms: C_8  and  C_9 
REMARK    4  A    between atoms: C_9  and  C_10 
REMARK       I    between atoms: C_10  and  N_11 
REMARK    5  A    between atoms: N_11  and  N_12 
REMARK       I    between atoms: N_12  and  C_13 
REMARK       I    between atoms: C_13  and  N_14 
REMARK    6  A    between atoms: N_14  and  C_15 
ROOT
HETATM    1  C   UNL     1     -41.664  57.837 -51.232  1.00  0.00     0.238 C 
HETATM    2  N   UNL     1     -42.274  56.957 -50.363  1.00  0.00    -0.266 N 
HETATM    3  O   UNL     1     -40.473  58.130 -51.134  1.00  0.00    -0.272 OA
HETATM    4  H   UNL     1     -43.180  56.563 -50.587  1.00  0.00     0.190 HD
ENDROOT
BRANCH   1   5
HETATM    5  C   UNL     1     -42.565  58.528 -52.245  1.00  0.00     0.139 C 
BRANCH   5   6
HETATM    6  C   UNL     1     -43.792  57.761 -52.740  1.00  0.00     0.185 C 
HETATM    7  N   UNL     1     -43.385  56.777 -53.740  1.00  0.00    -0.363 N 
HETATM    8  C   UNL     1     -43.739  56.888 -55.058  1.00  0.00     0.125 C 
HETATM    9  H   UNL     1     -43.026  55.891 -53.399  1.00  0.00     0.161 HD
HETATM   10  N   UNL     1     -44.451  57.870 -55.538  1.00  0.00    -0.159 NA
HETATM   11  N   UNL     1     -45.000  58.754 -54.646  1.00  0.00    -0.244 N 
HETATM   12  C   UNL     1     -44.872  58.699 -53.273  1.00  0.00     0.261 C 
HETATM   13  H   UNL     1     -45.708  59.388 -55.009  1.00  0.00     0.192 HD
HETATM   14  O   UNL     1     -45.528  59.435 -52.539  1.00  0.00    -0.269 OA
BRANCH   8  15
HETATM   15  C   UNL     1     -43.243  55.821 -56.028  1.00  0.00     0.118 C 
BRANCH  15  16
HETATM   16  C   UNL     1     -42.918  56.383 -57.390  1.00  0.00    -0.051 A 
HETATM   17  C   UNL     1     -42.271  57.622 -57.511  1.00  0.00     0.007 A 
HETATM   18  C   UNL     1     -41.944  58.131 -58.768  1.00  0.00     0.001 A 
HETATM   19  C   UNL     1     -42.254  57.407 -59.916  1.00  0.00     0.000 A 
HETATM   20  C   UNL     1     -42.893  56.172 -59.808  1.00  0.00     0.001 A 
HETATM   21  C   UNL     1     -43.222  55.660 -58.551  1.00  0.00     0.007 A 
ENDBRANCH  15  16
ENDBRANCH   8  15
ENDBRANCH   5   6
ENDBRANCH   1   5
BRANCH   2  22
HETATM   22  N   UNL     1     -41.430  56.195 -49.536  1.00  0.00    -0.249 N 
HETATM   23  C   UNL     1     -40.926  54.966 -49.906  1.00  0.00     0.339 C 
HETATM   24  N   UNL     1     -40.794  54.783 -51.265  1.00  0.00    -0.308 N 
HETATM   25  O   UNL     1     -40.625  54.156 -49.034  1.00  0.00    -0.245 OA
HETATM   26  H   UNL     1     -40.758  55.632 -51.815  1.00  0.00     0.170 HD
HETATM   27  H   UNL     1     -41.595  56.308 -48.534  1.00  0.00     0.192 HD
BRANCH  24  28
HETATM   28  C   UNL     1     -40.436  53.590 -51.928  1.00  0.00     0.038 A 
HETATM   29  C   UNL     1     -40.043  52.420 -51.270  1.00  0.00     0.055 A 
HETATM   30  C   UNL     1     -39.715  51.267 -51.997  1.00  0.00     0.058 A 
HETATM   31 CL   UNL     1     -39.231  49.865 -51.108  1.00  0.00    -0.082 Cl
HETATM   32  C   UNL     1     -39.789  51.274 -53.392  1.00  0.00     0.055 A 
HETATM   33 CL   UNL     1     -39.409  49.890 -54.352  1.00  0.00    -0.083 Cl
HETATM   34  C   UNL     1     -40.190  52.436 -54.055  1.00  0.00     0.028 A 
HETATM   35  C   UNL     1     -40.508  53.586 -53.327  1.00  0.00     0.031 A 
ENDBRANCH  24  28
ENDBRANCH   2  22
TORSDOF 6
ENDMDL
MODEL 8
REMARK VINA RESULT:      -8.2      1.810      2.439
REMARK  6 active torsions:
REMARK  status: ('A' for Active; 'I' for Inactive)
REMARK    1  A    between atoms: C_4  and  C_5 
REMARK    2  A    between atoms: C_5  and  C_6 
REMARK    3  A    between atoms: C_8  and  C_9 
REMARK    4  A    between atoms: C_9  and  C_10 
REMARK       I    between atoms: C_10  and  N_11 
REMARK    5  A    between atoms: N_11  and  N_12 
REMARK       I    between atoms: N_12  and  C_13 
REMARK       I    between atoms: C_13  and  N_14 
REMARK    6  A    between atoms: N_14  and  C_15 
ROOT
HETATM    1  C   UNL     1     -42.562  58.230 -51.171  1.00  0.00     0.238 C 
HETATM    2  N   UNL     1     -41.498  57.573 -50.589  1.00  0.00    -0.266 N 
HETATM    3  O   UNL     1     -43.699  57.758 -51.171  1.00  0.00    -0.272 OA
HETATM    4  H   UNL     1     -40.632  58.066 -50.406  1.00  0.00     0.190 HD
ENDROOT
BRANCH   1   5
HETATM    5  C   UNL     1     -42.242  59.511 -51.925  1.00  0.00     0.139 C 
BRANCH   5   6
HETATM    6  C   UNL     1     -43.399  60.238 -52.610  1.00  0.00     0.185 C 
HETATM    7  N   UNL     1     -44.071  59.330 -53.536  1.00  0.00    -0.363 N 
HETATM    8  C   UNL     1     -44.023  59.505 -54.894  1.00  0.00     0.125 C 
HETATM    9  H   UNL     1     -44.761  58.696 -53.145  1.00  0.00     0.161 HD
HETATM   10  N   UNL     1     -43.377  60.477 -55.477  1.00  0.00    -0.159 NA
HETATM   11  N   UNL     1     -42.847  61.458 -54.680  1.00  0.00    -0.244 N 
HETATM   12  C   UNL     1     -42.937  61.517 -53.304  1.00  0.00     0.261 C 
HETATM   13  H   UNL     1     -42.526  62.302 -55.149  1.00  0.00     0.192 HD
HETATM   14  O   UNL     1     -42.575  62.512 -52.681  1.00  0.00    -0.269 OA
BRANCH   8  15
HETATM   15  C   UNL     1     -44.736  58.486 -55.776  1.00  0.00     0.118 C 
BRANCH  15  16
HETATM   16  C   UNL     1     -44.079  57.128 -55.739  1.00  0.00    -0.051 A 
HETATM   17  C   UNL     1     -44.231  56.297 -54.620  1.00  0.00     0.007 A 
HETATM   18  C   UNL     1     -43.648  55.029 -54.594  1.00  0.00     0.001 A 
HETATM   19  C   UNL     1     -42.913  54.577 -55.687  1.00  0.00     0.000 A 
HETATM   20  C   UNL     1     -42.759  55.393 -56.807  1.00  0.00     0.001 A 
HETATM   21  C   UNL     1     -43.340  56.663 -56.834  1.00  0.00     0.007 A 
ENDBRANCH  15  16
ENDBRANCH   8  15
ENDBRANCH   5   6
ENDBRANCH   1   5
BRANCH   2  22
HETATM   22  N   UNL     1     -41.804  56.482 -49.756  1.00  0.00    -0.249 N 
HETATM   23  C   UNL     1     -41.640  55.170 -50.147  1.00  0.00     0.339 C 
HETATM   24  N   UNL     1     -40.664  54.970 -51.098  1.00  0.00    -0.308 N 
HETATM   25  O   UNL     1     -42.334  54.301 -49.628  1.00  0.00    -0.245 OA
HETATM   26  H   UNL     1     -39.971  55.703 -51.169  1.00  0.00     0.170 HD
HETATM   27  H   UNL     1     -42.573  56.644 -49.103  1.00  0.00     0.192 HD
BRANCH  24  28
HETATM   28  C   UNL     1     -40.374  53.765 -51.773  1.00  0.00     0.038 A 
HETATM   29  C   UNL     1     -40.003  52.580 -51.130  1.00  0.00     0.055 A 
HETATM   30  C   UNL     1     -39.743  51.417 -51.867  1.00  0.00     0.058 A 
HETATM   31 CL   UNL     1     -39.283  49.996 -50.995  1.00  0.00    -0.082 Cl
HETATM   32  C   UNL     1     -39.864  51.429 -53.259  1.00  0.00     0.055 A 
HETATM   33 CL   UNL     1     -39.568  50.033 -54.232  1.00  0.00    -0.083 Cl
HETATM   34  C   UNL     1     -40.242  52.606 -53.908  1.00  0.00     0.028 A 
HETATM   35  C   UNL     1     -40.493  53.766 -53.169  1.00  0.00     0.031 A 
ENDBRANCH  24  28
ENDBRANCH   2  22
TORSDOF 6
ENDMDL
MODEL 9
REMARK VINA RESULT:      -8.2      3.513      6.493
REMARK  6 active torsions:
REMARK  status: ('A' for Active; 'I' for Inactive)
REMARK    1  A    between atoms: C_4  and  C_5 
REMARK    2  A    between atoms: C_5  and  C_6 
REMARK    3  A    between atoms: C_8  and  C_9 
REMARK    4  A    between atoms: C_9  and  C_10 
REMARK       I    between atoms: C_10  and  N_11 
REMARK    5  A    between atoms: N_11  and  N_12 
REMARK       I    between atoms: N_12  and  C_13 
REMARK       I    between atoms: C_13  and  N_14 
REMARK    6  A    between atoms: N_14  and  C_15 
ROOT
HETATM    1  C   UNL     1     -41.379  59.332 -53.130  1.00  0.00     0.238 C 
HETATM    2  N   UNL     1     -42.303  60.127 -53.776  1.00  0.00    -0.266 N 
HETATM    3  O   UNL     1     -40.388  58.884 -53.706  1.00  0.00    -0.272 OA
HETATM    4  H   UNL     1     -42.980  60.660 -53.243  1.00  0.00     0.190 HD
ENDROOT
BRANCH   1   5
HETATM    5  C   UNL     1     -41.709  58.930 -51.700  1.00  0.00     0.139 C 
BRANCH   5   6
HETATM    6  C   UNL     1     -42.932  58.040 -51.480  1.00  0.00     0.185 C 
HETATM    7  N   UNL     1     -42.949  56.973 -52.476  1.00  0.00    -0.363 N 
HETATM    8  C   UNL     1     -43.899  56.908 -53.461  1.00  0.00     0.125 C 
HETATM    9  H   UNL     1     -42.378  56.155 -52.289  1.00  0.00     0.161 HD
HETATM   10  N   UNL     1     -44.855  57.785 -53.604  1.00  0.00    -0.159 NA
HETATM   11  N   UNL     1     -45.003  58.732 -52.625  1.00  0.00    -0.244 N 
HETATM   12  C   UNL     1     -44.230  58.845 -51.487  1.00  0.00     0.261 C 
HETATM   13  H   UNL     1     -45.862  59.276 -52.644  1.00  0.00     0.192 HD
HETATM   14  O   UNL     1     -44.531  59.621 -50.583  1.00  0.00    -0.269 OA
BRANCH   8  15
HETATM   15  C   UNL     1     -43.814  55.767 -54.468  1.00  0.00     0.118 C 
BRANCH  15  16
HETATM   16  C   UNL     1     -42.512  55.011 -54.377  1.00  0.00    -0.051 A 
HETATM   17  C   UNL     1     -42.453  53.776 -53.713  1.00  0.00     0.007 A 
HETATM   18  C   UNL     1     -41.257  53.060 -53.652  1.00  0.00     0.001 A 
HETATM   19  C   UNL     1     -40.109  53.567 -54.256  1.00  0.00     0.000 A 
HETATM   20  C   UNL     1     -40.156  54.790 -54.922  1.00  0.00     0.001 A 
HETATM   21  C   UNL     1     -41.352  55.509 -54.985  1.00  0.00     0.007 A 
ENDBRANCH  15  16
ENDBRANCH   8  15
ENDBRANCH   5   6
ENDBRANCH   1   5
BRANCH   2  22
HETATM   22  N   UNL     1     -41.933  60.636 -55.034  1.00  0.00    -0.249 N 
HETATM   23  C   UNL     1     -42.164  59.961 -56.214  1.00  0.00     0.339 C 
HETATM   24  N   UNL     1     -43.238  59.101 -56.185  1.00  0.00    -0.308 N 
HETATM   25  O   UNL     1     -41.437  60.179 -57.179  1.00  0.00    -0.245 OA
HETATM   26  H   UNL     1     -43.920  59.283 -55.460  1.00  0.00     0.170 HD
HETATM   27  H   UNL     1     -41.096  61.222 -55.029  1.00  0.00     0.192 HD
BRANCH  24  28
HETATM   28  C   UNL     1     -43.622  58.190 -57.193  1.00  0.00     0.038 A 
HETATM   29  C   UNL     1     -44.903  58.141 -57.751  1.00  0.00     0.055 A 
HETATM   30  C   UNL     1     -45.208  57.217 -58.761  1.00  0.00     0.058 A 
HETATM   31 CL   UNL     1     -46.818  57.215 -59.392  1.00  0.00    -0.082 Cl
HETATM   32  C   UNL     1     -44.225  56.341 -59.228  1.00  0.00     0.055 A 
HETATM   33 CL   UNL     1     -44.524  55.182 -60.473  1.00  0.00    -0.083 Cl
HETATM   34  C   UNL     1     -42.941  56.391 -58.680  1.00  0.00     0.028 A 
HETATM   35  C   UNL     1     -42.643  57.308 -57.668  1.00  0.00     0.031 A 
ENDBRANCH  24  28
ENDBRANCH   2  22
TORSDOF 6
ENDMDL
MODEL 10
REMARK VINA RESULT:      -8.0      2.294      3.105
REMARK  6 active torsions:
REMARK  status: ('A' for Active; 'I' for Inactive)
REMARK    1  A    between atoms: C_4  and  C_5 
REMARK    2  A    between atoms: C_5  and  C_6 
REMARK    3  A    between atoms: C_8  and  C_9 
REMARK    4  A    between atoms: C_9  and  C_10 
REMARK       I    between atoms: C_10  and  N_11 
REMARK    5  A    between atoms: N_11  and  N_12 
REMARK       I    between atoms: N_12  and  C_13 
REMARK       I    between atoms: C_13  and  N_14 
REMARK    6  A    between atoms: N_14  and  C_15 
ROOT
HETATM    1  C   UNL     1     -45.452  58.791 -50.951  1.00  0.00     0.238 C 
HETATM    2  N   UNL     1     -44.752  57.692 -51.402  1.00  0.00    -0.266 N 
HETATM    3  O   UNL     1     -46.166  58.743 -49.949  1.00  0.00    -0.272 OA
HETATM    4  H   UNL     1     -44.010  57.803 -52.083  1.00  0.00     0.190 HD
ENDROOT
BRANCH   1   5
HETATM    5  C   UNL     1     -45.399  60.036 -51.823  1.00  0.00     0.139 C 
BRANCH   5   6
HETATM    6  C   UNL     1     -44.123  60.877 -51.779  1.00  0.00     0.185 C 
HETATM    7  N   UNL     1     -43.190  60.407 -52.800  1.00  0.00    -0.363 N 
HETATM    8  C   UNL     1     -42.010  59.790 -52.482  1.00  0.00     0.125 C 
HETATM    9  H   UNL     1     -43.328  60.749 -53.746  1.00  0.00     0.161 HD
HETATM   10  N   UNL     1     -41.619  59.559 -51.259  1.00  0.00    -0.159 NA
HETATM   11  N   UNL     1     -42.359  60.101 -50.241  1.00  0.00    -0.244 N 
HETATM   12  C   UNL     1     -43.490  60.879 -50.390  1.00  0.00     0.261 C 
HETATM   13  H   UNL     1     -41.940  60.085 -49.314  1.00  0.00     0.192 HD
HETATM   14  O   UNL     1     -43.999  61.457 -49.433  1.00  0.00    -0.269 OA
BRANCH   8  15
HETATM   15  C   UNL     1     -41.117  59.314 -53.623  1.00  0.00     0.118 C 
BRANCH  15  16
HETATM   16  C   UNL     1     -41.907  58.866 -54.828  1.00  0.00    -0.051 A 
HETATM   17  C   UNL     1     -42.540  57.614 -54.836  1.00  0.00     0.007 A 
HETATM   18  C   UNL     1     -43.294  57.208 -55.938  1.00  0.00     0.001 A 
HETATM   19  C   UNL     1     -43.430  58.050 -57.038  1.00  0.00     0.000 A 
HETATM   20  C   UNL     1     -42.809  59.298 -57.040  1.00  0.00     0.001 A 
HETATM   21  C   UNL     1     -42.053  59.706 -55.939  1.00  0.00     0.007 A 
ENDBRANCH  15  16
ENDBRANCH   8  15
ENDBRANCH   5   6
ENDBRANCH   1   5
BRANCH   2  22
HETATM   22  N   UNL     1     -44.661  56.594 -50.528  1.00  0.00    -0.249 N 
HETATM   23  C   UNL     1     -43.991  55.432 -50.848  1.00  0.00     0.339 C 
HETATM   24  N   UNL     1     -42.967  55.590 -51.756  1.00  0.00    -0.308 N 
HETATM   25  O   UNL     1     -44.326  54.381 -50.311  1.00  0.00    -0.245 OA
HETATM   26  H   UNL     1     -42.602  56.529 -51.840  1.00  0.00     0.170 HD
HETATM   27  H   UNL     1     -45.464  56.471 -49.909  1.00  0.00     0.192 HD
BRANCH  24  28
HETATM   28  C   UNL     1     -42.208  54.566 -52.362  1.00  0.00     0.038 A 
HETATM   29  C   UNL     1     -41.218  53.833 -51.700  1.00  0.00     0.055 A 
HETATM   30  C   UNL     1     -40.513  52.820 -52.364  1.00  0.00     0.058 A 
HETATM   31 CL   UNL     1     -39.299  51.966 -51.476  1.00  0.00    -0.082 Cl
HETATM   32  C   UNL     1     -40.804  52.524 -53.698  1.00  0.00     0.055 A 
HETATM   33 CL   UNL     1     -39.984  51.285 -54.578  1.00  0.00    -0.083 Cl
HETATM   34  C   UNL     1     -41.798  53.246 -54.363  1.00  0.00     0.028 A 
HETATM   35  C   UNL     1     -42.492  54.261 -53.699  1.00  0.00     0.031 A 
ENDBRANCH  24  28
ENDBRANCH   2  22
TORSDOF 6
ENDMDL
