MODEL 1
REMARK VINA RESULT:      -8.0      0.000      0.000
REMARK  4 active torsions:
REMARK  status: ('A' for Active; 'I' for Inactive)
REMARK    1  A    between atoms: N_2  and  C_3 
REMARK    2  A    between atoms: C_9  and  N_10 
REMARK       I    between atoms: N_10  and  C_11 
REMARK    3  A    between atoms: C_11  and  C_12 
REMARK    4  A    between atoms: C_12  and  C_13 
ROOT
HETATM    1  N   UNL     1     -42.501  55.977 -57.029  1.00  0.00    -0.327 N 
HETATM    2  C   UNL     1     -42.454  55.145 -55.923  1.00  0.00     0.227 C 
HETATM    3  O   UNL     1     -43.297  54.304 -55.611  1.00  0.00    -0.273 OA
HETATM    4  H   UNL     1     -41.770  56.674 -57.129  1.00  0.00     0.169 HD
ENDROOT
BRANCH   1   5
HETATM    5  C   UNL     1     -43.473  55.987 -58.056  1.00  0.00     0.037 A 
HETATM    6  C   UNL     1     -44.331  57.070 -58.298  1.00  0.00     0.069 A 
HETATM    7  C   UNL     1     -45.259  56.898 -59.323  1.00  0.00     0.110 A 
HETATM    8  O   UNL     1     -46.209  57.785 -59.733  1.00  0.00    -0.276 OA
HETATM    9  C   UNL     1     -45.379  55.765 -60.103  1.00  0.00     0.095 A 
HETATM   10  C   UNL     1     -46.870  57.129 -60.744  1.00  0.00     0.249 A 
HETATM   11  N   UNL     1     -46.397  55.926 -61.003  1.00  0.00    -0.206 NA
HETATM   12  C   UNL     1     -44.514  54.693 -59.873  1.00  0.00     0.037 A 
HETATM   13  C   UNL     1     -43.569  54.819 -58.839  1.00  0.00     0.032 A 
BRANCH  10  14
HETATM   14  N   UNL     1     -47.915  57.765 -61.324  1.00  0.00    -0.354 N 
HETATM   15  C   UNL     1     -47.836  59.203 -61.521  1.00  0.00     0.152 C 
HETATM   16  C   UNL     1     -48.660  57.011 -62.319  1.00  0.00     0.152 C 
ENDBRANCH  10  14
ENDBRANCH   1   5
BRANCH   2  17
HETATM   17  C   UNL     1     -41.203  55.359 -55.087  1.00  0.00     0.161 C 
BRANCH  17  18
HETATM   18  C   UNL     1     -40.795  54.160 -54.318  1.00  0.00     0.035 A 
HETATM   19  N   UNL     1     -40.579  52.904 -54.877  1.00  0.00    -0.344 N 
HETATM   20  H   UNL     1     -40.684  52.714 -55.880  1.00  0.00     0.167 HD
HETATM   21  C   UNL     1     -40.233  52.017 -53.953  1.00  0.00     0.111 A 
HETATM   22  N   UNL     1     -40.198  52.666 -52.774  1.00  0.00    -0.317 N 
HETATM   23  C   UNL     1     -39.922  50.571 -54.051  1.00  0.00     0.049 A 
HETATM   24  C   UNL     1     -40.535  53.992 -52.971  1.00  0.00     0.123 A 
HETATM   25  C   UNL     1     -39.867  52.035 -51.590  1.00  0.00     0.098 A 
HETATM   26  C   UNL     1     -39.580  50.721 -51.650  1.00  0.00     0.018 A 
HETATM   27  C   UNL     1     -39.604  49.957 -52.897  1.00  0.00     0.005 A 
ENDBRANCH  17  18
ENDBRANCH   2  17
TORSDOF 4
ENDMDL
MODEL 2
REMARK VINA RESULT:      -7.8      1.938      9.785
REMARK  4 active torsions:
REMARK  status: ('A' for Active; 'I' for Inactive)
REMARK    1  A    between atoms: N_2  and  C_3 
REMARK    2  A    between atoms: C_9  and  N_10 
REMARK       I    between atoms: N_10  and  C_11 
REMARK    3  A    between atoms: C_11  and  C_12 
REMARK    4  A    between atoms: C_12  and  C_13 
ROOT
HETATM    1  N   UNL     1     -41.374  56.165 -55.824  1.00  0.00    -0.327 N 
HETATM    2  C   UNL     1     -42.627  56.631 -56.186  1.00  0.00     0.227 C 
HETATM    3  O   UNL     1     -43.698  56.298 -55.680  1.00  0.00    -0.273 OA
HETATM    4  H   UNL     1     -40.577  56.474 -56.373  1.00  0.00     0.169 HD
ENDROOT
BRANCH   1   5
HETATM    5  C   UNL     1     -41.058  55.280 -54.768  1.00  0.00     0.037 A 
HETATM    6  C   UNL     1     -40.542  53.991 -54.968  1.00  0.00     0.069 A 
HETATM    7  C   UNL     1     -40.326  53.233 -53.819  1.00  0.00     0.110 A 
HETATM    8  O   UNL     1     -39.859  51.955 -53.749  1.00  0.00    -0.276 OA
HETATM    9  C   UNL     1     -40.569  53.662 -52.528  1.00  0.00     0.095 A 
HETATM   10  C   UNL     1     -39.855  51.670 -52.405  1.00  0.00     0.249 A 
HETATM   11  N   UNL     1     -40.260  52.666 -51.642  1.00  0.00    -0.206 NA
HETATM   12  C   UNL     1     -41.066  54.951 -52.329  1.00  0.00     0.037 A 
HETATM   13  C   UNL     1     -41.311  55.746 -53.462  1.00  0.00     0.032 A 
BRANCH  10  14
HETATM   14  N   UNL     1     -39.469  50.427 -52.030  1.00  0.00    -0.354 N 
HETATM   15  C   UNL     1     -39.708  50.004 -50.661  1.00  0.00     0.152 C 
HETATM   16  C   UNL     1     -39.535  49.393 -53.051  1.00  0.00     0.152 C 
ENDBRANCH  10  14
ENDBRANCH   1   5
BRANCH   2  17
HETATM   17  C   UNL     1     -42.566  57.650 -57.311  1.00  0.00     0.161 C 
BRANCH  17  18
HETATM   18  C   UNL     1     -43.751  57.617 -58.201  1.00  0.00     0.035 A 
HETATM   19  N   UNL     1     -44.339  56.453 -58.685  1.00  0.00    -0.344 N 
HETATM   20  H   UNL     1     -43.992  55.515 -58.453  1.00  0.00     0.167 HD
HETATM   21  C   UNL     1     -45.375  56.724 -59.467  1.00  0.00     0.111 A 
HETATM   22  N   UNL     1     -45.505  58.063 -59.505  1.00  0.00    -0.317 N 
HETATM   23  C   UNL     1     -46.295  55.835 -60.216  1.00  0.00     0.049 A 
HETATM   24  C   UNL     1     -44.516  58.640 -58.727  1.00  0.00     0.123 A 
HETATM   25  C   UNL     1     -46.496  58.692 -60.233  1.00  0.00     0.098 A 
HETATM   26  C   UNL     1     -47.346  57.909 -60.923  1.00  0.00     0.018 A 
HETATM   27  C   UNL     1     -47.259  56.450 -60.927  1.00  0.00     0.005 A 
ENDBRANCH  17  18
ENDBRANCH   2  17
TORSDOF 4
ENDMDL
MODEL 3
REMARK VINA RESULT:      -7.6      1.351      2.019
REMARK  4 active torsions:
REMARK  status: ('A' for Active; 'I' for Inactive)
REMARK    1  A    between atoms: N_2  and  C_3 
REMARK    2  A    between atoms: C_9  and  N_10 
REMARK       I    between atoms: N_10  and  C_11 
REMARK    3  A    between atoms: C_11  and  C_12 
REMARK    4  A    between atoms: C_12  and  C_13 
ROOT
HETATM    1  N   UNL     1     -41.721  55.806 -56.258  1.00  0.00    -0.327 N 
HETATM    2  C   UNL     1     -41.672  54.714 -55.408  1.00  0.00     0.227 C 
HETATM    3  O   UNL     1     -42.640  54.110 -54.945  1.00  0.00    -0.273 OA
HETATM    4  H   UNL     1     -40.845  56.251 -56.509  1.00  0.00     0.169 HD
ENDROOT
BRANCH   1   5
HETATM    5  C   UNL     1     -42.872  56.403 -56.824  1.00  0.00     0.037 A 
HETATM    6  C   UNL     1     -43.367  56.075 -58.095  1.00  0.00     0.069 A 
HETATM    7  C   UNL     1     -44.486  56.787 -58.518  1.00  0.00     0.110 A 
HETATM    8  O   UNL     1     -45.135  56.672 -59.711  1.00  0.00    -0.276 OA
HETATM    9  C   UNL     1     -45.132  57.762 -57.783  1.00  0.00     0.095 A 
HETATM   10  C   UNL     1     -46.143  57.603 -59.639  1.00  0.00     0.249 A 
HETATM   11  N   UNL     1     -46.182  58.266 -58.499  1.00  0.00    -0.206 NA
HETATM   12  C   UNL     1     -44.649  58.076 -56.510  1.00  0.00     0.037 A 
HETATM   13  C   UNL     1     -43.512  57.389 -56.048  1.00  0.00     0.032 A 
BRANCH  10  14
HETATM   14  N   UNL     1     -46.942  57.746 -60.723  1.00  0.00    -0.354 N 
HETATM   15  C   UNL     1     -47.538  56.560 -61.312  1.00  0.00     0.152 C 
HETATM   16  C   UNL     1     -47.722  58.972 -60.796  1.00  0.00     0.152 C 
ENDBRANCH  10  14
ENDBRANCH   1   5
BRANCH   2  17
HETATM   17  C   UNL     1     -40.249  54.293 -55.084  1.00  0.00     0.161 C 
BRANCH  17  18
HETATM   18  C   UNL     1     -40.163  53.291 -53.995  1.00  0.00     0.035 A 
HETATM   19  N   UNL     1     -39.891  51.940 -54.190  1.00  0.00    -0.344 N 
HETATM   20  H   UNL     1     -39.722  51.533 -55.117  1.00  0.00     0.167 HD
HETATM   21  C   UNL     1     -39.886  51.278 -53.041  1.00  0.00     0.111 A 
HETATM   22  N   UNL     1     -40.137  52.172 -52.066  1.00  0.00    -0.317 N 
HETATM   23  C   UNL     1     -39.666  49.844 -52.738  1.00  0.00     0.049 A 
HETATM   24  C   UNL     1     -40.307  53.425 -52.628  1.00  0.00     0.123 A 
HETATM   25  C   UNL     1     -40.201  51.817 -50.733  1.00  0.00     0.098 A 
HETATM   26  C   UNL     1     -40.006  50.520 -50.429  1.00  0.00     0.018 A 
HETATM   27  C   UNL     1     -39.733  49.499 -51.439  1.00  0.00     0.005 A 
ENDBRANCH  17  18
ENDBRANCH   2  17
TORSDOF 4
ENDMDL
MODEL 4
REMARK VINA RESULT:      -7.5      6.590     10.790
REMARK  4 active torsions:
REMARK  status: ('A' for Active; 'I' for Inactive)
REMARK    1  A    between atoms: N_2  and  C_3 
REMARK    2  A    between atoms: C_9  and  N_10 
REMARK       I    between atoms: N_10  and  C_11 
REMARK    3  A    between atoms: C_11  and  C_12 
REMARK    4  A    between atoms: C_12  and  C_13 
ROOT
HETATM    1  N   UNL     1     -43.187  57.484 -51.801  1.00  0.00    -0.327 N 
HETATM    2  C   UNL     1     -44.459  57.668 -51.286  1.00  0.00     0.227 C 
HETATM    3  O   UNL     1     -45.069  56.882 -50.561  1.00  0.00    -0.273 OA
HETATM    4  H   UNL     1     -42.830  58.184 -52.443  1.00  0.00     0.169 HD
ENDROOT
BRANCH   1   5
HETATM    5  C   UNL     1     -42.305  56.407 -51.549  1.00  0.00     0.037 A 
HETATM    6  C   UNL     1     -42.091  55.356 -52.452  1.00  0.00     0.069 A 
HETATM    7  C   UNL     1     -41.222  54.353 -52.030  1.00  0.00     0.110 A 
HETATM    8  O   UNL     1     -40.872  53.224 -52.708  1.00  0.00    -0.276 OA
HETATM    9  C   UNL     1     -40.564  54.333 -50.815  1.00  0.00     0.095 A 
HETATM   10  C   UNL     1     -40.020  52.566 -51.853  1.00  0.00     0.249 A 
HETATM   11  N   UNL     1     -39.801  53.201 -50.719  1.00  0.00    -0.206 NA
HETATM   12  C   UNL     1     -40.764  55.389 -49.923  1.00  0.00     0.037 A 
HETATM   13  C   UNL     1     -41.644  56.416 -50.305  1.00  0.00     0.032 A 
BRANCH  10  14
HETATM   14  N   UNL     1     -39.536  51.366 -52.252  1.00  0.00    -0.354 N 
HETATM   15  C   UNL     1     -39.491  50.277 -51.292  1.00  0.00     0.152 C 
HETATM   16  C   UNL     1     -39.774  51.001 -53.640  1.00  0.00     0.152 C 
ENDBRANCH  10  14
ENDBRANCH   1   5
BRANCH   2  17
HETATM   17  C   UNL     1     -45.069  58.996 -51.702  1.00  0.00     0.161 C 
BRANCH  17  18
HETATM   18  C   UNL     1     -45.042  60.019 -50.630  1.00  0.00     0.035 A 
HETATM   19  N   UNL     1     -45.310  59.760 -49.290  1.00  0.00    -0.344 N 
HETATM   20  H   UNL     1     -45.546  58.825 -48.938  1.00  0.00     0.167 HD
HETATM   21  C   UNL     1     -45.225  60.863 -48.558  1.00  0.00     0.111 A 
HETATM   22  N   UNL     1     -44.886  61.866 -49.390  1.00  0.00    -0.317 N 
HETATM   23  C   UNL     1     -45.436  61.097 -47.110  1.00  0.00     0.049 A 
HETATM   24  C   UNL     1     -44.761  61.371 -50.676  1.00  0.00     0.123 A 
HETATM   25  C   UNL     1     -44.708  63.164 -48.953  1.00  0.00     0.098 A 
HETATM   26  C   UNL     1     -44.893  63.405 -47.641  1.00  0.00     0.018 A 
HETATM   27  C   UNL     1     -45.266  62.363 -46.686  1.00  0.00     0.005 A 
ENDBRANCH  17  18
ENDBRANCH   2  17
TORSDOF 4
ENDMDL
MODEL 5
REMARK VINA RESULT:      -7.4      6.235      7.129
REMARK  4 active torsions:
REMARK  status: ('A' for Active; 'I' for Inactive)
REMARK    1  A    between atoms: N_2  and  C_3 
REMARK    2  A    between atoms: C_9  and  N_10 
REMARK       I    between atoms: N_10  and  C_11 
REMARK    3  A    between atoms: C_11  and  C_12 
REMARK    4  A    between atoms: C_12  and  C_13 
ROOT
HETATM    1  N   UNL     1     -40.970  57.230 -50.925  1.00  0.00    -0.327 N 
HETATM    2  C   UNL     1     -41.747  56.164 -50.501  1.00  0.00     0.227 C 
HETATM    3  O   UNL     1     -42.968  56.062 -50.623  1.00  0.00    -0.273 OA
HETATM    4  H   UNL     1     -39.981  57.214 -50.698  1.00  0.00     0.169 HD
ENDROOT
BRANCH   1   5
HETATM    5  C   UNL     1     -41.396  58.372 -51.641  1.00  0.00     0.037 A 
HETATM    6  C   UNL     1     -42.038  59.465 -51.042  1.00  0.00     0.069 A 
HETATM    7  C   UNL     1     -42.430  60.491 -51.899  1.00  0.00     0.110 A 
HETATM    8  O   UNL     1     -43.086  61.638 -51.567  1.00  0.00    -0.276 OA
HETATM    9  C   UNL     1     -42.221  60.507 -53.264  1.00  0.00     0.095 A 
HETATM   10  C   UNL     1     -43.253  62.290 -52.766  1.00  0.00     0.249 A 
HETATM   11  N   UNL     1     -42.741  61.654 -53.800  1.00  0.00    -0.206 NA
HETATM   12  C   UNL     1     -41.567  59.426 -53.859  1.00  0.00     0.037 A 
HETATM   13  C   UNL     1     -41.165  58.362 -53.031  1.00  0.00     0.032 A 
BRANCH  10  14
HETATM   14  N   UNL     1     -43.927  63.465 -52.750  1.00  0.00    -0.354 N 
HETATM   15  C   UNL     1     -45.371  63.440 -52.592  1.00  0.00     0.152 C 
HETATM   16  C   UNL     1     -43.228  64.604 -52.177  1.00  0.00     0.152 C 
ENDBRANCH  10  14
ENDBRANCH   1   5
BRANCH   2  17
HETATM   17  C   UNL     1     -40.923  55.068 -49.847  1.00  0.00     0.161 C 
BRANCH  17  18
HETATM   18  C   UNL     1     -40.618  53.937 -50.755  1.00  0.00     0.035 A 
HETATM   19  N   UNL     1     -40.858  53.943 -52.125  1.00  0.00    -0.344 N 
HETATM   20  H   UNL     1     -41.266  54.747 -52.617  1.00  0.00     0.167 HD
HETATM   21  C   UNL     1     -40.498  52.795 -52.684  1.00  0.00     0.111 A 
HETATM   22  N   UNL     1     -40.001  52.016 -51.705  1.00  0.00    -0.317 N 
HETATM   23  C   UNL     1     -40.571  52.324 -54.087  1.00  0.00     0.049 A 
HETATM   24  C   UNL     1     -40.059  52.699 -50.504  1.00  0.00     0.123 A 
HETATM   25  C   UNL     1     -39.527  50.740 -51.941  1.00  0.00     0.098 A 
HETATM   26  C   UNL     1     -39.581  50.287 -53.208  1.00  0.00     0.018 A 
HETATM   27  C   UNL     1     -40.112  51.080 -54.315  1.00  0.00     0.005 A 
ENDBRANCH  17  18
ENDBRANCH   2  17
TORSDOF 4
ENDMDL
MODEL 6
REMARK VINA RESULT:      -7.3     14.968     16.512
REMARK  4 active torsions:
REMARK  status: ('A' for Active; 'I' for Inactive)
REMARK    1  A    between atoms: N_2  and  C_3 
REMARK    2  A    between atoms: C_9  and  N_10 
REMARK       I    between atoms: N_10  and  C_11 
REMARK    3  A    between atoms: C_11  and  C_12 
REMARK    4  A    between atoms: C_12  and  C_13 
ROOT
HETATM    1  N   UNL     1     -37.110  41.692 -55.270  1.00  0.00    -0.327 N 
HETATM    2  C   UNL     1     -35.919  41.796 -54.571  1.00  0.00     0.227 C 
HETATM    3  O   UNL     1     -34.793  41.577 -55.018  1.00  0.00    -0.273 OA
HETATM    4  H   UNL     1     -37.974  41.835 -54.757  1.00  0.00     0.169 HD
ENDROOT
BRANCH   1   5
HETATM    5  C   UNL     1     -37.278  41.388 -56.641  1.00  0.00     0.037 A 
HETATM    6  C   UNL     1     -37.729  40.145 -57.107  1.00  0.00     0.069 A 
HETATM    7  C   UNL     1     -37.798  39.999 -58.491  1.00  0.00     0.110 A 
HETATM    8  O   UNL     1     -38.179  38.890 -59.186  1.00  0.00    -0.276 OA
HETATM    9  C   UNL     1     -37.470  40.977 -59.410  1.00  0.00     0.095 A 
HETATM   10  C   UNL     1     -38.048  39.256 -60.504  1.00  0.00     0.249 A 
HETATM   11  N   UNL     1     -37.640  40.497 -60.679  1.00  0.00    -0.206 NA
HETATM   12  C   UNL     1     -37.037  42.220 -58.944  1.00  0.00     0.037 A 
HETATM   13  C   UNL     1     -36.941  42.407 -57.554  1.00  0.00     0.032 A 
BRANCH  10  14
HETATM   14  N   UNL     1     -38.323  38.320 -61.443  1.00  0.00    -0.354 N 
HETATM   15  C   UNL     1     -39.710  37.967 -61.694  1.00  0.00     0.152 C 
HETATM   16  C   UNL     1     -37.420  38.261 -62.582  1.00  0.00     0.152 C 
ENDBRANCH  10  14
ENDBRANCH   1   5
BRANCH   2  17
HETATM   17  C   UNL     1     -36.126  42.238 -53.132  1.00  0.00     0.161 C 
BRANCH  17  18
HETATM   18  C   UNL     1     -35.344  41.446 -52.153  1.00  0.00     0.035 A 
HETATM   19  N   UNL     1     -33.958  41.481 -52.042  1.00  0.00    -0.344 N 
HETATM   20  H   UNL     1     -33.365  42.071 -52.637  1.00  0.00     0.167 HD
HETATM   21  C   UNL     1     -33.528  40.663 -51.090  1.00  0.00     0.111 A 
HETATM   22  N   UNL     1     -34.614  40.086 -50.543  1.00  0.00    -0.317 N 
HETATM   23  C   UNL     1     -32.160  40.346 -50.616  1.00  0.00     0.049 A 
HETATM   24  C   UNL     1     -35.750  40.555 -51.178  1.00  0.00     0.123 A 
HETATM   25  C   UNL     1     -34.528  39.172 -49.510  1.00  0.00     0.098 A 
HETATM   26  C   UNL     1     -33.296  38.865 -49.060  1.00  0.00     0.018 A 
HETATM   27  C   UNL     1     -32.077  39.453 -49.612  1.00  0.00     0.005 A 
ENDBRANCH  17  18
ENDBRANCH   2  17
TORSDOF 4
ENDMDL
MODEL 7
REMARK VINA RESULT:      -7.3      4.822      5.742
REMARK  4 active torsions:
REMARK  status: ('A' for Active; 'I' for Inactive)
REMARK    1  A    between atoms: N_2  and  C_3 
REMARK    2  A    between atoms: C_9  and  N_10 
REMARK       I    between atoms: N_10  and  C_11 
REMARK    3  A    between atoms: C_11  and  C_12 
REMARK    4  A    between atoms: C_12  and  C_13 
ROOT
HETATM    1  N   UNL     1     -41.097  57.336 -51.802  1.00  0.00    -0.327 N 
HETATM    2  C   UNL     1     -41.685  56.105 -51.561  1.00  0.00     0.227 C 
HETATM    3  O   UNL     1     -42.787  55.736 -51.969  1.00  0.00    -0.273 OA
HETATM    4  H   UNL     1     -40.212  57.535 -51.347  1.00  0.00     0.169 HD
ENDROOT
BRANCH   1   5
HETATM    5  C   UNL     1     -41.594  58.382 -52.614  1.00  0.00     0.037 A 
HETATM    6  C   UNL     1     -41.342  58.479 -53.990  1.00  0.00     0.069 A 
HETATM    7  C   UNL     1     -41.873  59.595 -54.632  1.00  0.00     0.110 A 
HETATM    8  O   UNL     1     -41.749  59.927 -55.948  1.00  0.00    -0.276 OA
HETATM    9  C   UNL     1     -42.621  60.582 -54.020  1.00  0.00     0.095 A 
HETATM   10  C   UNL     1     -42.426  61.117 -56.062  1.00  0.00     0.249 A 
HETATM   11  N   UNL     1     -42.971  61.535 -54.937  1.00  0.00    -0.206 NA
HETATM   12  C   UNL     1     -42.886  60.476 -52.653  1.00  0.00     0.037 A 
HETATM   13  C   UNL     1     -42.358  59.370 -51.963  1.00  0.00     0.032 A 
BRANCH  10  14
HETATM   14  N   UNL     1     -42.435  61.718 -57.275  1.00  0.00    -0.354 N 
HETATM   15  C   UNL     1     -42.546  60.890 -58.464  1.00  0.00     0.152 C 
HETATM   16  C   UNL     1     -43.046  63.037 -57.340  1.00  0.00     0.152 C 
ENDBRANCH  10  14
ENDBRANCH   1   5
BRANCH   2  17
HETATM   17  C   UNL     1     -40.808  55.197 -50.717  1.00  0.00     0.161 C 
BRANCH  17  18
HETATM   18  C   UNL     1     -40.513  53.895 -51.362  1.00  0.00     0.035 A 
HETATM   19  N   UNL     1     -40.667  53.639 -52.721  1.00  0.00    -0.344 N 
HETATM   20  H   UNL     1     -40.998  54.345 -53.388  1.00  0.00     0.167 HD
HETATM   21  C   UNL     1     -40.338  52.389 -53.017  1.00  0.00     0.111 A 
HETATM   22  N   UNL     1     -39.948  51.799 -51.871  1.00  0.00    -0.317 N 
HETATM   23  C   UNL     1     -40.351  51.651 -54.302  1.00  0.00     0.049 A 
HETATM   24  C   UNL     1     -40.040  52.709 -50.834  1.00  0.00     0.123 A 
HETATM   25  C   UNL     1     -39.532  50.483 -51.819  1.00  0.00     0.098 A 
HETATM   26  C   UNL     1     -39.534  49.789 -52.973  1.00  0.00     0.018 A 
HETATM   27  C   UNL     1     -39.950  50.367 -54.249  1.00  0.00     0.005 A 
ENDBRANCH  17  18
ENDBRANCH   2  17
TORSDOF 4
ENDMDL
MODEL 8
REMARK VINA RESULT:      -7.3      6.474      8.206
REMARK  4 active torsions:
REMARK  status: ('A' for Active; 'I' for Inactive)
REMARK    1  A    between atoms: N_2  and  C_3 
REMARK    2  A    between atoms: C_9  and  N_10 
REMARK       I    between atoms: N_10  and  C_11 
REMARK    3  A    between atoms: C_11  and  C_12 
REMARK    4  A    between atoms: C_12  and  C_13 
ROOT
HETATM    1  N   UNL     1     -44.765  57.400 -53.066  1.00  0.00    -0.327 N 
HETATM    2  C   UNL     1     -43.569  56.716 -53.208  1.00  0.00     0.227 C 
HETATM    3  O   UNL     1     -42.481  57.050 -52.737  1.00  0.00    -0.273 OA
HETATM    4  H   UNL     1     -45.574  57.048 -53.566  1.00  0.00     0.169 HD
ENDROOT
BRANCH   1   5
HETATM    5  C   UNL     1     -45.002  58.566 -52.301  1.00  0.00     0.037 A 
HETATM    6  C   UNL     1     -45.238  58.548 -50.919  1.00  0.00     0.069 A 
HETATM    7  C   UNL     1     -45.495  59.782 -50.326  1.00  0.00     0.110 A 
HETATM    8  O   UNL     1     -45.776  60.026 -49.015  1.00  0.00    -0.276 OA
HETATM    9  C   UNL     1     -45.520  60.993 -50.992  1.00  0.00     0.095 A 
HETATM   10  C   UNL     1     -45.971  61.386 -48.958  1.00  0.00     0.249 A 
HETATM   11  N   UNL     1     -45.815  62.000 -50.114  1.00  0.00    -0.206 NA
HETATM   12  C   UNL     1     -45.267  61.012 -52.365  1.00  0.00     0.037 A 
HETATM   13  C   UNL     1     -45.015  59.786 -53.006  1.00  0.00     0.032 A 
BRANCH  10  14
HETATM   14  N   UNL     1     -46.314  61.919 -47.762  1.00  0.00    -0.354 N 
HETATM   15  C   UNL     1     -45.279  62.108 -46.759  1.00  0.00     0.152 C 
HETATM   16  C   UNL     1     -47.397  62.890 -47.772  1.00  0.00     0.152 C 
ENDBRANCH  10  14
ENDBRANCH   1   5
BRANCH   2  17
HETATM   17  C   UNL     1     -43.719  55.447 -54.029  1.00  0.00     0.161 C 
BRANCH  17  18
HETATM   18  C   UNL     1     -42.657  54.446 -53.768  1.00  0.00     0.035 A 
HETATM   19  N   UNL     1     -42.074  54.224 -52.524  1.00  0.00    -0.344 N 
HETATM   20  H   UNL     1     -42.344  54.744 -51.681  1.00  0.00     0.167 HD
HETATM   21  C   UNL     1     -41.146  53.279 -52.587  1.00  0.00     0.111 A 
HETATM   22  N   UNL     1     -41.105  52.846 -53.861  1.00  0.00    -0.317 N 
HETATM   23  C   UNL     1     -40.253  52.713 -51.548  1.00  0.00     0.049 A 
HETATM   24  C   UNL     1     -42.033  53.547 -54.611  1.00  0.00     0.123 A 
HETATM   25  C   UNL     1     -40.242  51.853 -54.280  1.00  0.00     0.098 A 
HETATM   26  C   UNL     1     -39.420  51.320 -53.356  1.00  0.00     0.018 A 
HETATM   27  C   UNL     1     -39.410  51.747 -51.958  1.00  0.00     0.005 A 
ENDBRANCH  17  18
ENDBRANCH   2  17
TORSDOF 4
ENDMDL
MODEL 9
REMARK VINA RESULT:      -7.2      5.096      6.320
REMARK  4 active torsions:
REMARK  status: ('A' for Active; 'I' for Inactive)
REMARK    1  A    between atoms: N_2  and  C_3 
REMARK    2  A    between atoms: C_9  and  N_10 
REMARK       I    between atoms: N_10  and  C_11 
REMARK    3  A    between atoms: C_11  and  C_12 
REMARK    4  A    between atoms: C_12  and  C_13 
ROOT
HETATM    1  N   UNL     1     -42.888  56.104 -53.916  1.00  0.00    -0.327 N 
HETATM    2  C   UNL     1     -41.533  55.869 -53.759  1.00  0.00     0.227 C 
HETATM    3  O   UNL     1     -40.789  56.422 -52.949  1.00  0.00    -0.273 OA
HETATM    4  H   UNL     1     -43.368  55.625 -54.672  1.00  0.00     0.169 HD
ENDROOT
BRANCH   1   5
HETATM    5  C   UNL     1     -43.707  56.961 -53.144  1.00  0.00     0.037 A 
HETATM    6  C   UNL     1     -44.360  58.086 -53.668  1.00  0.00     0.069 A 
HETATM    7  C   UNL     1     -45.094  58.846 -52.761  1.00  0.00     0.110 A 
HETATM    8  O   UNL     1     -45.792  59.988 -53.016  1.00  0.00    -0.276 OA
HETATM    9  C   UNL     1     -45.226  58.565 -51.415  1.00  0.00     0.095 A 
HETATM   10  C   UNL     1     -46.306  60.350 -51.793  1.00  0.00     0.249 A 
HETATM   11  N   UNL     1     -46.002  59.520 -50.815  1.00  0.00    -0.206 NA
HETATM   12  C   UNL     1     -44.590  57.436 -50.896  1.00  0.00     0.037 A 
HETATM   13  C   UNL     1     -43.828  56.646 -51.775  1.00  0.00     0.032 A 
BRANCH  10  14
HETATM   14  N   UNL     1     -47.025  61.495 -51.731  1.00  0.00    -0.354 N 
HETATM   15  C   UNL     1     -46.681  62.483 -50.722  1.00  0.00     0.152 C 
HETATM   16  C   UNL     1     -47.541  62.006 -52.992  1.00  0.00     0.152 C 
ENDBRANCH  10  14
ENDBRANCH   1   5
BRANCH   2  17
HETATM   17  C   UNL     1     -41.013  54.807 -54.713  1.00  0.00     0.161 C 
BRANCH  17  18
HETATM   18  C   UNL     1     -40.653  53.535 -54.041  1.00  0.00     0.035 A 
HETATM   19  N   UNL     1     -40.500  53.389 -52.666  1.00  0.00    -0.344 N 
HETATM   20  H   UNL     1     -40.631  54.163 -52.005  1.00  0.00     0.167 HD
HETATM   21  C   UNL     1     -40.165  52.146 -52.347  1.00  0.00     0.111 A 
HETATM   22  N   UNL     1     -40.106  51.444 -53.494  1.00  0.00    -0.317 N 
HETATM   23  C   UNL     1     -39.881  51.514 -51.036  1.00  0.00     0.049 A 
HETATM   24  C   UNL     1     -40.408  52.277 -54.556  1.00  0.00     0.123 A 
HETATM   25  C   UNL     1     -39.785  50.100 -53.525  1.00  0.00     0.098 A 
HETATM   26  C   UNL     1     -39.521  49.501 -52.348  1.00  0.00     0.018 A 
HETATM   27  C   UNL     1     -39.564  50.207 -51.069  1.00  0.00     0.005 A 
ENDBRANCH  17  18
ENDBRANCH   2  17
TORSDOF 4
ENDMDL
MODEL 10
REMARK VINA RESULT:      -7.1      3.571      9.653
REMARK  4 active torsions:
REMARK  status: ('A' for Active; 'I' for Inactive)
REMARK    1  A    between atoms: N_2  and  C_3 
REMARK    2  A    between atoms: C_9  and  N_10 
REMARK       I    between atoms: N_10  and  C_11 
REMARK    3  A    between atoms: C_11  and  C_12 
REMARK    4  A    between atoms: C_12  and  C_13 
ROOT
HETATM    1  N   UNL     1     -41.968  57.096 -53.561  1.00  0.00    -0.327 N 
HETATM    2  C   UNL     1     -43.208  57.224 -54.164  1.00  0.00     0.227 C 
HETATM    3  O   UNL     1     -44.056  56.338 -54.276  1.00  0.00    -0.273 OA
HETATM    4  H   UNL     1     -41.338  57.891 -53.599  1.00  0.00     0.169 HD
ENDROOT
BRANCH   1   5
HETATM    5  C   UNL     1     -41.451  55.962 -52.893  1.00  0.00     0.037 A 
HETATM    6  C   UNL     1     -41.047  54.793 -53.555  1.00  0.00     0.069 A 
HETATM    7  C   UNL     1     -40.599  53.754 -52.744  1.00  0.00     0.110 A 
HETATM    8  O   UNL     1     -40.179  52.519 -53.140  1.00  0.00    -0.276 OA
HETATM    9  C   UNL     1     -40.518  53.802 -51.365  1.00  0.00     0.095 A 
HETATM   10  C   UNL     1     -39.873  51.873 -51.965  1.00  0.00     0.249 A 
HETATM   11  N   UNL     1     -40.050  52.609 -50.886  1.00  0.00    -0.206 NA
HETATM   12  C   UNL     1     -40.903  54.972 -50.708  1.00  0.00     0.037 A 
HETATM   13  C   UNL     1     -41.374  56.042 -51.489  1.00  0.00     0.032 A 
BRANCH  10  14
HETATM   14  N   UNL     1     -39.461  50.586 -52.049  1.00  0.00    -0.354 N 
HETATM   15  C   UNL     1     -39.514  49.757 -50.856  1.00  0.00     0.152 C 
HETATM   16  C   UNL     1     -39.686  49.915 -53.319  1.00  0.00     0.152 C 
ENDBRANCH  10  14
ENDBRANCH   1   5
BRANCH   2  17
HETATM   17  C   UNL     1     -43.455  58.626 -54.694  1.00  0.00     0.161 C 
BRANCH  17  18
HETATM   18  C   UNL     1     -43.097  58.788 -56.124  1.00  0.00     0.035 A 
HETATM   19  N   UNL     1     -42.886  57.733 -57.006  1.00  0.00    -0.344 N 
HETATM   20  H   UNL     1     -42.970  56.748 -56.727  1.00  0.00     0.167 HD
HETATM   21  C   UNL     1     -42.569  58.171 -58.217  1.00  0.00     0.111 A 
HETATM   22  N   UNL     1     -42.577  59.516 -58.167  1.00  0.00    -0.317 N 
HETATM   23  C   UNL     1     -42.242  57.444 -59.466  1.00  0.00     0.049 A 
HETATM   24  C   UNL     1     -42.905  59.924 -56.886  1.00  0.00     0.123 A 
HETATM   25  C   UNL     1     -42.290  60.301 -59.267  1.00  0.00     0.098 A 
HETATM   26  C   UNL     1     -41.989  59.666 -60.416  1.00  0.00     0.018 A 
HETATM   27  C   UNL     1     -41.958  58.210 -60.536  1.00  0.00     0.005 A 
ENDBRANCH  17  18
ENDBRANCH   2  17
TORSDOF 4
ENDMDL
