MODEL 1
REMARK VINA RESULT:      -8.7      0.000      0.000
REMARK  6 active torsions:
REMARK  status: ('A' for Active; 'I' for Inactive)
REMARK    1  A    between atoms: C_2  and  O_3 
REMARK    2  A    between atoms: O_3  and  C_4 
REMARK    3  A    between atoms: C_5  and  O_6 
REMARK    4  A    between atoms: O_6  and  C_7 
REMARK    5  A    between atoms: C_7  and  C_8 
REMARK    6  A    between atoms: C_18  and  C_19 
ROOT
HETATM    1  C   UNL     1     -42.162  56.456 -51.546  1.00  0.00     0.103 A 
HETATM    2  C   UNL     1     -42.458  55.092 -51.406  1.00  0.00     0.112 A 
HETATM    3  C   UNL     1     -43.183  54.405 -52.378  1.00  0.00     0.041 A 
HETATM    4  C   UNL     1     -43.621  55.082 -53.513  1.00  0.00     0.014 A 
HETATM    5  C   UNL     1     -43.325  56.443 -53.695  1.00  0.00    -0.013 A 
HETATM    6  C   UNL     1     -42.602  57.125 -52.693  1.00  0.00     0.050 A 
ENDROOT
BRANCH   5   7
HETATM    7  C   UNL     1     -43.689  57.110 -55.001  1.00  0.00     0.219 C 
HETATM    8  N   UNL     1     -43.405  56.236 -56.110  1.00  0.00    -0.332 N 
HETATM    9  C   UNL     1     -43.472  56.684 -57.402  1.00  0.00     0.256 C 
HETATM   10  H   UNL     1     -43.582  55.249 -55.994  1.00  0.00     0.165 HD
HETATM   11  O   UNL     1     -43.613  55.923 -58.353  1.00  0.00    -0.267 OA
HETATM   12  C   UNL     1     -43.348  58.125 -57.557  1.00  0.00     0.073 A 
HETATM   13  C   UNL     1     -43.083  58.892 -56.443  1.00  0.00     0.088 A 
HETATM   14  C   UNL     1     -43.457  58.919 -58.740  1.00  0.00    -0.023 A 
HETATM   15  S   UNL     1     -42.933  60.544 -56.813  1.00  0.00    -0.074 SA
HETATM   16  N   UNL     1     -42.975  58.360 -55.201  1.00  0.00    -0.358 N 
HETATM   17  C   UNL     1     -43.251  60.258 -58.462  1.00  0.00     0.018 A 
HETATM   18  C   UNL     1     -43.324  61.360 -59.463  1.00  0.00     0.281 C 
HETATM   19  N   UNL     1     -43.289  60.822 -60.892  1.00  0.00    -0.070 N 
HETATM   20  C   UNL     1     -44.173  59.588 -61.053  1.00  0.00     0.239 C 
HETATM   21  H   UNL     1     -43.703  61.555 -61.479  1.00  0.00     0.279 HD
HETATM   22  C   UNL     1     -41.889  60.621 -61.399  1.00  0.00     0.270 C 
HETATM   23  C   UNL     1     -43.737  58.435 -60.131  1.00  0.00     0.068 C 
HETATM   24  H   UNL     1     -43.012  58.986 -54.400  1.00  0.00     0.162 HD
ENDBRANCH   5   7
BRANCH   1  25
HETATM   25  O   UNL     1     -41.422  57.013 -50.537  1.00  0.00    -0.349 OA
BRANCH  25  26
HETATM   26  C   UNL     1     -40.550  58.090 -50.868  1.00  0.00     0.171 C 
HETATM   27  C   UNL     1     -40.974  59.299 -50.051  1.00  0.00     0.034 C 
ENDBRANCH  25  26
ENDBRANCH   1  25
BRANCH   2  28
HETATM   28  O   UNL     1     -41.862  54.417 -50.313  1.00  0.00    -0.272 OA
BRANCH  28  29
HETATM   29  C   UNL     1     -40.513  54.112 -50.273  1.00  0.00     0.298 C 
HETATM   30  O   UNL     1     -39.685  54.527 -49.478  1.00  0.00    -0.259 OA
BRANCH  29  31
HETATM   31  C   UNL     1     -40.221  53.094 -51.319  1.00  0.00     0.040 A 
HETATM   32  C   UNL     1     -39.967  51.778 -50.908  1.00  0.00     0.019 A 
HETATM   33  C   UNL     1     -39.739  50.776 -51.856  1.00  0.00     0.020 A 
HETATM   34  C   UNL     1     -39.757  51.093 -53.214  1.00  0.00     0.011 A 
HETATM   35 BR   UNL     1     -39.465  49.736 -54.497  1.00  0.00    -0.051 Br
HETATM   36  C   UNL     1     -39.994  52.401 -53.634  1.00  0.00     0.020 A 
HETATM   37  C   UNL     1     -40.225  53.403 -52.687  1.00  0.00     0.019 A 
ENDBRANCH  29  31
ENDBRANCH  28  29
ENDBRANCH   2  28
TORSDOF 6
ENDMDL
MODEL 2
REMARK VINA RESULT:      -8.7      4.782      6.995
REMARK  6 active torsions:
REMARK  status: ('A' for Active; 'I' for Inactive)
REMARK    1  A    between atoms: C_2  and  O_3 
REMARK    2  A    between atoms: O_3  and  C_4 
REMARK    3  A    between atoms: C_5  and  O_6 
REMARK    4  A    between atoms: O_6  and  C_7 
REMARK    5  A    between atoms: C_7  and  C_8 
REMARK    6  A    between atoms: C_18  and  C_19 
ROOT
HETATM    1  C   UNL     1     -42.096  56.756 -51.892  1.00  0.00     0.103 A 
HETATM    2  C   UNL     1     -41.502  56.843 -53.161  1.00  0.00     0.112 A 
HETATM    3  C   UNL     1     -41.688  57.962 -53.971  1.00  0.00     0.041 A 
HETATM    4  C   UNL     1     -42.475  59.016 -53.515  1.00  0.00     0.014 A 
HETATM    5  C   UNL     1     -43.068  58.970 -52.243  1.00  0.00    -0.013 A 
HETATM    6  C   UNL     1     -42.880  57.824 -51.442  1.00  0.00     0.050 A 
ENDROOT
BRANCH   5   7
HETATM    7  C   UNL     1     -43.794  60.189 -51.723  1.00  0.00     0.219 C 
HETATM    8  N   UNL     1     -44.001  60.085 -50.302  1.00  0.00    -0.332 N 
HETATM    9  C   UNL     1     -44.800  60.975 -49.634  1.00  0.00     0.256 C 
HETATM   10  H   UNL     1     -43.267  59.674 -49.743  1.00  0.00     0.165 HD
HETATM   11  O   UNL     1     -44.708  61.159 -48.426  1.00  0.00    -0.267 OA
HETATM   12  C   UNL     1     -45.773  61.667 -50.466  1.00  0.00     0.073 A 
HETATM   13  C   UNL     1     -45.879  61.317 -51.794  1.00  0.00     0.088 A 
HETATM   14  C   UNL     1     -46.689  62.703 -50.110  1.00  0.00    -0.023 A 
HETATM   15  S   UNL     1     -47.087  62.196 -52.603  1.00  0.00    -0.074 SA
HETATM   16  N   UNL     1     -45.083  60.381 -52.366  1.00  0.00    -0.358 N 
HETATM   17  C   UNL     1     -47.462  63.079 -51.194  1.00  0.00     0.018 A 
HETATM   18  C   UNL     1     -48.495  64.154 -51.177  1.00  0.00     0.281 C 
HETATM   19  N   UNL     1     -48.868  64.549 -49.751  1.00  0.00    -0.070 N 
HETATM   20  C   UNL     1     -47.637  64.662 -48.855  1.00  0.00     0.239 C 
HETATM   21  H   UNL     1     -49.269  65.492 -49.815  1.00  0.00     0.279 HD
HETATM   22  C   UNL     1     -49.945  63.676 -49.173  1.00  0.00     0.270 C 
HETATM   23  C   UNL     1     -46.860  63.337 -48.762  1.00  0.00     0.068 C 
HETATM   24  H   UNL     1     -45.045  60.330 -53.382  1.00  0.00     0.162 HD
ENDBRANCH   5   7
BRANCH   1  25
HETATM   25  O   UNL     1     -41.819  55.620 -51.180  1.00  0.00    -0.349 OA
BRANCH  25  26
HETATM   26  C   UNL     1     -42.875  55.034 -50.424  1.00  0.00     0.171 C 
HETATM   27  C   UNL     1     -43.604  54.054 -51.327  1.00  0.00     0.034 C 
ENDBRANCH  25  26
ENDBRANCH   1  25
BRANCH   2  28
HETATM   28  O   UNL     1     -40.592  55.818 -53.513  1.00  0.00    -0.272 OA
BRANCH  28  29
HETATM   29  C   UNL     1     -40.909  54.822 -54.420  1.00  0.00     0.298 C 
HETATM   30  O   UNL     1     -41.369  54.963 -55.542  1.00  0.00    -0.259 OA
BRANCH  29  31
HETATM   31  C   UNL     1     -40.506  53.508 -53.849  1.00  0.00     0.040 A 
HETATM   32  C   UNL     1     -40.219  53.442 -52.478  1.00  0.00     0.019 A 
HETATM   33  C   UNL     1     -39.886  52.220 -51.886  1.00  0.00     0.020 A 
HETATM   34  C   UNL     1     -39.832  51.066 -52.666  1.00  0.00     0.011 A 
HETATM   35 BR   UNL     1     -39.399  49.411 -51.864  1.00  0.00    -0.051 Br
HETATM   36  C   UNL     1     -40.102  51.121 -54.033  1.00  0.00     0.020 A 
HETATM   37  C   UNL     1     -40.437  52.342 -54.627  1.00  0.00     0.019 A 
ENDBRANCH  29  31
ENDBRANCH  28  29
ENDBRANCH   2  28
TORSDOF 6
ENDMDL
MODEL 3
REMARK VINA RESULT:      -8.6      3.317      4.329
REMARK  6 active torsions:
REMARK  status: ('A' for Active; 'I' for Inactive)
REMARK    1  A    between atoms: C_2  and  O_3 
REMARK    2  A    between atoms: O_3  and  C_4 
REMARK    3  A    between atoms: C_5  and  O_6 
REMARK    4  A    between atoms: O_6  and  C_7 
REMARK    5  A    between atoms: C_7  and  C_8 
REMARK    6  A    between atoms: C_18  and  C_19 
ROOT
HETATM    1  C   UNL     1     -42.053  57.599 -55.258  1.00  0.00     0.103 A 
HETATM    2  C   UNL     1     -41.849  56.220 -55.101  1.00  0.00     0.112 A 
HETATM    3  C   UNL     1     -42.426  55.299 -55.974  1.00  0.00     0.041 A 
HETATM    4  C   UNL     1     -43.218  55.754 -57.025  1.00  0.00     0.014 A 
HETATM    5  C   UNL     1     -43.427  57.128 -57.223  1.00  0.00    -0.013 A 
HETATM    6  C   UNL     1     -42.846  58.045 -56.320  1.00  0.00     0.050 A 
ENDROOT
BRANCH   5   7
HETATM    7  C   UNL     1     -44.170  57.592 -58.454  1.00  0.00     0.219 C 
HETATM    8  N   UNL     1     -44.611  58.953 -58.294  1.00  0.00    -0.332 N 
HETATM    9  C   UNL     1     -45.466  59.533 -59.194  1.00  0.00     0.256 C 
HETATM   10  H   UNL     1     -43.999  59.599 -57.816  1.00  0.00     0.165 HD
HETATM   11  O   UNL     1     -45.564  60.749 -59.315  1.00  0.00    -0.267 OA
HETATM   12  C   UNL     1     -46.256  58.595 -59.977  1.00  0.00     0.073 A 
HETATM   13  C   UNL     1     -46.160  57.250 -59.697  1.00  0.00     0.088 A 
HETATM   14  C   UNL     1     -47.169  58.856 -61.045  1.00  0.00    -0.023 A 
HETATM   15  S   UNL     1     -47.178  56.307 -60.679  1.00  0.00    -0.074 SA
HETATM   16  N   UNL     1     -45.326  56.761 -58.747  1.00  0.00    -0.358 N 
HETATM   17  C   UNL     1     -47.736  57.685 -61.513  1.00  0.00     0.018 A 
HETATM   18  C   UNL     1     -48.706  57.596 -62.642  1.00  0.00     0.281 C 
HETATM   19  N   UNL     1     -49.288  58.963 -62.989  1.00  0.00    -0.070 N 
HETATM   20  C   UNL     1     -48.216  60.051 -62.992  1.00  0.00     0.239 C 
HETATM   21  H   UNL     1     -49.628  58.888 -63.955  1.00  0.00     0.279 HD
HETATM   22  C   UNL     1     -50.485  59.311 -62.151  1.00  0.00     0.270 C 
HETATM   23  C   UNL     1     -47.528  60.193 -61.622  1.00  0.00     0.068 C 
HETATM   24  H   UNL     1     -45.126  55.764 -58.742  1.00  0.00     0.162 HD
ENDBRANCH   5   7
BRANCH   1  25
HETATM   25  O   UNL     1     -41.413  58.403 -54.353  1.00  0.00    -0.349 OA
BRANCH  25  26
HETATM   26  C   UNL     1     -41.958  59.698 -54.111  1.00  0.00     0.171 C 
HETATM   27  C   UNL     1     -42.024  59.900 -52.607  1.00  0.00     0.034 C 
ENDBRANCH  25  26
ENDBRANCH   1  25
BRANCH   2  28
HETATM   28  O   UNL     1     -40.917  55.819 -54.113  1.00  0.00    -0.272 OA
BRANCH  28  29
HETATM   29  C   UNL     1     -41.294  55.497 -52.821  1.00  0.00     0.298 C 
HETATM   30  O   UNL     1     -41.997  56.156 -52.071  1.00  0.00    -0.259 OA
BRANCH  29  31
HETATM   31  C   UNL     1     -40.778  54.140 -52.496  1.00  0.00     0.040 A 
HETATM   32  C   UNL     1     -40.644  53.789 -51.145  1.00  0.00     0.019 A 
HETATM   33  C   UNL     1     -40.214  52.508 -50.789  1.00  0.00     0.020 A 
HETATM   34  C   UNL     1     -39.909  51.580 -51.785  1.00  0.00     0.011 A 
HETATM   35 BR   UNL     1     -39.342  49.842 -51.305  1.00  0.00    -0.051 Br
HETATM   36  C   UNL     1     -40.025  51.922 -53.131  1.00  0.00     0.020 A 
HETATM   37  C   UNL     1     -40.458  53.202 -53.489  1.00  0.00     0.019 A 
ENDBRANCH  29  31
ENDBRANCH  28  29
ENDBRANCH   2  28
TORSDOF 6
ENDMDL
MODEL 4
REMARK VINA RESULT:      -8.6      2.105      3.018
REMARK  6 active torsions:
REMARK  status: ('A' for Active; 'I' for Inactive)
REMARK    1  A    between atoms: C_2  and  O_3 
REMARK    2  A    between atoms: O_3  and  C_4 
REMARK    3  A    between atoms: C_5  and  O_6 
REMARK    4  A    between atoms: O_6  and  C_7 
REMARK    5  A    between atoms: C_7  and  C_8 
REMARK    6  A    between atoms: C_18  and  C_19 
ROOT
HETATM    1  C   UNL     1     -41.756  58.349 -52.786  1.00  0.00     0.103 A 
HETATM    2  C   UNL     1     -42.980  57.935 -52.238  1.00  0.00     0.112 A 
HETATM    3  C   UNL     1     -44.182  58.146 -52.911  1.00  0.00     0.041 A 
HETATM    4  C   UNL     1     -44.172  58.779 -54.151  1.00  0.00     0.014 A 
HETATM    5  C   UNL     1     -42.963  59.189 -54.737  1.00  0.00    -0.013 A 
HETATM    6  C   UNL     1     -41.758  58.979 -54.035  1.00  0.00     0.050 A 
ENDROOT
BRANCH   5   7
HETATM    7  C   UNL     1     -42.975  59.740 -56.144  1.00  0.00     0.219 C 
HETATM    8  N   UNL     1     -42.332  58.825 -57.050  1.00  0.00    -0.332 N 
HETATM    9  C   UNL     1     -42.051  59.183 -58.342  1.00  0.00     0.256 C 
HETATM   10  H   UNL     1     -42.475  57.835 -56.907  1.00  0.00     0.165 HD
HETATM   11  O   UNL     1     -41.866  58.354 -59.226  1.00  0.00    -0.267 OA
HETATM   12  C   UNL     1     -41.974  60.617 -58.575  1.00  0.00     0.073 A 
HETATM   13  C   UNL     1     -42.087  61.471 -57.500  1.00  0.00     0.088 A 
HETATM   14  C   UNL     1     -41.784  61.323 -59.802  1.00  0.00    -0.023 A 
HETATM   15  S   UNL     1     -41.935  63.104 -57.949  1.00  0.00    -0.074 SA
HETATM   16  N   UNL     1     -42.310  61.029 -56.238  1.00  0.00    -0.358 N 
HETATM   17  C   UNL     1     -41.747  62.689 -59.591  1.00  0.00     0.018 A 
HETATM   18  C   UNL     1     -41.595  63.716 -60.660  1.00  0.00     0.281 C 
HETATM   19  N   UNL     1     -41.117  63.094 -61.970  1.00  0.00    -0.070 N 
HETATM   20  C   UNL     1     -41.842  61.784 -62.271  1.00  0.00     0.239 C 
HETATM   21  H   UNL     1     -41.388  63.753 -62.710  1.00  0.00     0.279 HD
HETATM   22  C   UNL     1     -39.622  62.976 -62.042  1.00  0.00     0.270 C 
HETATM   23  C   UNL     1     -41.623  60.731 -61.171  1.00  0.00     0.068 C 
HETATM   24  H   UNL     1     -42.613  61.699 -55.535  1.00  0.00     0.162 HD
ENDBRANCH   5   7
BRANCH   1  25
HETATM   25  O   UNL     1     -40.642  58.063 -52.043  1.00  0.00    -0.349 OA
BRANCH  25  26
HETATM   26  C   UNL     1     -39.850  59.154 -51.582  1.00  0.00     0.171 C 
HETATM   27  C   UNL     1     -40.358  59.548 -50.206  1.00  0.00     0.034 C 
ENDBRANCH  25  26
ENDBRANCH   1  25
BRANCH   2  28
HETATM   28  O   UNL     1     -42.921  57.164 -51.052  1.00  0.00    -0.272 OA
BRANCH  28  29
HETATM   29  C   UNL     1     -43.469  55.896 -50.961  1.00  0.00     0.298 C 
HETATM   30  O   UNL     1     -44.523  55.583 -50.431  1.00  0.00    -0.259 OA
BRANCH  29  31
HETATM   31  C   UNL     1     -42.604  54.946 -51.712  1.00  0.00     0.040 A 
HETATM   32  C   UNL     1     -41.452  54.459 -51.079  1.00  0.00     0.019 A 
HETATM   33  C   UNL     1     -40.636  53.525 -51.723  1.00  0.00     0.020 A 
HETATM   34  C   UNL     1     -40.968  53.084 -53.003  1.00  0.00     0.011 A 
HETATM   35 BR   UNL     1     -39.875  51.808 -53.869  1.00  0.00    -0.051 Br
HETATM   36  C   UNL     1     -42.104  53.571 -53.649  1.00  0.00     0.020 A 
HETATM   37  C   UNL     1     -42.923  54.504 -53.005  1.00  0.00     0.019 A 
ENDBRANCH  29  31
ENDBRANCH  28  29
ENDBRANCH   2  28
TORSDOF 6
ENDMDL
MODEL 5
REMARK VINA RESULT:      -8.6     17.038     21.767
REMARK  6 active torsions:
REMARK  status: ('A' for Active; 'I' for Inactive)
REMARK    1  A    between atoms: C_2  and  O_3 
REMARK    2  A    between atoms: O_3  and  C_4 
REMARK    3  A    between atoms: C_5  and  O_6 
REMARK    4  A    between atoms: O_6  and  C_7 
REMARK    5  A    between atoms: C_7  and  C_8 
REMARK    6  A    between atoms: C_18  and  C_19 
ROOT
HETATM    1  C   UNL     1     -34.791  39.476 -51.186  1.00  0.00     0.103 A 
HETATM    2  C   UNL     1     -34.137  40.342 -52.076  1.00  0.00     0.112 A 
HETATM    3  C   UNL     1     -32.826  40.759 -51.848  1.00  0.00     0.041 A 
HETATM    4  C   UNL     1     -32.149  40.307 -50.719  1.00  0.00     0.014 A 
HETATM    5  C   UNL     1     -32.767  39.423 -49.818  1.00  0.00    -0.013 A 
HETATM    6  C   UNL     1     -34.099  39.023 -50.058  1.00  0.00     0.050 A 
ENDROOT
BRANCH   5   7
HETATM    7  C   UNL     1     -31.957  38.839 -48.685  1.00  0.00     0.219 C 
HETATM    8  N   UNL     1     -32.813  38.477 -47.585  1.00  0.00    -0.332 N 
HETATM    9  C   UNL     1     -32.296  38.104 -46.374  1.00  0.00     0.256 C 
HETATM   10  H   UNL     1     -33.718  38.083 -47.798  1.00  0.00     0.165 HD
HETATM   11  O   UNL     1     -32.936  37.445 -45.563  1.00  0.00    -0.267 OA
HETATM   12  C   UNL     1     -30.938  38.564 -46.122  1.00  0.00     0.073 A 
HETATM   13  C   UNL     1     -30.336  39.392 -47.044  1.00  0.00     0.088 A 
HETATM   14  C   UNL     1     -30.083  38.287 -45.012  1.00  0.00    -0.023 A 
HETATM   15  S   UNL     1     -28.772  39.862 -46.571  1.00  0.00    -0.074 SA
HETATM   16  N   UNL     1     -30.943  39.761 -48.198  1.00  0.00    -0.358 N 
HETATM   17  C   UNL     1     -28.870  38.938 -45.142  1.00  0.00     0.018 A 
HETATM   18  C   UNL     1     -27.738  38.840 -44.177  1.00  0.00     0.281 C 
HETATM   19  N   UNL     1     -28.187  38.240 -42.847  1.00  0.00    -0.070 N 
HETATM   20  C   UNL     1     -29.119  37.048 -43.050  1.00  0.00     0.239 C 
HETATM   21  H   UNL     1     -27.338  37.873 -42.402  1.00  0.00     0.279 HD
HETATM   22  C   UNL     1     -28.739  39.271 -41.905  1.00  0.00     0.270 C 
HETATM   23  C   UNL     1     -30.395  37.431 -43.821  1.00  0.00     0.068 C 
HETATM   24  H   UNL     1     -30.376  40.173 -48.936  1.00  0.00     0.162 HD
ENDBRANCH   5   7
BRANCH   1  25
HETATM   25  O   UNL     1     -36.067  39.118 -51.531  1.00  0.00    -0.349 OA
BRANCH  25  26
HETATM   26  C   UNL     1     -37.144  39.775 -50.870  1.00  0.00     0.171 C 
HETATM   27  C   UNL     1     -38.200  40.098 -51.913  1.00  0.00     0.034 C 
ENDBRANCH  25  26
ENDBRANCH   1  25
BRANCH   2  28
HETATM   28  O   UNL     1     -34.812  40.650 -53.281  1.00  0.00    -0.272 OA
BRANCH  28  29
HETATM   29  C   UNL     1     -35.455  41.859 -53.486  1.00  0.00     0.298 C 
HETATM   30  O   UNL     1     -35.565  42.781 -52.693  1.00  0.00    -0.259 OA
BRANCH  29  31
HETATM   31  C   UNL     1     -35.929  41.917 -54.895  1.00  0.00     0.040 A 
HETATM   32  C   UNL     1     -34.983  42.151 -55.903  1.00  0.00     0.019 A 
HETATM   33  C   UNL     1     -35.372  42.162 -57.245  1.00  0.00     0.020 A 
HETATM   34  C   UNL     1     -36.709  41.948 -57.579  1.00  0.00     0.011 A 
HETATM   35 BR   UNL     1     -37.234  41.946 -59.395  1.00  0.00    -0.051 Br
HETATM   36  C   UNL     1     -37.661  41.728 -56.585  1.00  0.00     0.020 A 
HETATM   37  C   UNL     1     -37.274  41.713 -55.242  1.00  0.00     0.019 A 
ENDBRANCH  29  31
ENDBRANCH  28  29
ENDBRANCH   2  28
TORSDOF 6
ENDMDL
MODEL 6
REMARK VINA RESULT:      -8.3      4.358      7.912
REMARK  6 active torsions:
REMARK  status: ('A' for Active; 'I' for Inactive)
REMARK    1  A    between atoms: C_2  and  O_3 
REMARK    2  A    between atoms: O_3  and  C_4 
REMARK    3  A    between atoms: C_5  and  O_6 
REMARK    4  A    between atoms: O_6  and  C_7 
REMARK    5  A    between atoms: C_7  and  C_8 
REMARK    6  A    between atoms: C_18  and  C_19 
ROOT
HETATM    1  C   UNL     1     -43.318  58.279 -55.009  1.00  0.00     0.103 A 
HETATM    2  C   UNL     1     -42.120  57.550 -55.026  1.00  0.00     0.112 A 
HETATM    3  C   UNL     1     -41.252  57.556 -53.935  1.00  0.00     0.041 A 
HETATM    4  C   UNL     1     -41.580  58.298 -52.803  1.00  0.00     0.014 A 
HETATM    5  C   UNL     1     -42.781  59.023 -52.744  1.00  0.00    -0.013 A 
HETATM    6  C   UNL     1     -43.640  59.016 -53.864  1.00  0.00     0.050 A 
ENDROOT
BRANCH   5   7
HETATM    7  C   UNL     1     -43.173  59.697 -51.450  1.00  0.00     0.219 C 
HETATM    8  N   UNL     1     -44.480  59.263 -51.030  1.00  0.00    -0.332 N 
HETATM    9  C   UNL     1     -45.131  59.872 -49.990  1.00  0.00     0.256 C 
HETATM   10  H   UNL     1     -44.729  58.295 -51.176  1.00  0.00     0.165 HD
HETATM   11  O   UNL     1     -46.033  59.321 -49.369  1.00  0.00    -0.267 OA
HETATM   12  C   UNL     1     -44.680  61.223 -49.694  1.00  0.00     0.073 A 
HETATM   13  C   UNL     1     -43.736  61.802 -50.514  1.00  0.00     0.088 A 
HETATM   14  C   UNL     1     -45.080  62.097 -48.638  1.00  0.00    -0.023 A 
HETATM   15  S   UNL     1     -43.355  63.391 -50.045  1.00  0.00    -0.074 SA
HETATM   16  N   UNL     1     -43.180  61.146 -51.562  1.00  0.00    -0.358 N 
HETATM   17  C   UNL     1     -44.425  63.313 -48.721  1.00  0.00     0.018 A 
HETATM   18  C   UNL     1     -44.587  64.439 -47.758  1.00  0.00     0.281 C 
HETATM   19  N   UNL     1     -45.821  64.252 -46.880  1.00  0.00    -0.070 N 
HETATM   20  C   UNL     1     -45.956  62.811 -46.393  1.00  0.00     0.239 C 
HETATM   21  H   UNL     1     -45.662  64.827 -46.044  1.00  0.00     0.279 HD
HETATM   22  C   UNL     1     -47.072  64.782 -47.520  1.00  0.00     0.270 C 
HETATM   23  C   UNL     1     -46.082  61.812 -47.558  1.00  0.00     0.068 C 
HETATM   24  H   UNL     1     -42.337  61.529 -51.983  1.00  0.00     0.162 HD
ENDBRANCH   5   7
BRANCH   1  25
HETATM   25  O   UNL     1     -44.098  58.172 -56.129  1.00  0.00    -0.349 OA
BRANCH  25  26
HETATM   26  C   UNL     1     -45.482  58.490 -56.009  1.00  0.00     0.171 C 
HETATM   27  C   UNL     1     -46.152  58.153 -57.331  1.00  0.00     0.034 C 
ENDBRANCH  25  26
ENDBRANCH   1  25
BRANCH   2  28
HETATM   28  O   UNL     1     -41.907  56.695 -56.135  1.00  0.00    -0.272 OA
BRANCH  28  29
HETATM   29  C   UNL     1     -42.447  55.423 -56.208  1.00  0.00     0.298 C 
HETATM   30  O   UNL     1     -43.223  54.996 -57.048  1.00  0.00    -0.259 OA
BRANCH  29  31
HETATM   31  C   UNL     1     -41.853  54.588 -55.128  1.00  0.00     0.040 A 
HETATM   32  C   UNL     1     -40.544  54.118 -55.300  1.00  0.00     0.019 A 
HETATM   33  C   UNL     1     -39.925  53.374 -54.292  1.00  0.00     0.020 A 
HETATM   34  C   UNL     1     -40.618  53.093 -53.116  1.00  0.00     0.011 A 
HETATM   35 BR   UNL     1     -39.776  52.101 -51.745  1.00  0.00    -0.051 Br
HETATM   36  C   UNL     1     -41.926  53.543 -52.938  1.00  0.00     0.020 A 
HETATM   37  C   UNL     1     -42.546  54.290 -53.945  1.00  0.00     0.019 A 
ENDBRANCH  29  31
ENDBRANCH  28  29
ENDBRANCH   2  28
TORSDOF 6
ENDMDL
MODEL 7
REMARK VINA RESULT:      -8.1      2.154      3.513
REMARK  6 active torsions:
REMARK  status: ('A' for Active; 'I' for Inactive)
REMARK    1  A    between atoms: C_2  and  O_3 
REMARK    2  A    between atoms: O_3  and  C_4 
REMARK    3  A    between atoms: C_5  and  O_6 
REMARK    4  A    between atoms: O_6  and  C_7 
REMARK    5  A    between atoms: C_7  and  C_8 
REMARK    6  A    between atoms: C_18  and  C_19 
ROOT
HETATM    1  C   UNL     1     -42.969  56.344 -54.336  1.00  0.00     0.103 A 
HETATM    2  C   UNL     1     -42.288  56.921 -53.254  1.00  0.00     0.112 A 
HETATM    3  C   UNL     1     -41.653  58.156 -53.374  1.00  0.00     0.041 A 
HETATM    4  C   UNL     1     -41.696  58.834 -54.590  1.00  0.00     0.014 A 
HETATM    5  C   UNL     1     -42.386  58.294 -55.688  1.00  0.00    -0.013 A 
HETATM    6  C   UNL     1     -43.011  57.036 -55.551  1.00  0.00     0.050 A 
ENDROOT
BRANCH   5   7
HETATM    7  C   UNL     1     -42.535  59.120 -56.944  1.00  0.00     0.219 C 
HETATM    8  N   UNL     1     -42.216  58.334 -58.107  1.00  0.00    -0.332 N 
HETATM    9  C   UNL     1     -42.095  58.910 -59.343  1.00  0.00     0.256 C 
HETATM   10  H   UNL     1     -42.500  57.365 -58.118  1.00  0.00     0.165 HD
HETATM   11  O   UNL     1     -42.202  58.266 -60.380  1.00  0.00    -0.267 OA
HETATM   12  C   UNL     1     -41.814  60.338 -59.326  1.00  0.00     0.073 A 
HETATM   13  C   UNL     1     -41.602  60.959 -58.115  1.00  0.00     0.088 A 
HETATM   14  C   UNL     1     -41.712  61.250 -60.421  1.00  0.00    -0.023 A 
HETATM   15  S   UNL     1     -41.250  62.613 -58.285  1.00  0.00    -0.074 SA
HETATM   16  N   UNL     1     -41.685  60.299 -56.934  1.00  0.00    -0.358 N 
HETATM   17  C   UNL     1     -41.409  62.526 -59.980  1.00  0.00     0.018 A 
HETATM   18  C   UNL     1     -41.262  63.722 -60.857  1.00  0.00     0.281 C 
HETATM   19  N   UNL     1     -41.120  63.326 -62.325  1.00  0.00    -0.070 N 
HETATM   20  C   UNL     1     -42.097  62.216 -62.708  1.00  0.00     0.239 C 
HETATM   21  H   UNL     1     -41.392  64.153 -62.868  1.00  0.00     0.279 HD
HETATM   22  C   UNL     1     -39.699  63.024 -62.707  1.00  0.00     0.270 C 
HETATM   23  C   UNL     1     -41.881  60.938 -61.878  1.00  0.00     0.068 C 
HETATM   24  H   UNL     1     -41.750  60.844 -56.077  1.00  0.00     0.162 HD
ENDBRANCH   5   7
BRANCH   1  25
HETATM   25  O   UNL     1     -43.574  55.140 -54.088  1.00  0.00    -0.349 OA
BRANCH  25  26
HETATM   26  C   UNL     1     -43.513  54.142 -55.103  1.00  0.00     0.171 C 
HETATM   27  C   UNL     1     -42.094  53.603 -55.138  1.00  0.00     0.034 C 
ENDBRANCH  25  26
ENDBRANCH   1  25
BRANCH   2  28
HETATM   28  O   UNL     1     -42.402  56.266 -52.004  1.00  0.00    -0.272 OA
BRANCH  28  29
HETATM   29  C   UNL     1     -41.345  56.167 -51.117  1.00  0.00     0.298 C 
HETATM   30  O   UNL     1     -40.887  57.053 -50.412  1.00  0.00    -0.259 OA
BRANCH  29  31
HETATM   31  C   UNL     1     -40.889  54.752 -51.071  1.00  0.00     0.040 A 
HETATM   32  C   UNL     1     -40.825  54.117 -49.823  1.00  0.00     0.019 A 
HETATM   33  C   UNL     1     -40.452  52.773 -49.734  1.00  0.00     0.020 A 
HETATM   34  C   UNL     1     -40.134  52.066 -50.894  1.00  0.00     0.011 A 
HETATM   35 BR   UNL     1     -39.646  50.244 -50.777  1.00  0.00    -0.051 Br
HETATM   36  C   UNL     1     -40.180  52.690 -52.139  1.00  0.00     0.020 A 
HETATM   37  C   UNL     1     -40.556  54.034 -52.230  1.00  0.00     0.019 A 
ENDBRANCH  29  31
ENDBRANCH  28  29
ENDBRANCH   2  28
TORSDOF 6
ENDMDL
MODEL 8
REMARK VINA RESULT:      -8.1      1.573      2.067
REMARK  6 active torsions:
REMARK  status: ('A' for Active; 'I' for Inactive)
REMARK    1  A    between atoms: C_2  and  O_3 
REMARK    2  A    between atoms: O_3  and  C_4 
REMARK    3  A    between atoms: C_5  and  O_6 
REMARK    4  A    between atoms: O_6  and  C_7 
REMARK    5  A    between atoms: C_7  and  C_8 
REMARK    6  A    between atoms: C_18  and  C_19 
ROOT
HETATM    1  C   UNL     1     -41.828  56.740 -52.380  1.00  0.00     0.103 A 
HETATM    2  C   UNL     1     -42.413  55.521 -52.003  1.00  0.00     0.112 A 
HETATM    3  C   UNL     1     -43.283  54.842 -52.855  1.00  0.00     0.041 A 
HETATM    4  C   UNL     1     -43.577  55.379 -54.106  1.00  0.00     0.014 A 
HETATM    5  C   UNL     1     -42.993  56.587 -54.523  1.00  0.00    -0.013 A 
HETATM    6  C   UNL     1     -42.126  57.267 -53.641  1.00  0.00     0.050 A 
ENDROOT
BRANCH   5   7
HETATM    7  C   UNL     1     -43.219  57.066 -55.937  1.00  0.00     0.219 C 
HETATM    8  N   UNL     1     -42.384  58.202 -56.226  1.00  0.00    -0.332 N 
HETATM    9  C   UNL     1     -42.544  58.929 -57.376  1.00  0.00     0.256 C 
HETATM   10  H   UNL     1     -41.448  58.213 -55.846  1.00  0.00     0.165 HD
HETATM   11  O   UNL     1     -41.653  59.634 -57.834  1.00  0.00    -0.267 OA
HETATM   12  C   UNL     1     -43.855  58.809 -57.996  1.00  0.00     0.073 A 
HETATM   13  C   UNL     1     -44.830  58.080 -57.351  1.00  0.00     0.088 A 
HETATM   14  C   UNL     1     -44.323  59.358 -59.229  1.00  0.00    -0.023 A 
HETATM   15  S   UNL     1     -46.305  58.079 -58.196  1.00  0.00    -0.074 SA
HETATM   16  N   UNL     1     -44.604  57.435 -56.181  1.00  0.00    -0.358 N 
HETATM   17  C   UNL     1     -45.648  59.027 -59.450  1.00  0.00     0.018 A 
HETATM   18  C   UNL     1     -46.435  59.412 -60.656  1.00  0.00     0.281 C 
HETATM   19  N   UNL     1     -45.741  60.516 -61.450  1.00  0.00    -0.070 N 
HETATM   20  C   UNL     1     -44.239  60.266 -61.570  1.00  0.00     0.239 C 
HETATM   21  H   UNL     1     -46.121  60.461 -62.402  1.00  0.00     0.279 HD
HETATM   22  C   UNL     1     -46.076  61.890 -60.945  1.00  0.00     0.270 C 
HETATM   23  C   UNL     1     -43.548  60.202 -60.196  1.00  0.00     0.068 C 
HETATM   24  H   UNL     1     -45.275  56.734 -55.875  1.00  0.00     0.162 HD
ENDBRANCH   5   7
BRANCH   1  25
HETATM   25  O   UNL     1     -40.972  57.298 -51.469  1.00  0.00    -0.349 OA
BRANCH  25  26
HETATM   26  C   UNL     1     -41.398  58.475 -50.789  1.00  0.00     0.171 C 
HETATM   27  C   UNL     1     -40.178  59.354 -50.573  1.00  0.00     0.034 C 
ENDBRANCH  25  26
ENDBRANCH   1  25
BRANCH   2  28
HETATM   28  O   UNL     1     -41.966  54.945 -50.790  1.00  0.00    -0.272 OA
BRANCH  28  29
HETATM   29  C   UNL     1     -40.658  54.534 -50.600  1.00  0.00     0.298 C 
HETATM   30  O   UNL     1     -39.849  54.986 -49.804  1.00  0.00    -0.259 OA
BRANCH  29  31
HETATM   31  C   UNL     1     -40.394  53.356 -51.471  1.00  0.00     0.040 A 
HETATM   32  C   UNL     1     -40.399  53.546 -52.860  1.00  0.00     0.019 A 
HETATM   33  C   UNL     1     -40.106  52.482 -53.717  1.00  0.00     0.020 A 
HETATM   34  C   UNL     1     -39.817  51.226 -53.185  1.00  0.00     0.011 A 
HETATM   35 BR   UNL     1     -39.404  49.790 -54.343  1.00  0.00    -0.051 Br
HETATM   36  C   UNL     1     -39.823  51.021 -51.806  1.00  0.00     0.020 A 
HETATM   37  C   UNL     1     -40.113  52.085 -50.947  1.00  0.00     0.019 A 
ENDBRANCH  29  31
ENDBRANCH  28  29
ENDBRANCH   2  28
TORSDOF 6
ENDMDL
MODEL 9
REMARK VINA RESULT:      -8.0      3.080      5.026
REMARK  6 active torsions:
REMARK  status: ('A' for Active; 'I' for Inactive)
REMARK    1  A    between atoms: C_2  and  O_3 
REMARK    2  A    between atoms: O_3  and  C_4 
REMARK    3  A    between atoms: C_5  and  O_6 
REMARK    4  A    between atoms: O_6  and  C_7 
REMARK    5  A    between atoms: C_7  and  C_8 
REMARK    6  A    between atoms: C_18  and  C_19 
ROOT
HETATM    1  C   UNL     1     -43.276  56.849 -55.173  1.00  0.00     0.103 A 
HETATM    2  C   UNL     1     -43.918  57.722 -54.282  1.00  0.00     0.112 A 
HETATM    3  C   UNL     1     -43.911  59.100 -54.488  1.00  0.00     0.041 A 
HETATM    4  C   UNL     1     -43.257  59.624 -55.599  1.00  0.00     0.014 A 
HETATM    5  C   UNL     1     -42.621  58.778 -56.522  1.00  0.00    -0.013 A 
HETATM    6  C   UNL     1     -42.627  57.386 -56.290  1.00  0.00     0.050 A 
ENDROOT
BRANCH   5   7
HETATM    7  C   UNL     1     -42.047  59.367 -57.790  1.00  0.00     0.219 C 
HETATM    8  N   UNL     1     -41.365  60.603 -57.509  1.00  0.00    -0.332 N 
HETATM    9  C   UNL     1     -40.926  61.418 -58.518  1.00  0.00     0.256 C 
HETATM   10  H   UNL     1     -40.835  60.669 -56.651  1.00  0.00     0.165 HD
HETATM   11  O   UNL     1     -40.041  62.249 -58.351  1.00  0.00    -0.267 OA
HETATM   12  C   UNL     1     -41.602  61.230 -59.792  1.00  0.00     0.073 A 
HETATM   13  C   UNL     1     -42.659  60.349 -59.860  1.00  0.00     0.088 A 
HETATM   14  C   UNL     1     -41.338  61.846 -61.054  1.00  0.00    -0.023 A 
HETATM   15  S   UNL     1     -43.353  60.284 -61.410  1.00  0.00    -0.074 SA
HETATM   16  N   UNL     1     -43.068  59.619 -58.793  1.00  0.00    -0.358 N 
HETATM   17  C   UNL     1     -42.228  61.409 -62.018  1.00  0.00     0.018 A 
HETATM   18  C   UNL     1     -42.213  61.829 -63.449  1.00  0.00     0.281 C 
HETATM   19  N   UNL     1     -41.346  63.068 -63.660  1.00  0.00    -0.070 N 
HETATM   20  C   UNL     1     -40.036  62.981 -62.879  1.00  0.00     0.239 C 
HETATM   21  H   UNL     1     -41.092  63.068 -64.654  1.00  0.00     0.279 HD
HETATM   22  C   UNL     1     -42.097  64.347 -63.420  1.00  0.00     0.270 C 
HETATM   23  C   UNL     1     -40.270  62.853 -61.363  1.00  0.00     0.068 C 
HETATM   24  H   UNL     1     -43.689  58.829 -58.954  1.00  0.00     0.162 HD
ENDBRANCH   5   7
BRANCH   1  25
HETATM   25  O   UNL     1     -43.375  55.515 -54.878  1.00  0.00    -0.349 OA
BRANCH  25  26
HETATM   26  C   UNL     1     -42.261  54.681 -55.186  1.00  0.00     0.171 C 
HETATM   27  C   UNL     1     -41.312  54.717 -54.001  1.00  0.00     0.034 C 
ENDBRANCH  25  26
ENDBRANCH   1  25
BRANCH   2  28
HETATM   28  O   UNL     1     -44.694  57.131 -53.256  1.00  0.00    -0.272 OA
BRANCH  28  29
HETATM   29  C   UNL     1     -44.538  57.462 -51.921  1.00  0.00     0.298 C 
HETATM   30  O   UNL     1     -45.225  58.229 -51.265  1.00  0.00    -0.259 OA
BRANCH  29  31
HETATM   31  C   UNL     1     -43.430  56.648 -51.352  1.00  0.00     0.040 A 
HETATM   32  C   UNL     1     -42.203  57.281 -51.105  1.00  0.00     0.019 A 
HETATM   33  C   UNL     1     -41.149  56.571 -50.523  1.00  0.00     0.020 A 
HETATM   34  C   UNL     1     -41.318  55.226 -50.197  1.00  0.00     0.011 A 
HETATM   35 BR   UNL     1     -39.899  54.270 -49.396  1.00  0.00    -0.051 Br
HETATM   36  C   UNL     1     -42.528  54.582 -50.451  1.00  0.00     0.020 A 
HETATM   37  C   UNL     1     -43.585  55.291 -51.030  1.00  0.00     0.019 A 
ENDBRANCH  29  31
ENDBRANCH  28  29
ENDBRANCH   2  28
TORSDOF 6
ENDMDL
MODEL 10
REMARK VINA RESULT:      -7.9      2.188      3.025
REMARK  6 active torsions:
REMARK  status: ('A' for Active; 'I' for Inactive)
REMARK    1  A    between atoms: C_2  and  O_3 
REMARK    2  A    between atoms: O_3  and  C_4 
REMARK    3  A    between atoms: C_5  and  O_6 
REMARK    4  A    between atoms: O_6  and  C_7 
REMARK    5  A    between atoms: C_7  and  C_8 
REMARK    6  A    between atoms: C_18  and  C_19 
ROOT
HETATM    1  C   UNL     1     -43.069  57.594 -53.573  1.00  0.00     0.103 A 
HETATM    2  C   UNL     1     -42.670  56.253 -53.473  1.00  0.00     0.112 A 
HETATM    3  C   UNL     1     -42.229  55.544 -54.590  1.00  0.00     0.041 A 
HETATM    4  C   UNL     1     -42.181  56.178 -55.829  1.00  0.00     0.014 A 
HETATM    5  C   UNL     1     -42.554  57.525 -55.960  1.00  0.00    -0.013 A 
HETATM    6  C   UNL     1     -43.011  58.222 -54.821  1.00  0.00     0.050 A 
ENDROOT
BRANCH   5   7
HETATM    7  C   UNL     1     -42.353  58.221 -57.286  1.00  0.00     0.219 C 
HETATM    8  N   UNL     1     -41.721  59.500 -57.094  1.00  0.00    -0.332 N 
HETATM    9  C   UNL     1     -41.605  60.397 -58.123  1.00  0.00     0.256 C 
HETATM   10  H   UNL     1     -41.006  59.576 -56.385  1.00  0.00     0.165 HD
HETATM   11  O   UNL     1     -40.773  61.297 -58.117  1.00  0.00    -0.267 OA
HETATM   12  C   UNL     1     -42.553  60.205 -59.210  1.00  0.00     0.073 A 
HETATM   13  C   UNL     1     -43.523  59.235 -59.082  1.00  0.00     0.088 A 
HETATM   14  C   UNL     1     -42.651  60.900 -60.455  1.00  0.00    -0.023 A 
HETATM   15  S   UNL     1     -44.565  59.177 -60.424  1.00  0.00    -0.074 SA
HETATM   16  N   UNL     1     -43.603  58.424 -57.999  1.00  0.00    -0.358 N 
HETATM   17  C   UNL     1     -43.712  60.427 -61.207  1.00  0.00     0.018 A 
HETATM   18  C   UNL     1     -44.077  60.910 -62.569  1.00  0.00     0.281 C 
HETATM   19  N   UNL     1     -43.386  62.232 -62.898  1.00  0.00    -0.070 N 
HETATM   20  C   UNL     1     -41.924  62.230 -62.458  1.00  0.00     0.239 C 
HETATM   21  H   UNL     1     -43.381  62.300 -63.922  1.00  0.00     0.279 HD
HETATM   22  C   UNL     1     -44.154  63.424 -62.403  1.00  0.00     0.270 C 
HETATM   23  C   UNL     1     -41.772  62.012 -60.942  1.00  0.00     0.068 C 
HETATM   24  H   UNL     1     -44.180  57.588 -58.060  1.00  0.00     0.162 HD
ENDBRANCH   5   7
BRANCH   1  25
HETATM   25  O   UNL     1     -43.457  58.189 -52.402  1.00  0.00    -0.349 OA
BRANCH  25  26
HETATM   26  C   UNL     1     -43.319  59.604 -52.297  1.00  0.00     0.171 C 
HETATM   27  C   UNL     1     -42.207  59.889 -51.303  1.00  0.00     0.034 C 
ENDBRANCH  25  26
ENDBRANCH   1  25
BRANCH   2  28
HETATM   28  O   UNL     1     -42.593  55.703 -52.171  1.00  0.00    -0.272 OA
BRANCH  28  29
HETATM   29  C   UNL     1     -41.424  55.703 -51.431  1.00  0.00     0.298 C 
HETATM   30  O   UNL     1     -40.912  56.652 -50.858  1.00  0.00    -0.259 OA
BRANCH  29  31
HETATM   31  C   UNL     1     -40.907  54.310 -51.351  1.00  0.00     0.040 A 
HETATM   32  C   UNL     1     -40.914  53.672 -50.103  1.00  0.00     0.019 A 
HETATM   33  C   UNL     1     -40.487  52.346 -49.987  1.00  0.00     0.020 A 
HETATM   34  C   UNL     1     -40.045  51.661 -51.118  1.00  0.00     0.011 A 
HETATM   35 BR   UNL     1     -39.483  49.863 -50.966  1.00  0.00    -0.051 Br
HETATM   36  C   UNL     1     -40.020  52.289 -52.362  1.00  0.00     0.020 A 
HETATM   37  C   UNL     1     -40.449  53.615 -52.481  1.00  0.00     0.019 A 
ENDBRANCH  29  31
ENDBRANCH  28  29
ENDBRANCH   2  28
TORSDOF 6
ENDMDL
