MODEL 1
REMARK VINA RESULT:      -8.6      0.000      0.000
REMARK  4 active torsions:
REMARK  status: ('A' for Active; 'I' for Inactive)
REMARK    1  A    between atoms: C_5  and  C_6 
REMARK    2  A    between atoms: C_16  and  C_17 
REMARK       I    between atoms: C_17  and  N_18 
REMARK    3  A    between atoms: N_18  and  C_19 
REMARK    4  A    between atoms: C_20  and  O_21 
ROOT
HETATM    1  C   UNL     1     -43.267  57.464 -53.173  1.00  0.00     0.202 C 
HETATM    2  N   UNL     1     -44.015  58.565 -53.789  1.00  0.00    -0.083 N 
HETATM    3  C   UNL     1     -44.073  58.781 -55.140  1.00  0.00     0.726 A 
HETATM    4  N   UNL     1     -44.829  59.820 -55.384  1.00  0.00    -0.046 NA
HETATM    5  C   UNL     1     -45.262  60.185 -54.127  1.00  0.00     0.162 A 
HETATM    6  C   UNL     1     -46.204  61.301 -53.910  1.00  0.00     0.096 C 
HETATM    7  N   UNL     1     -44.799  59.433 -53.118  1.00  0.00    -0.141 NA
HETATM    8  N   UNL     1     -43.446  57.924 -55.974  1.00  0.00    -0.192 N 
HETATM    9  C   UNL     1     -42.992  56.675 -55.547  1.00  0.00     0.037 C 
HETATM   10  C   UNL     1     -42.742  55.663 -56.637  1.00  0.00     0.070 C 
HETATM   11  C   UNL     1     -42.899  56.419 -54.217  1.00  0.00     0.062 C 
HETATM   12  H   UNL     1     -43.631  58.029 -56.969  1.00  0.00     0.184 HD
ENDROOT
BRANCH  11  13
HETATM   13  C   UNL     1     -42.637  55.066 -53.665  1.00  0.00     0.256 C 
HETATM   14  N   UNL     1     -41.306  54.761 -53.535  1.00  0.00    -0.321 N 
HETATM   15  H   UNL     1     -40.621  55.501 -53.659  1.00  0.00     0.169 HD
HETATM   16  O   UNL     1     -43.592  54.364 -53.359  1.00  0.00    -0.267 OA
BRANCH  14  17
HETATM   17  C   UNL     1     -40.738  53.492 -53.273  1.00  0.00     0.068 A 
HETATM   18  C   UNL     1     -40.281  53.246 -51.961  1.00  0.00     0.095 A 
HETATM   19  C   UNL     1     -39.654  52.032 -51.661  1.00  0.00     0.039 A 
HETATM   20  C   UNL     1     -39.486  51.063 -52.653  1.00  0.00     0.003 A 
HETATM   21  C   UNL     1     -39.946  51.301 -53.944  1.00  0.00     0.002 A 
HETATM   22  C   UNL     1     -40.570  52.510 -54.254  1.00  0.00     0.032 A 
BRANCH  18  23
HETATM   23  O   UNL     1     -40.477  54.268 -51.060  1.00  0.00    -0.354 OA
HETATM   24  C   UNL     1     -39.742  54.190 -49.844  1.00  0.00     0.210 C 
ENDBRANCH  18  23
ENDBRANCH  14  17
ENDBRANCH  11  13
BRANCH   1  25
HETATM   25  C   UNL     1     -42.035  58.010 -52.452  1.00  0.00    -0.028 A 
HETATM   26  C   UNL     1     -41.971  57.976 -51.051  1.00  0.00     0.010 A 
HETATM   27  C   UNL     1     -40.866  58.499 -50.373  1.00  0.00     0.007 A 
HETATM   28  C   UNL     1     -39.801  59.067 -51.079  1.00  0.00    -0.062 A 
HETATM   29  C   UNL     1     -38.616  59.644 -50.363  1.00  0.00     0.048 C 
HETATM   30  C   UNL     1     -39.842  59.075 -52.477  1.00  0.00     0.007 A 
HETATM   31  C   UNL     1     -40.945  58.551 -53.157  1.00  0.00     0.010 A 
ENDBRANCH   1  25
TORSDOF 4
ENDMDL
MODEL 2
REMARK VINA RESULT:      -8.1      2.592      5.327
REMARK  4 active torsions:
REMARK  status: ('A' for Active; 'I' for Inactive)
REMARK    1  A    between atoms: C_5  and  C_6 
REMARK    2  A    between atoms: C_16  and  C_17 
REMARK       I    between atoms: C_17  and  N_18 
REMARK    3  A    between atoms: N_18  and  C_19 
REMARK    4  A    between atoms: C_20  and  O_21 
ROOT
HETATM    1  C   UNL     1     -42.550  57.813 -56.628  1.00  0.00     0.202 C 
HETATM    2  N   UNL     1     -42.313  59.230 -56.920  1.00  0.00    -0.083 N 
HETATM    3  C   UNL     1     -42.926  60.257 -56.253  1.00  0.00     0.726 A 
HETATM    4  N   UNL     1     -42.498  61.400 -56.723  1.00  0.00    -0.046 NA
HETATM    5  C   UNL     1     -41.566  61.015 -57.663  1.00  0.00     0.162 A 
HETATM    6  C   UNL     1     -40.767  61.992 -58.427  1.00  0.00     0.096 C 
HETATM    7  N   UNL     1     -41.409  59.691 -57.808  1.00  0.00    -0.141 NA
HETATM    8  N   UNL     1     -43.771  59.974 -55.239  1.00  0.00    -0.192 N 
HETATM    9  C   UNL     1     -43.825  58.710 -54.651  1.00  0.00     0.037 C 
HETATM   10  C   UNL     1     -44.445  58.654 -53.277  1.00  0.00     0.070 C 
HETATM   11  C   UNL     1     -43.248  57.656 -55.283  1.00  0.00     0.062 C 
HETATM   12  H   UNL     1     -44.092  60.757 -54.673  1.00  0.00     0.184 HD
ENDROOT
BRANCH  11  13
HETATM   13  C   UNL     1     -43.064  56.327 -54.649  1.00  0.00     0.256 C 
HETATM   14  N   UNL     1     -41.768  56.048 -54.296  1.00  0.00    -0.321 N 
HETATM   15  H   UNL     1     -41.079  56.794 -54.335  1.00  0.00     0.169 HD
HETATM   16  O   UNL     1     -44.048  55.620 -54.476  1.00  0.00    -0.267 OA
BRANCH  14  17
HETATM   17  C   UNL     1     -41.236  54.797 -53.902  1.00  0.00     0.068 A 
HETATM   18  C   UNL     1     -41.105  54.557 -52.518  1.00  0.00     0.095 A 
HETATM   19  C   UNL     1     -40.527  53.363 -52.072  1.00  0.00     0.039 A 
HETATM   20  C   UNL     1     -40.087  52.409 -52.992  1.00  0.00     0.003 A 
HETATM   21  C   UNL     1     -40.225  52.641 -54.356  1.00  0.00     0.002 A 
HETATM   22  C   UNL     1     -40.798  53.830 -54.811  1.00  0.00     0.032 A 
BRANCH  18  23
HETATM   23  O   UNL     1     -41.551  55.565 -51.693  1.00  0.00    -0.354 OA
HETATM   24  C   UNL     1     -42.669  55.260 -50.867  1.00  0.00     0.210 C 
ENDBRANCH  18  23
ENDBRANCH  14  17
ENDBRANCH  11  13
BRANCH   1  25
HETATM   25  C   UNL     1     -43.348  57.172 -57.763  1.00  0.00    -0.028 A 
HETATM   26  C   UNL     1     -42.864  56.016 -58.392  1.00  0.00     0.010 A 
HETATM   27  C   UNL     1     -43.564  55.433 -59.454  1.00  0.00     0.007 A 
HETATM   28  C   UNL     1     -44.761  55.994 -59.909  1.00  0.00    -0.062 A 
HETATM   29  C   UNL     1     -45.513  55.386 -61.056  1.00  0.00     0.048 C 
HETATM   30  C   UNL     1     -45.267  57.127 -59.267  1.00  0.00     0.007 A 
HETATM   31  C   UNL     1     -44.570  57.710 -58.204  1.00  0.00     0.010 A 
ENDBRANCH   1  25
TORSDOF 4
ENDMDL
MODEL 3
REMARK VINA RESULT:      -8.1      1.537      2.732
REMARK  4 active torsions:
REMARK  status: ('A' for Active; 'I' for Inactive)
REMARK    1  A    between atoms: C_5  and  C_6 
REMARK    2  A    between atoms: C_16  and  C_17 
REMARK       I    between atoms: C_17  and  N_18 
REMARK    3  A    between atoms: N_18  and  C_19 
REMARK    4  A    between atoms: C_20  and  O_21 
ROOT
HETATM    1  C   UNL     1     -42.429  56.487 -53.473  1.00  0.00     0.202 C 
HETATM    2  N   UNL     1     -42.835  57.192 -54.693  1.00  0.00    -0.083 N 
HETATM    3  C   UNL     1     -42.346  56.900 -55.938  1.00  0.00     0.726 A 
HETATM    4  N   UNL     1     -42.910  57.682 -56.823  1.00  0.00    -0.046 NA
HETATM    5  C   UNL     1     -43.792  58.418 -56.062  1.00  0.00     0.162 A 
HETATM    6  C   UNL     1     -44.706  59.413 -56.657  1.00  0.00     0.096 C 
HETATM    7  N   UNL     1     -43.792  58.141 -54.750  1.00  0.00    -0.141 NA
HETATM    8  N   UNL     1     -41.469  55.883 -56.082  1.00  0.00    -0.192 N 
HETATM    9  C   UNL     1     -41.263  54.938 -55.077  1.00  0.00     0.037 C 
HETATM   10  C   UNL     1     -40.635  53.640 -55.521  1.00  0.00     0.070 C 
HETATM   11  C   UNL     1     -41.712  55.189 -53.821  1.00  0.00     0.062 C 
HETATM   12  H   UNL     1     -41.241  55.601 -57.032  1.00  0.00     0.184 HD
ENDROOT
BRANCH  11  13
HETATM   13  C   UNL     1     -41.735  54.169 -52.744  1.00  0.00     0.256 C 
HETATM   14  N   UNL     1     -40.524  53.567 -52.515  1.00  0.00    -0.321 N 
HETATM   15  H   UNL     1     -39.695  53.954 -52.957  1.00  0.00     0.169 HD
HETATM   16  O   UNL     1     -42.787  53.968 -52.151  1.00  0.00    -0.267 OA
BRANCH  14  17
HETATM   17  C   UNL     1     -40.273  52.410 -51.740  1.00  0.00     0.068 A 
HETATM   18  C   UNL     1     -39.773  51.276 -52.413  1.00  0.00     0.095 A 
HETATM   19  C   UNL     1     -39.567  50.085 -51.708  1.00  0.00     0.039 A 
HETATM   20  C   UNL     1     -39.850  50.018 -50.342  1.00  0.00     0.003 A 
HETATM   21  C   UNL     1     -40.334  51.139 -49.676  1.00  0.00     0.002 A 
HETATM   22  C   UNL     1     -40.546  52.331 -50.371  1.00  0.00     0.032 A 
BRANCH  18  23
HETATM   23  O   UNL     1     -39.543  51.436 -53.761  1.00  0.00    -0.354 OA
HETATM   24  C   UNL     1     -39.461  50.246 -54.536  1.00  0.00     0.210 C 
ENDBRANCH  18  23
ENDBRANCH  14  17
ENDBRANCH  11  13
BRANCH   1  25
HETATM   25  C   UNL     1     -41.566  57.401 -52.604  1.00  0.00    -0.028 A 
HETATM   26  C   UNL     1     -40.549  58.168 -53.190  1.00  0.00     0.010 A 
HETATM   27  C   UNL     1     -39.729  58.987 -52.407  1.00  0.00     0.007 A 
HETATM   28  C   UNL     1     -39.907  59.055 -51.022  1.00  0.00    -0.062 A 
HETATM   29  C   UNL     1     -39.024  59.918 -50.170  1.00  0.00     0.048 C 
HETATM   30  C   UNL     1     -40.939  58.319 -50.434  1.00  0.00     0.007 A 
HETATM   31  C   UNL     1     -41.761  57.502 -51.215  1.00  0.00     0.010 A 
ENDBRANCH   1  25
TORSDOF 4
ENDMDL
MODEL 4
REMARK VINA RESULT:      -7.6      2.436      5.914
REMARK  4 active torsions:
REMARK  status: ('A' for Active; 'I' for Inactive)
REMARK    1  A    between atoms: C_5  and  C_6 
REMARK    2  A    between atoms: C_16  and  C_17 
REMARK       I    between atoms: C_17  and  N_18 
REMARK    3  A    between atoms: N_18  and  C_19 
REMARK    4  A    between atoms: C_20  and  O_21 
ROOT
HETATM    1  C   UNL     1     -42.360  57.082 -56.349  1.00  0.00     0.202 C 
HETATM    2  N   UNL     1     -43.274  56.862 -57.474  1.00  0.00    -0.083 N 
HETATM    3  C   UNL     1     -44.598  57.210 -57.458  1.00  0.00     0.726 A 
HETATM    4  N   UNL     1     -45.144  56.908 -58.608  1.00  0.00    -0.046 NA
HETATM    5  C   UNL     1     -44.080  56.412 -59.330  1.00  0.00     0.162 A 
HETATM    6  C   UNL     1     -44.212  55.986 -60.737  1.00  0.00     0.096 C 
HETATM    7  N   UNL     1     -42.908  56.378 -58.679  1.00  0.00    -0.141 NA
HETATM    8  N   UNL     1     -45.105  57.828 -56.369  1.00  0.00    -0.192 N 
HETATM    9  C   UNL     1     -44.286  58.387 -55.387  1.00  0.00     0.037 C 
HETATM   10  C   UNL     1     -44.940  59.416 -54.500  1.00  0.00     0.070 C 
HETATM   11  C   UNL     1     -42.970  58.058 -55.351  1.00  0.00     0.062 C 
HETATM   12  H   UNL     1     -46.048  58.202 -56.448  1.00  0.00     0.184 HD
ENDROOT
BRANCH  11  13
HETATM   13  C   UNL     1     -41.980  58.753 -54.491  1.00  0.00     0.256 C 
HETATM   14  N   UNL     1     -41.767  58.150 -53.278  1.00  0.00    -0.321 N 
HETATM   15  H   UNL     1     -42.152  57.224 -53.118  1.00  0.00     0.169 HD
HETATM   16  O   UNL     1     -41.434  59.760 -54.925  1.00  0.00    -0.267 OA
BRANCH  14  17
HETATM   17  C   UNL     1     -41.081  58.687 -52.162  1.00  0.00     0.068 A 
HETATM   18  C   UNL     1     -41.865  59.185 -51.100  1.00  0.00     0.095 A 
HETATM   19  C   UNL     1     -41.242  59.784 -50.000  1.00  0.00     0.039 A 
HETATM   20  C   UNL     1     -39.850  59.883 -49.948  1.00  0.00     0.003 A 
HETATM   21  C   UNL     1     -39.077  59.383 -50.991  1.00  0.00     0.002 A 
HETATM   22  C   UNL     1     -39.689  58.787 -52.094  1.00  0.00     0.032 A 
BRANCH  18  23
HETATM   23  O   UNL     1     -43.227  59.057 -51.253  1.00  0.00    -0.354 OA
HETATM   24  C   UNL     1     -44.010  60.204 -50.944  1.00  0.00     0.210 C 
ENDBRANCH  18  23
ENDBRANCH  14  17
ENDBRANCH  11  13
BRANCH   1  25
HETATM   25  C   UNL     1     -42.003  55.746 -55.697  1.00  0.00    -0.028 A 
HETATM   26  C   UNL     1     -40.679  55.485 -55.315  1.00  0.00     0.010 A 
HETATM   27  C   UNL     1     -40.328  54.257 -54.746  1.00  0.00     0.007 A 
HETATM   28  C   UNL     1     -41.292  53.264 -54.547  1.00  0.00    -0.062 A 
HETATM   29  C   UNL     1     -40.925  51.937 -53.951  1.00  0.00     0.048 C 
HETATM   30  C   UNL     1     -42.620  53.528 -54.895  1.00  0.00     0.007 A 
HETATM   31  C   UNL     1     -42.974  54.755 -55.462  1.00  0.00     0.010 A 
ENDBRANCH   1  25
TORSDOF 4
ENDMDL
MODEL 5
REMARK VINA RESULT:      -7.5      2.882      6.523
REMARK  4 active torsions:
REMARK  status: ('A' for Active; 'I' for Inactive)
REMARK    1  A    between atoms: C_5  and  C_6 
REMARK    2  A    between atoms: C_16  and  C_17 
REMARK       I    between atoms: C_17  and  N_18 
REMARK    3  A    between atoms: N_18  and  C_19 
REMARK    4  A    between atoms: C_20  and  O_21 
ROOT
HETATM    1  C   UNL     1     -42.797  57.324 -53.650  1.00  0.00     0.202 C 
HETATM    2  N   UNL     1     -42.005  58.136 -52.720  1.00  0.00    -0.083 N 
HETATM    3  C   UNL     1     -41.280  59.234 -53.097  1.00  0.00     0.726 A 
HETATM    4  N   UNL     1     -40.701  59.757 -52.047  1.00  0.00    -0.046 NA
HETATM    5  C   UNL     1     -41.152  58.956 -51.019  1.00  0.00     0.162 A 
HETATM    6  C   UNL     1     -40.795  59.208 -49.609  1.00  0.00     0.096 C 
HETATM    7  N   UNL     1     -41.967  57.956 -51.384  1.00  0.00    -0.141 NA
HETATM    8  N   UNL     1     -41.310  59.635 -54.386  1.00  0.00    -0.192 N 
HETATM    9  C   UNL     1     -42.267  59.163 -55.285  1.00  0.00     0.037 C 
HETATM   10  C   UNL     1     -42.478  60.007 -56.518  1.00  0.00     0.070 C 
HETATM   11  C   UNL     1     -43.000  58.066 -54.964  1.00  0.00     0.062 C 
HETATM   12  H   UNL     1     -40.882  60.533 -54.601  1.00  0.00     0.184 HD
ENDROOT
BRANCH  11  13
HETATM   13  C   UNL     1     -44.178  57.616 -55.746  1.00  0.00     0.256 C 
HETATM   14  N   UNL     1     -43.949  57.505 -57.094  1.00  0.00    -0.321 N 
HETATM   15  H   UNL     1     -42.994  57.571 -57.434  1.00  0.00     0.169 HD
HETATM   16  O   UNL     1     -45.217  57.368 -55.147  1.00  0.00    -0.267 OA
BRANCH  14  17
HETATM   17  C   UNL     1     -44.912  57.337 -58.117  1.00  0.00     0.068 A 
HETATM   18  C   UNL     1     -44.603  56.433 -59.155  1.00  0.00     0.095 A 
HETATM   19  C   UNL     1     -45.490  56.276 -60.225  1.00  0.00     0.039 A 
HETATM   20  C   UNL     1     -46.681  57.004 -60.265  1.00  0.00     0.003 A 
HETATM   21  C   UNL     1     -46.991  57.888 -59.236  1.00  0.00     0.002 A 
HETATM   22  C   UNL     1     -46.111  58.055 -58.166  1.00  0.00     0.032 A 
BRANCH  18  23
HETATM   23  O   UNL     1     -43.399  55.777 -59.035  1.00  0.00    -0.354 OA
HETATM   24  C   UNL     1     -42.366  56.179 -59.927  1.00  0.00     0.210 C 
ENDBRANCH  18  23
ENDBRANCH  14  17
ENDBRANCH  11  13
BRANCH   1  25
HETATM   25  C   UNL     1     -42.127  55.966 -53.858  1.00  0.00    -0.028 A 
HETATM   26  C   UNL     1     -42.624  54.832 -53.198  1.00  0.00     0.010 A 
HETATM   27  C   UNL     1     -42.005  53.588 -53.352  1.00  0.00     0.007 A 
HETATM   28  C   UNL     1     -40.877  53.449 -54.166  1.00  0.00    -0.062 A 
HETATM   29  C   UNL     1     -40.196  52.122 -54.327  1.00  0.00     0.048 C 
HETATM   30  C   UNL     1     -40.395  54.568 -54.853  1.00  0.00     0.007 A 
HETATM   31  C   UNL     1     -41.013  55.812 -54.703  1.00  0.00     0.010 A 
ENDBRANCH   1  25
TORSDOF 4
ENDMDL
MODEL 6
REMARK VINA RESULT:      -7.5      3.303      6.670
REMARK  4 active torsions:
REMARK  status: ('A' for Active; 'I' for Inactive)
REMARK    1  A    between atoms: C_5  and  C_6 
REMARK    2  A    between atoms: C_16  and  C_17 
REMARK       I    between atoms: C_17  and  N_18 
REMARK    3  A    between atoms: N_18  and  C_19 
REMARK    4  A    between atoms: C_20  and  O_21 
ROOT
HETATM    1  C   UNL     1     -43.440  57.084 -55.130  1.00  0.00     0.202 C 
HETATM    2  N   UNL     1     -43.662  57.761 -53.848  1.00  0.00    -0.083 N 
HETATM    3  C   UNL     1     -43.112  58.972 -53.523  1.00  0.00     0.726 A 
HETATM    4  N   UNL     1     -43.509  59.325 -52.328  1.00  0.00    -0.046 NA
HETATM    5  C   UNL     1     -44.358  58.300 -51.972  1.00  0.00     0.162 A 
HETATM    6  C   UNL     1     -45.099  58.297 -50.696  1.00  0.00     0.096 C 
HETATM    7  N   UNL     1     -44.494  57.324 -52.882  1.00  0.00    -0.141 NA
HETATM    8  N   UNL     1     -42.350  59.617 -54.433  1.00  0.00    -0.192 N 
HETATM    9  C   UNL     1     -42.336  59.251 -55.779  1.00  0.00     0.037 C 
HETATM   10  C   UNL     1     -41.829  60.300 -56.737  1.00  0.00     0.070 C 
HETATM   11  C   UNL     1     -42.852  58.051 -56.149  1.00  0.00     0.062 C 
HETATM   12  H   UNL     1     -42.081  60.574 -54.214  1.00  0.00     0.184 HD
ENDROOT
BRANCH  11  13
HETATM   13  C   UNL     1     -43.079  57.663 -57.563  1.00  0.00     0.256 C 
HETATM   14  N   UNL     1     -44.367  57.283 -57.842  1.00  0.00    -0.321 N 
HETATM   15  H   UNL     1     -45.086  57.442 -57.142  1.00  0.00     0.169 HD
HETATM   16  O   UNL     1     -42.140  57.731 -58.346  1.00  0.00    -0.267 OA
BRANCH  14  17
HETATM   17  C   UNL     1     -44.838  56.640 -59.012  1.00  0.00     0.068 A 
HETATM   18  C   UNL     1     -46.062  57.091 -59.549  1.00  0.00     0.095 A 
HETATM   19  C   UNL     1     -46.606  56.450 -60.668  1.00  0.00     0.039 A 
HETATM   20  C   UNL     1     -45.939  55.373 -61.255  1.00  0.00     0.003 A 
HETATM   21  C   UNL     1     -44.727  54.935 -60.732  1.00  0.00     0.002 A 
HETATM   22  C   UNL     1     -44.177  55.565 -59.614  1.00  0.00     0.032 A 
BRANCH  18  23
HETATM   23  O   UNL     1     -46.650  58.145 -58.889  1.00  0.00    -0.354 OA
HETATM   24  C   UNL     1     -46.876  59.325 -59.653  1.00  0.00     0.210 C 
ENDBRANCH  18  23
ENDBRANCH  14  17
ENDBRANCH  11  13
BRANCH   1  25
HETATM   25  C   UNL     1     -42.549  55.859 -54.925  1.00  0.00    -0.028 A 
HETATM   26  C   UNL     1     -43.119  54.579 -54.873  1.00  0.00     0.010 A 
HETATM   27  C   UNL     1     -42.324  53.450 -54.656  1.00  0.00     0.007 A 
HETATM   28  C   UNL     1     -40.942  53.575 -54.484  1.00  0.00    -0.062 A 
HETATM   29  C   UNL     1     -40.080  52.373 -54.236  1.00  0.00     0.048 C 
HETATM   30  C   UNL     1     -40.361  54.844 -54.567  1.00  0.00     0.007 A 
HETATM   31  C   UNL     1     -41.153  55.974 -54.787  1.00  0.00     0.010 A 
ENDBRANCH   1  25
TORSDOF 4
ENDMDL
MODEL 7
REMARK VINA RESULT:      -7.3      2.265      4.157
REMARK  4 active torsions:
REMARK  status: ('A' for Active; 'I' for Inactive)
REMARK    1  A    between atoms: C_5  and  C_6 
REMARK    2  A    between atoms: C_16  and  C_17 
REMARK       I    between atoms: C_17  and  N_18 
REMARK    3  A    between atoms: N_18  and  C_19 
REMARK    4  A    between atoms: C_20  and  O_21 
ROOT
HETATM    1  C   UNL     1     -42.525  58.258 -53.372  1.00  0.00     0.202 C 
HETATM    2  N   UNL     1     -42.980  59.360 -52.518  1.00  0.00    -0.083 N 
HETATM    3  C   UNL     1     -43.614  59.180 -51.318  1.00  0.00     0.726 A 
HETATM    4  N   UNL     1     -43.877  60.345 -50.783  1.00  0.00    -0.046 NA
HETATM    5  C   UNL     1     -43.329  61.227 -51.689  1.00  0.00     0.162 A 
HETATM    6  C   UNL     1     -43.337  62.687 -51.471  1.00  0.00     0.096 C 
HETATM    7  N   UNL     1     -42.754  60.667 -52.763  1.00  0.00    -0.141 NA
HETATM    8  N   UNL     1     -43.808  57.926 -50.854  1.00  0.00    -0.192 N 
HETATM    9  C   UNL     1     -43.139  56.827 -51.394  1.00  0.00     0.037 C 
HETATM   10  C   UNL     1     -43.086  55.600 -50.518  1.00  0.00     0.070 C 
HETATM   11  C   UNL     1     -42.511  56.950 -52.591  1.00  0.00     0.062 C 
HETATM   12  H   UNL     1     -44.146  57.834 -49.899  1.00  0.00     0.184 HD
ENDROOT
BRANCH  11  13
HETATM   13  C   UNL     1     -41.600  55.917 -53.144  1.00  0.00     0.256 C 
HETATM   14  N   UNL     1     -41.990  54.628 -52.884  1.00  0.00    -0.321 N 
HETATM   15  H   UNL     1     -42.914  54.466 -52.496  1.00  0.00     0.169 HD
HETATM   16  O   UNL     1     -40.621  56.282 -53.783  1.00  0.00    -0.267 OA
BRANCH  14  17
HETATM   17  C   UNL     1     -41.227  53.449 -53.061  1.00  0.00     0.068 A 
HETATM   18  C   UNL     1     -40.396  53.050 -51.993  1.00  0.00     0.095 A 
HETATM   19  C   UNL     1     -39.572  51.928 -52.137  1.00  0.00     0.039 A 
HETATM   20  C   UNL     1     -39.577  51.200 -53.330  1.00  0.00     0.003 A 
HETATM   21  C   UNL     1     -40.404  51.588 -54.379  1.00  0.00     0.002 A 
HETATM   22  C   UNL     1     -41.226  52.708 -54.247  1.00  0.00     0.032 A 
BRANCH  18  23
HETATM   23  O   UNL     1     -40.450  53.841 -50.868  1.00  0.00    -0.354 OA
HETATM   24  C   UNL     1     -40.371  53.169 -49.617  1.00  0.00     0.210 C 
ENDBRANCH  18  23
ENDBRANCH  14  17
ENDBRANCH  11  13
BRANCH   1  25
HETATM   25  C   UNL     1     -43.402  58.169 -54.620  1.00  0.00    -0.028 A 
HETATM   26  C   UNL     1     -42.813  58.206 -55.893  1.00  0.00     0.010 A 
HETATM   27  C   UNL     1     -43.602  58.156 -57.047  1.00  0.00     0.007 A 
HETATM   28  C   UNL     1     -44.994  58.070 -56.954  1.00  0.00    -0.062 A 
HETATM   29  C   UNL     1     -45.851  58.031 -58.185  1.00  0.00     0.048 C 
HETATM   30  C   UNL     1     -45.586  58.000 -55.690  1.00  0.00     0.007 A 
HETATM   31  C   UNL     1     -44.801  58.047 -54.535  1.00  0.00     0.010 A 
ENDBRANCH   1  25
TORSDOF 4
ENDMDL
MODEL 8
REMARK VINA RESULT:      -7.3      2.744      5.755
REMARK  4 active torsions:
REMARK  status: ('A' for Active; 'I' for Inactive)
REMARK    1  A    between atoms: C_5  and  C_6 
REMARK    2  A    between atoms: C_16  and  C_17 
REMARK       I    between atoms: C_17  and  N_18 
REMARK    3  A    between atoms: N_18  and  C_19 
REMARK    4  A    between atoms: C_20  and  O_21 
ROOT
HETATM    1  C   UNL     1     -42.989  58.346 -56.400  1.00  0.00     0.202 C 
HETATM    2  N   UNL     1     -42.547  59.643 -56.922  1.00  0.00    -0.083 N 
HETATM    3  C   UNL     1     -43.190  60.824 -56.667  1.00  0.00     0.726 A 
HETATM    4  N   UNL     1     -42.550  61.805 -57.250  1.00  0.00    -0.046 NA
HETATM    5  C   UNL     1     -41.469  61.168 -57.821  1.00  0.00     0.162 A 
HETATM    6  C   UNL     1     -40.418  61.902 -58.553  1.00  0.00     0.096 C 
HETATM    7  N   UNL     1     -41.418  59.842 -57.633  1.00  0.00    -0.141 NA
HETATM    8  N   UNL     1     -44.273  60.826 -55.860  1.00  0.00    -0.192 N 
HETATM    9  C   UNL     1     -44.591  59.738 -55.047  1.00  0.00     0.037 C 
HETATM   10  C   UNL     1     -45.516  60.034 -53.893  1.00  0.00     0.070 C 
HETATM   11  C   UNL     1     -43.993  58.540 -55.271  1.00  0.00     0.062 C 
HETATM   12  H   UNL     1     -44.636  61.734 -55.576  1.00  0.00     0.184 HD
ENDROOT
BRANCH  11  13
HETATM   13  C   UNL     1     -44.098  57.390 -54.340  1.00  0.00     0.256 C 
HETATM   14  N   UNL     1     -43.039  57.268 -53.477  1.00  0.00    -0.321 N 
HETATM   15  H   UNL     1     -42.367  58.027 -53.417  1.00  0.00     0.169 HD
HETATM   16  O   UNL     1     -45.094  56.680 -54.397  1.00  0.00    -0.267 OA
BRANCH  14  17
HETATM   17  C   UNL     1     -42.730  56.162 -52.649  1.00  0.00     0.068 A 
HETATM   18  C   UNL     1     -42.013  55.097 -53.234  1.00  0.00     0.095 A 
HETATM   19  C   UNL     1     -41.736  53.951 -52.480  1.00  0.00     0.039 A 
HETATM   20  C   UNL     1     -42.160  53.863 -51.152  1.00  0.00     0.003 A 
HETATM   21  C   UNL     1     -42.858  54.918 -50.572  1.00  0.00     0.002 A 
HETATM   22  C   UNL     1     -43.143  56.064 -51.317  1.00  0.00     0.032 A 
BRANCH  18  23
HETATM   23  O   UNL     1     -41.656  55.271 -54.551  1.00  0.00    -0.354 OA
HETATM   24  C   UNL     1     -40.285  55.061 -54.869  1.00  0.00     0.210 C 
ENDBRANCH  18  23
ENDBRANCH  14  17
ENDBRANCH  11  13
BRANCH   1  25
HETATM   25  C   UNL     1     -43.560  57.495 -57.533  1.00  0.00    -0.028 A 
HETATM   26  C   UNL     1     -42.986  56.251 -57.832  1.00  0.00     0.010 A 
HETATM   27  C   UNL     1     -43.476  55.472 -58.885  1.00  0.00     0.007 A 
HETATM   28  C   UNL     1     -44.548  55.919 -59.662  1.00  0.00    -0.062 A 
HETATM   29  C   UNL     1     -45.073  55.099 -60.803  1.00  0.00     0.048 C 
HETATM   30  C   UNL     1     -45.147  57.143 -59.350  1.00  0.00     0.007 A 
HETATM   31  C   UNL     1     -44.662  57.923 -58.297  1.00  0.00     0.010 A 
ENDBRANCH   1  25
TORSDOF 4
ENDMDL
MODEL 9
REMARK VINA RESULT:      -7.2      2.403      4.204
REMARK  4 active torsions:
REMARK  status: ('A' for Active; 'I' for Inactive)
REMARK    1  A    between atoms: C_5  and  C_6 
REMARK    2  A    between atoms: C_16  and  C_17 
REMARK       I    between atoms: C_17  and  N_18 
REMARK    3  A    between atoms: N_18  and  C_19 
REMARK    4  A    between atoms: C_20  and  O_21 
ROOT
HETATM    1  C   UNL     1     -43.122  57.972 -52.273  1.00  0.00     0.202 C 
HETATM    2  N   UNL     1     -44.104  58.849 -51.627  1.00  0.00    -0.083 N 
HETATM    3  C   UNL     1     -45.126  58.394 -50.838  1.00  0.00     0.726 A 
HETATM    4  N   UNL     1     -45.818  59.410 -50.391  1.00  0.00    -0.046 NA
HETATM    5  C   UNL     1     -45.137  60.493 -50.903  1.00  0.00     0.162 A 
HETATM    6  C   UNL     1     -45.532  61.884 -50.608  1.00  0.00     0.096 C 
HETATM    7  N   UNL     1     -44.068  60.196 -51.657  1.00  0.00    -0.141 NA
HETATM    8  N   UNL     1     -45.234  57.070 -50.595  1.00  0.00    -0.192 N 
HETATM    9  C   UNL     1     -44.194  56.181 -50.866  1.00  0.00     0.037 C 
HETATM   10  C   UNL     1     -44.260  54.858 -50.144  1.00  0.00     0.070 C 
HETATM   11  C   UNL     1     -43.166  56.579 -51.659  1.00  0.00     0.062 C 
HETATM   12  H   UNL     1     -45.912  56.783 -49.891  1.00  0.00     0.184 HD
ENDROOT
BRANCH  11  13
HETATM   13  C   UNL     1     -41.919  55.793 -51.831  1.00  0.00     0.256 C 
HETATM   14  N   UNL     1     -42.111  54.545 -52.366  1.00  0.00    -0.321 N 
HETATM   15  H   UNL     1     -43.023  54.311 -52.746  1.00  0.00     0.169 HD
HETATM   16  O   UNL     1     -40.854  56.310 -51.516  1.00  0.00    -0.267 OA
BRANCH  14  17
HETATM   17  C   UNL     1     -41.174  53.485 -52.428  1.00  0.00     0.068 A 
HETATM   18  C   UNL     1     -40.856  52.978 -53.705  1.00  0.00     0.095 A 
HETATM   19  C   UNL     1     -39.985  51.889 -53.822  1.00  0.00     0.039 A 
HETATM   20  C   UNL     1     -39.427  51.309 -52.680  1.00  0.00     0.003 A 
HETATM   21  C   UNL     1     -39.734  51.815 -51.421  1.00  0.00     0.002 A 
HETATM   22  C   UNL     1     -40.604  52.899 -51.294  1.00  0.00     0.032 A 
BRANCH  18  23
HETATM   23  O   UNL     1     -41.469  53.605 -54.766  1.00  0.00    -0.354 OA
HETATM   24  C   UNL     1     -40.659  54.485 -55.537  1.00  0.00     0.210 C 
ENDBRANCH  18  23
ENDBRANCH  14  17
ENDBRANCH  11  13
BRANCH   1  25
HETATM   25  C   UNL     1     -43.364  57.939 -53.782  1.00  0.00    -0.028 A 
HETATM   26  C   UNL     1     -44.670  57.810 -54.278  1.00  0.00     0.010 A 
HETATM   27  C   UNL     1     -44.908  57.746 -55.655  1.00  0.00     0.007 A 
HETATM   28  C   UNL     1     -43.847  57.809 -56.564  1.00  0.00    -0.062 A 
HETATM   29  C   UNL     1     -44.089  57.728 -58.042  1.00  0.00     0.048 C 
HETATM   30  C   UNL     1     -42.547  57.970 -56.078  1.00  0.00     0.007 A 
HETATM   31  C   UNL     1     -42.306  58.036 -54.703  1.00  0.00     0.010 A 
ENDBRANCH   1  25
TORSDOF 4
ENDMDL
MODEL 10
REMARK VINA RESULT:      -7.1      2.864      6.065
REMARK  4 active torsions:
REMARK  status: ('A' for Active; 'I' for Inactive)
REMARK    1  A    between atoms: C_5  and  C_6 
REMARK    2  A    between atoms: C_16  and  C_17 
REMARK       I    between atoms: C_17  and  N_18 
REMARK    3  A    between atoms: N_18  and  C_19 
REMARK    4  A    between atoms: C_20  and  O_21 
ROOT
HETATM    1  C   UNL     1     -42.673  58.561 -53.425  1.00  0.00     0.202 C 
HETATM    2  N   UNL     1     -41.725  58.568 -52.306  1.00  0.00    -0.083 N 
HETATM    3  C   UNL     1     -41.527  57.501 -51.472  1.00  0.00     0.726 A 
HETATM    4  N   UNL     1     -40.609  57.801 -50.589  1.00  0.00    -0.046 NA
HETATM    5  C   UNL     1     -40.232  59.073 -50.961  1.00  0.00     0.162 A 
HETATM    6  C   UNL     1     -39.158  59.811 -50.268  1.00  0.00     0.096 C 
HETATM    7  N   UNL     1     -40.880  59.579 -52.020  1.00  0.00    -0.141 NA
HETATM    8  N   UNL     1     -42.202  56.352 -51.696  1.00  0.00    -0.192 N 
HETATM    9  C   UNL     1     -42.866  56.108 -52.898  1.00  0.00     0.037 C 
HETATM   10  C   UNL     1     -43.172  54.660 -53.192  1.00  0.00     0.070 C 
HETATM   11  C   UNL     1     -43.103  57.137 -53.750  1.00  0.00     0.062 C 
HETATM   12  H   UNL     1     -41.923  55.539 -51.151  1.00  0.00     0.184 HD
ENDROOT
BRANCH  11  13
HETATM   13  C   UNL     1     -43.605  56.950 -55.135  1.00  0.00     0.256 C 
HETATM   14  N   UNL     1     -42.621  56.710 -56.060  1.00  0.00    -0.321 N 
HETATM   15  H   UNL     1     -41.679  56.518 -55.734  1.00  0.00     0.169 HD
HETATM   16  O   UNL     1     -44.812  57.000 -55.331  1.00  0.00    -0.267 OA
BRANCH  14  17
HETATM   17  C   UNL     1     -42.747  56.728 -57.470  1.00  0.00     0.068 A 
HETATM   18  C   UNL     1     -42.423  57.931 -58.132  1.00  0.00     0.095 A 
HETATM   19  C   UNL     1     -42.589  58.026 -59.518  1.00  0.00     0.039 A 
HETATM   20  C   UNL     1     -43.068  56.934 -60.246  1.00  0.00     0.003 A 
HETATM   21  C   UNL     1     -43.378  55.745 -59.594  1.00  0.00     0.002 A 
HETATM   22  C   UNL     1     -43.219  55.641 -58.211  1.00  0.00     0.032 A 
BRANCH  18  23
HETATM   23  O   UNL     1     -41.977  58.954 -57.326  1.00  0.00    -0.354 OA
HETATM   24  C   UNL     1     -41.637  60.172 -57.978  1.00  0.00     0.210 C 
ENDBRANCH  18  23
ENDBRANCH  14  17
ENDBRANCH  11  13
BRANCH   1  25
HETATM   25  C   UNL     1     -43.867  59.459 -53.102  1.00  0.00    -0.028 A 
HETATM   26  C   UNL     1     -44.733  59.122 -52.052  1.00  0.00     0.010 A 
HETATM   27  C   UNL     1     -45.848  59.915 -51.762  1.00  0.00     0.007 A 
HETATM   28  C   UNL     1     -46.123  61.060 -52.517  1.00  0.00    -0.062 A 
HETATM   29  C   UNL     1     -47.324  61.910 -52.225  1.00  0.00     0.048 C 
HETATM   30  C   UNL     1     -45.247  61.420 -53.545  1.00  0.00     0.007 A 
HETATM   31  C   UNL     1     -44.130  60.631 -53.835  1.00  0.00     0.010 A 
ENDBRANCH   1  25
TORSDOF 4
ENDMDL
