MODEL 1
REMARK VINA RESULT:      -7.7      0.000      0.000
REMARK  5 active torsions:
REMARK  status: ('A' for Active; 'I' for Inactive)
REMARK    1  A    between atoms: C_8  and  N_9 
REMARK    2  A    between atoms: N_9  and  C_10 
REMARK    3  A    between atoms: C_10  and  C_11 
REMARK    4  A    between atoms: C_11  and  N_12 
REMARK       I    between atoms: N_12  and  C_13 
REMARK    5  A    between atoms: C_13  and  C_14 
ROOT
HETATM    1  C   UNL     1     -39.482  50.128 -54.277  1.00  0.00     0.048 C 
HETATM    2  C   UNL     1     -39.890  51.412 -53.611  1.00  0.00    -0.061 A 
HETATM    3  C   UNL     1     -39.850  51.536 -52.215  1.00  0.00     0.020 A 
HETATM    4  C   UNL     1     -40.209  52.743 -51.591  1.00  0.00    -0.008 A 
HETATM    5  C   UNL     1     -40.601  53.834 -52.388  1.00  0.00     0.043 A 
HETATM    6  N   UNL     1     -40.952  54.986 -51.794  1.00  0.00    -0.346 N 
HETATM    7  H   UNL     1     -41.218  55.753 -52.400  1.00  0.00     0.167 HD
HETATM    8  C   UNL     1     -40.978  55.185 -50.464  1.00  0.00     0.086 A 
HETATM    9  C   UNL     1     -40.548  54.135 -49.629  1.00  0.00    -0.023 A 
HETATM   10  C   UNL     1     -40.506  54.273 -48.131  1.00  0.00     0.052 C 
HETATM   11  C   UNL     1     -40.187  52.909 -50.203  1.00  0.00     0.023 A 
HETATM   12  C   UNL     1     -40.626  53.717 -53.783  1.00  0.00     0.031 A 
HETATM   13  C   UNL     1     -40.269  52.512 -54.388  1.00  0.00     0.009 A 
ENDROOT
BRANCH   8  14
HETATM   14  N   UNL     1     -41.339  56.427 -49.930  1.00  0.00    -0.277 NA
HETATM   15  H   UNL     1     -42.325  56.440 -49.665  1.00  0.00     0.129 HD
BRANCH  14  16
HETATM   16  C   UNL     1     -40.933  57.639 -50.641  1.00  0.00     0.113 C 
BRANCH  16  17
HETATM   17  C   UNL     1     -42.119  58.451 -51.177  1.00  0.00     0.137 C 
BRANCH  17  18
HETATM   18  N   UNL     1     -42.626  58.051 -52.488  1.00  0.00    -0.360 N 
HETATM   19  C   UNL     1     -43.448  56.970 -52.739  1.00  0.00     0.221 C 
HETATM   20  O   UNL     1     -43.929  56.272 -51.848  1.00  0.00    -0.273 OA
HETATM   21  H   UNL     1     -42.258  58.555 -53.287  1.00  0.00     0.162 HD
BRANCH  19  22
HETATM   22  C   UNL     1     -43.715  56.727 -54.224  1.00  0.00     0.070 C 
HETATM   23  C   UNL     1     -43.821  55.231 -54.510  1.00  0.00     0.019 C 
HETATM   24  C   UNL     1     -44.990  57.443 -54.672  1.00  0.00     0.019 C 
ENDBRANCH  19  22
ENDBRANCH  17  18
ENDBRANCH  16  17
ENDBRANCH  14  16
ENDBRANCH   8  14
TORSDOF 5
ENDMDL
MODEL 2
REMARK VINA RESULT:      -7.4      3.803      4.896
REMARK  5 active torsions:
REMARK  status: ('A' for Active; 'I' for Inactive)
REMARK    1  A    between atoms: C_8  and  N_9 
REMARK    2  A    between atoms: N_9  and  C_10 
REMARK    3  A    between atoms: C_10  and  C_11 
REMARK    4  A    between atoms: C_11  and  N_12 
REMARK       I    between atoms: N_12  and  C_13 
REMARK    5  A    between atoms: C_13  and  C_14 
ROOT
HETATM    1  C   UNL     1     -39.337  49.765 -50.896  1.00  0.00     0.048 C 
HETATM    2  C   UNL     1     -39.724  50.745 -51.968  1.00  0.00    -0.061 A 
HETATM    3  C   UNL     1     -40.034  52.074 -51.643  1.00  0.00     0.020 A 
HETATM    4  C   UNL     1     -40.374  52.997 -52.646  1.00  0.00    -0.008 A 
HETATM    5  C   UNL     1     -40.390  52.574 -53.988  1.00  0.00     0.043 A 
HETATM    6  N   UNL     1     -40.722  53.453 -54.947  1.00  0.00    -0.346 N 
HETATM    7  H   UNL     1     -40.712  53.116 -55.902  1.00  0.00     0.167 HD
HETATM    8  C   UNL     1     -41.068  54.734 -54.726  1.00  0.00     0.086 A 
HETATM    9  C   UNL     1     -41.020  55.214 -53.403  1.00  0.00    -0.023 A 
HETATM   10  C   UNL     1     -41.353  56.641 -53.059  1.00  0.00     0.052 C 
HETATM   11  C   UNL     1     -40.693  54.329 -52.366  1.00  0.00     0.023 A 
HETATM   12  C   UNL     1     -40.065  51.253 -54.316  1.00  0.00     0.031 A 
HETATM   13  C   UNL     1     -39.731  50.346 -53.309  1.00  0.00     0.009 A 
ENDROOT
BRANCH   8  14
HETATM   14  N   UNL     1     -41.381  55.587 -55.790  1.00  0.00    -0.277 NA
HETATM   15  H   UNL     1     -41.239  56.565 -55.529  1.00  0.00     0.129 HD
BRANCH  14  16
HETATM   16  C   UNL     1     -42.634  55.375 -56.513  1.00  0.00     0.113 C 
BRANCH  16  17
HETATM   17  C   UNL     1     -43.208  56.663 -57.118  1.00  0.00     0.137 C 
BRANCH  17  18
HETATM   18  N   UNL     1     -44.104  56.489 -58.259  1.00  0.00    -0.360 N 
HETATM   19  C   UNL     1     -43.718  56.165 -59.545  1.00  0.00     0.221 C 
HETATM   20  O   UNL     1     -42.559  55.887 -59.848  1.00  0.00    -0.273 OA
HETATM   21  H   UNL     1     -45.079  56.725 -58.108  1.00  0.00     0.162 HD
BRANCH  19  22
HETATM   22  C   UNL     1     -44.865  56.172 -60.556  1.00  0.00     0.070 C 
HETATM   23  C   UNL     1     -45.000  54.802 -61.219  1.00  0.00     0.019 C 
HETATM   24  C   UNL     1     -46.180  56.567 -59.884  1.00  0.00     0.019 C 
ENDBRANCH  19  22
ENDBRANCH  17  18
ENDBRANCH  16  17
ENDBRANCH  14  16
ENDBRANCH   8  14
TORSDOF 5
ENDMDL
MODEL 3
REMARK VINA RESULT:      -7.1      1.980      3.115
REMARK  5 active torsions:
REMARK  status: ('A' for Active; 'I' for Inactive)
REMARK    1  A    between atoms: C_8  and  N_9 
REMARK    2  A    between atoms: N_9  and  C_10 
REMARK    3  A    between atoms: C_10  and  C_11 
REMARK    4  A    between atoms: C_11  and  N_12 
REMARK       I    between atoms: N_12  and  C_13 
REMARK    5  A    between atoms: C_13  and  C_14 
ROOT
HETATM    1  C   UNL     1     -39.487  49.798 -54.468  1.00  0.00     0.048 C 
HETATM    2  C   UNL     1     -39.860  51.042 -53.713  1.00  0.00    -0.061 A 
HETATM    3  C   UNL     1     -40.647  52.034 -54.314  1.00  0.00     0.020 A 
HETATM    4  C   UNL     1     -41.017  53.187 -53.601  1.00  0.00    -0.008 A 
HETATM    5  C   UNL     1     -40.595  53.330 -52.267  1.00  0.00     0.043 A 
HETATM    6  N   UNL     1     -40.941  54.435 -51.586  1.00  0.00    -0.346 N 
HETATM    7  H   UNL     1     -40.629  54.499 -50.624  1.00  0.00     0.167 HD
HETATM    8  C   UNL     1     -41.660  55.453 -52.091  1.00  0.00     0.086 A 
HETATM    9  C   UNL     1     -42.145  55.331 -53.408  1.00  0.00    -0.023 A 
HETATM   10  C   UNL     1     -42.989  56.399 -54.050  1.00  0.00     0.052 C 
HETATM   11  C   UNL     1     -41.797  54.202 -54.163  1.00  0.00     0.023 A 
HETATM   12  C   UNL     1     -39.823  52.333 -51.659  1.00  0.00     0.031 A 
HETATM   13  C   UNL     1     -39.462  51.194 -52.380  1.00  0.00     0.009 A 
ENDROOT
BRANCH   8  14
HETATM   14  N   UNL     1     -41.993  56.559 -51.302  1.00  0.00    -0.277 NA
HETATM   15  H   UNL     1     -42.589  57.210 -51.817  1.00  0.00     0.129 HD
BRANCH  14  16
HETATM   16  C   UNL     1     -40.928  57.237 -50.563  1.00  0.00     0.113 C 
BRANCH  16  17
HETATM   17  C   UNL     1     -41.059  58.766 -50.581  1.00  0.00     0.137 C 
BRANCH  17  18
HETATM   18  N   UNL     1     -41.815  59.329 -51.697  1.00  0.00    -0.360 N 
HETATM   19  C   UNL     1     -41.325  59.563 -52.967  1.00  0.00     0.221 C 
HETATM   20  O   UNL     1     -40.199  59.222 -53.324  1.00  0.00    -0.273 OA
HETATM   21  H   UNL     1     -42.748  59.667 -51.486  1.00  0.00     0.162 HD
BRANCH  19  22
HETATM   22  C   UNL     1     -42.313  60.274 -53.890  1.00  0.00     0.070 C 
HETATM   23  C   UNL     1     -42.106  59.831 -55.337  1.00  0.00     0.019 C 
HETATM   24  C   UNL     1     -43.754  60.006 -53.456  1.00  0.00     0.019 C 
ENDBRANCH  19  22
ENDBRANCH  17  18
ENDBRANCH  16  17
ENDBRANCH  14  16
ENDBRANCH   8  14
TORSDOF 5
ENDMDL
MODEL 4
REMARK VINA RESULT:      -7.0      3.930      5.064
REMARK  5 active torsions:
REMARK  status: ('A' for Active; 'I' for Inactive)
REMARK    1  A    between atoms: C_8  and  N_9 
REMARK    2  A    between atoms: N_9  and  C_10 
REMARK    3  A    between atoms: C_10  and  C_11 
REMARK    4  A    between atoms: C_11  and  N_12 
REMARK       I    between atoms: N_12  and  C_13 
REMARK    5  A    between atoms: C_13  and  C_14 
ROOT
HETATM    1  C   UNL     1     -39.246  49.701 -50.892  1.00  0.00     0.048 C 
HETATM    2  C   UNL     1     -39.662  50.655 -51.976  1.00  0.00    -0.061 A 
HETATM    3  C   UNL     1     -39.951  51.994 -51.678  1.00  0.00     0.020 A 
HETATM    4  C   UNL     1     -40.317  52.892 -52.694  1.00  0.00    -0.008 A 
HETATM    5  C   UNL     1     -40.381  52.434 -54.022  1.00  0.00     0.043 A 
HETATM    6  N   UNL     1     -40.739  53.289 -54.993  1.00  0.00    -0.346 N 
HETATM    7  H   UNL     1     -40.763  52.927 -55.939  1.00  0.00     0.167 HD
HETATM    8  C   UNL     1     -41.068  54.578 -54.796  1.00  0.00     0.086 A 
HETATM    9  C   UNL     1     -40.972  55.094 -53.489  1.00  0.00    -0.023 A 
HETATM   10  C   UNL     1     -41.283  56.532 -53.173  1.00  0.00     0.052 C 
HETATM   11  C   UNL     1     -40.617  54.234 -52.440  1.00  0.00     0.023 A 
HETATM   12  C   UNL     1     -40.077  51.102 -54.325  1.00  0.00     0.031 A 
HETATM   13  C   UNL     1     -39.717  50.219 -53.305  1.00  0.00     0.009 A 
ENDROOT
BRANCH   8  14
HETATM   14  N   UNL     1     -41.410  55.405 -55.872  1.00  0.00    -0.277 NA
HETATM   15  H   UNL     1     -41.035  56.347 -55.744  1.00  0.00     0.129 HD
BRANCH  14  16
HETATM   16  C   UNL     1     -42.796  55.412 -56.337  1.00  0.00     0.113 C 
BRANCH  16  17
HETATM   17  C   UNL     1     -42.928  55.695 -57.839  1.00  0.00     0.137 C 
BRANCH  17  18
HETATM   18  N   UNL     1     -42.659  57.069 -58.257  1.00  0.00    -0.360 N 
HETATM   19  C   UNL     1     -42.223  57.461 -59.507  1.00  0.00     0.221 C 
HETATM   20  O   UNL     1     -42.105  56.682 -60.451  1.00  0.00    -0.273 OA
HETATM   21  H   UNL     1     -42.704  57.778 -57.533  1.00  0.00     0.162 HD
BRANCH  19  22
HETATM   22  C   UNL     1     -41.910  58.953 -59.613  1.00  0.00     0.070 C 
HETATM   23  C   UNL     1     -42.024  59.421 -61.062  1.00  0.00     0.019 C 
HETATM   24  C   UNL     1     -42.842  59.770 -58.719  1.00  0.00     0.019 C 
ENDBRANCH  19  22
ENDBRANCH  17  18
ENDBRANCH  16  17
ENDBRANCH  14  16
ENDBRANCH   8  14
TORSDOF 5
ENDMDL
MODEL 5
REMARK VINA RESULT:      -6.9      1.726      2.008
REMARK  5 active torsions:
REMARK  status: ('A' for Active; 'I' for Inactive)
REMARK    1  A    between atoms: C_8  and  N_9 
REMARK    2  A    between atoms: N_9  and  C_10 
REMARK    3  A    between atoms: C_10  and  C_11 
REMARK    4  A    between atoms: C_11  and  N_12 
REMARK       I    between atoms: N_12  and  C_13 
REMARK    5  A    between atoms: C_13  and  C_14 
ROOT
HETATM    1  C   UNL     1     -39.382  50.021 -54.227  1.00  0.00     0.048 C 
HETATM    2  C   UNL     1     -39.856  51.311 -53.619  1.00  0.00    -0.061 A 
HETATM    3  C   UNL     1     -39.808  51.508 -52.232  1.00  0.00     0.020 A 
HETATM    4  C   UNL     1     -40.228  52.722 -51.664  1.00  0.00    -0.008 A 
HETATM    5  C   UNL     1     -40.691  53.748 -52.509  1.00  0.00     0.043 A 
HETATM    6  N   UNL     1     -41.101  54.907 -51.968  1.00  0.00    -0.346 N 
HETATM    7  H   UNL     1     -41.416  55.626 -52.608  1.00  0.00     0.167 HD
HETATM    8  C   UNL     1     -41.124  55.171 -50.649  1.00  0.00     0.086 A 
HETATM    9  C   UNL     1     -40.625  54.191 -49.769  1.00  0.00    -0.023 A 
HETATM   10  C   UNL     1     -40.575  54.406 -48.281  1.00  0.00     0.052 C 
HETATM   11  C   UNL     1     -40.201  52.959 -50.287  1.00  0.00     0.023 A 
HETATM   12  C   UNL     1     -40.724  53.560 -53.896  1.00  0.00     0.031 A 
HETATM   13  C   UNL     1     -40.306  52.347 -54.445  1.00  0.00     0.009 A 
ENDROOT
BRANCH   8  14
HETATM   14  N   UNL     1     -41.549  56.416 -50.173  1.00  0.00    -0.277 NA
HETATM   15  H   UNL     1     -42.516  56.601 -50.444  1.00  0.00     0.129 HD
BRANCH  14  16
HETATM   16  C   UNL     1     -40.679  57.575 -50.369  1.00  0.00     0.113 C 
BRANCH  16  17
HETATM   17  C   UNL     1     -41.162  58.511 -51.486  1.00  0.00     0.137 C 
BRANCH  17  18
HETATM   18  N   UNL     1     -42.607  58.571 -51.688  1.00  0.00    -0.360 N 
HETATM   19  C   UNL     1     -43.451  59.547 -51.194  1.00  0.00     0.221 C 
HETATM   20  O   UNL     1     -43.047  60.543 -50.598  1.00  0.00    -0.273 OA
HETATM   21  H   UNL     1     -43.033  57.772 -52.146  1.00  0.00     0.162 HD
BRANCH  19  22
HETATM   22  C   UNL     1     -44.931  59.280 -51.464  1.00  0.00     0.070 C 
HETATM   23  C   UNL     1     -45.313  59.761 -52.862  1.00  0.00     0.019 C 
HETATM   24  C   UNL     1     -45.253  57.793 -51.310  1.00  0.00     0.019 C 
ENDBRANCH  19  22
ENDBRANCH  17  18
ENDBRANCH  16  17
ENDBRANCH  14  16
ENDBRANCH   8  14
TORSDOF 5
ENDMDL
MODEL 6
REMARK VINA RESULT:      -6.9      2.410      3.197
REMARK  5 active torsions:
REMARK  status: ('A' for Active; 'I' for Inactive)
REMARK    1  A    between atoms: C_8  and  N_9 
REMARK    2  A    between atoms: N_9  and  C_10 
REMARK    3  A    between atoms: C_10  and  C_11 
REMARK    4  A    between atoms: C_11  and  N_12 
REMARK       I    between atoms: N_12  and  C_13 
REMARK    5  A    between atoms: C_13  and  C_14 
ROOT
HETATM    1  C   UNL     1     -39.206  49.853 -51.383  1.00  0.00     0.048 C 
HETATM    2  C   UNL     1     -39.716  51.148 -51.948  1.00  0.00    -0.061 A 
HETATM    3  C   UNL     1     -40.022  52.225 -51.105  1.00  0.00     0.020 A 
HETATM    4  C   UNL     1     -40.477  53.444 -51.634  1.00  0.00    -0.008 A 
HETATM    5  C   UNL     1     -40.612  53.577 -53.028  1.00  0.00     0.043 A 
HETATM    6  N   UNL     1     -41.054  54.739 -53.535  1.00  0.00    -0.346 N 
HETATM    7  H   UNL     1     -41.128  54.802 -54.543  1.00  0.00     0.167 HD
HETATM    8  C   UNL     1     -41.405  55.811 -52.802  1.00  0.00     0.086 A 
HETATM    9  C   UNL     1     -41.241  55.740 -51.405  1.00  0.00    -0.023 A 
HETATM   10  C   UNL     1     -41.571  56.898 -50.503  1.00  0.00     0.052 C 
HETATM   11  C   UNL     1     -40.797  54.542 -50.829  1.00  0.00     0.023 A 
HETATM   12  C   UNL     1     -40.291  52.509 -53.873  1.00  0.00     0.031 A 
HETATM   13  C   UNL     1     -39.843  51.302 -53.334  1.00  0.00     0.009 A 
ENDROOT
BRANCH   8  14
HETATM   14  N   UNL     1     -41.837  56.991 -53.416  1.00  0.00    -0.277 NA
HETATM   15  H   UNL     1     -41.269  57.787 -53.121  1.00  0.00     0.129 HD
BRANCH  14  16
HETATM   16  C   UNL     1     -43.268  57.294 -53.423  1.00  0.00     0.113 C 
BRANCH  16  17
HETATM   17  C   UNL     1     -44.080  56.355 -54.324  1.00  0.00     0.137 C 
BRANCH  17  18
HETATM   18  N   UNL     1     -44.051  56.657 -55.753  1.00  0.00    -0.360 N 
HETATM   19  C   UNL     1     -43.077  56.250 -56.644  1.00  0.00     0.221 C 
HETATM   20  O   UNL     1     -42.161  55.491 -56.335  1.00  0.00    -0.273 OA
HETATM   21  H   UNL     1     -44.755  57.303 -56.092  1.00  0.00     0.162 HD
BRANCH  19  22
HETATM   22  C   UNL     1     -43.248  56.822 -58.051  1.00  0.00     0.070 C 
HETATM   23  C   UNL     1     -42.204  57.904 -58.318  1.00  0.00     0.019 C 
HETATM   24  C   UNL     1     -43.146  55.718 -59.103  1.00  0.00     0.019 C 
ENDBRANCH  19  22
ENDBRANCH  17  18
ENDBRANCH  16  17
ENDBRANCH  14  16
ENDBRANCH   8  14
TORSDOF 5
ENDMDL
MODEL 7
REMARK VINA RESULT:      -6.8      3.294      5.171
REMARK  5 active torsions:
REMARK  status: ('A' for Active; 'I' for Inactive)
REMARK    1  A    between atoms: C_8  and  N_9 
REMARK    2  A    between atoms: N_9  and  C_10 
REMARK    3  A    between atoms: C_10  and  C_11 
REMARK    4  A    between atoms: C_11  and  N_12 
REMARK       I    between atoms: N_12  and  C_13 
REMARK    5  A    between atoms: C_13  and  C_14 
ROOT
HETATM    1  C   UNL     1     -40.105  53.909 -47.301  1.00  0.00     0.048 C 
HETATM    2  C   UNL     1     -40.453  54.098 -48.750  1.00  0.00    -0.061 A 
HETATM    3  C   UNL     1     -40.109  53.126 -49.701  1.00  0.00     0.020 A 
HETATM    4  C   UNL     1     -40.454  53.291 -51.052  1.00  0.00    -0.008 A 
HETATM    5  C   UNL     1     -41.162  54.443 -51.442  1.00  0.00     0.043 A 
HETATM    6  N   UNL     1     -41.487  54.605 -52.735  1.00  0.00    -0.346 N 
HETATM    7  H   UNL     1     -42.007  55.441 -52.976  1.00  0.00     0.167 HD
HETATM    8  C   UNL     1     -41.167  53.746 -53.719  1.00  0.00     0.086 A 
HETATM    9  C   UNL     1     -40.500  52.556 -53.368  1.00  0.00    -0.023 A 
HETATM   10  C   UNL     1     -40.132  51.516 -54.392  1.00  0.00     0.052 C 
HETATM   11  C   UNL     1     -40.128  52.350 -52.033  1.00  0.00     0.023 A 
HETATM   12  C   UNL     1     -41.522  55.406 -50.492  1.00  0.00     0.031 A 
HETATM   13  C   UNL     1     -41.170  55.230 -49.153  1.00  0.00     0.009 A 
ENDROOT
BRANCH   8  14
HETATM   14  N   UNL     1     -41.564  53.986 -55.039  1.00  0.00    -0.277 NA
HETATM   15  H   UNL     1     -40.807  54.411 -55.578  1.00  0.00     0.129 HD
BRANCH  14  16
HETATM   16  C   UNL     1     -42.854  54.633 -55.277  1.00  0.00     0.113 C 
BRANCH  16  17
HETATM   17  C   UNL     1     -42.804  55.690 -56.387  1.00  0.00     0.137 C 
BRANCH  17  18
HETATM   18  N   UNL     1     -43.418  55.312 -57.657  1.00  0.00    -0.360 N 
HETATM   19  C   UNL     1     -43.273  55.984 -58.855  1.00  0.00     0.221 C 
HETATM   20  O   UNL     1     -42.514  56.940 -59.000  1.00  0.00    -0.273 OA
HETATM   21  H   UNL     1     -44.085  54.549 -57.627  1.00  0.00     0.162 HD
BRANCH  19  22
HETATM   22  C   UNL     1     -44.133  55.424 -59.988  1.00  0.00     0.070 C 
HETATM   23  C   UNL     1     -44.659  54.037 -59.623  1.00  0.00     0.019 C 
HETATM   24  C   UNL     1     -45.296  56.365 -60.303  1.00  0.00     0.019 C 
ENDBRANCH  19  22
ENDBRANCH  17  18
ENDBRANCH  16  17
ENDBRANCH  14  16
ENDBRANCH   8  14
TORSDOF 5
ENDMDL
MODEL 8
REMARK VINA RESULT:      -6.7      2.692      3.844
REMARK  5 active torsions:
REMARK  status: ('A' for Active; 'I' for Inactive)
REMARK    1  A    between atoms: C_8  and  N_9 
REMARK    2  A    between atoms: N_9  and  C_10 
REMARK    3  A    between atoms: C_10  and  C_11 
REMARK    4  A    between atoms: C_11  and  N_12 
REMARK       I    between atoms: N_12  and  C_13 
REMARK    5  A    between atoms: C_13  and  C_14 
ROOT
HETATM    1  C   UNL     1     -39.256  49.672 -50.891  1.00  0.00     0.048 C 
HETATM    2  C   UNL     1     -39.673  50.653 -51.951  1.00  0.00    -0.061 A 
HETATM    3  C   UNL     1     -39.981  51.979 -51.617  1.00  0.00     0.020 A 
HETATM    4  C   UNL     1     -40.349  52.902 -52.610  1.00  0.00    -0.008 A 
HETATM    5  C   UNL     1     -40.393  52.482 -53.952  1.00  0.00     0.043 A 
HETATM    6  N   UNL     1     -40.752  53.361 -54.901  1.00  0.00    -0.346 N 
HETATM    7  H   UNL     1     -40.761  53.026 -55.857  1.00  0.00     0.167 HD
HETATM    8  C   UNL     1     -41.098  54.640 -54.670  1.00  0.00     0.086 A 
HETATM    9  C   UNL     1     -41.022  55.118 -53.347  1.00  0.00    -0.023 A 
HETATM   10  C   UNL     1     -41.354  56.542 -52.993  1.00  0.00     0.052 C 
HETATM   11  C   UNL     1     -40.668  54.232 -52.320  1.00  0.00     0.023 A 
HETATM   12  C   UNL     1     -40.069  51.163 -54.290  1.00  0.00     0.031 A 
HETATM   13  C   UNL     1     -39.709  50.256 -53.293  1.00  0.00     0.009 A 
ENDROOT
BRANCH   8  14
HETATM   14  N   UNL     1     -41.440  55.494 -55.725  1.00  0.00    -0.277 NA
HETATM   15  H   UNL     1     -41.432  56.470 -55.423  1.00  0.00     0.129 HD
BRANCH  14  16
HETATM   16  C   UNL     1     -42.609  55.167 -56.541  1.00  0.00     0.113 C 
BRANCH  16  17
HETATM   17  C   UNL     1     -43.234  56.393 -57.218  1.00  0.00     0.137 C 
BRANCH  17  18
HETATM   18  N   UNL     1     -44.121  57.201 -56.384  1.00  0.00    -0.360 N 
HETATM   19  C   UNL     1     -43.726  58.222 -55.541  1.00  0.00     0.221 C 
HETATM   20  O   UNL     1     -42.569  58.630 -55.479  1.00  0.00    -0.273 OA
HETATM   21  H   UNL     1     -45.094  56.916 -56.350  1.00  0.00     0.162 HD
BRANCH  19  22
HETATM   22  C   UNL     1     -44.863  58.805 -54.701  1.00  0.00     0.070 C 
HETATM   23  C   UNL     1     -44.829  58.232 -53.286  1.00  0.00     0.019 C 
HETATM   24  C   UNL     1     -44.779  60.331 -54.657  1.00  0.00     0.019 C 
ENDBRANCH  19  22
ENDBRANCH  17  18
ENDBRANCH  16  17
ENDBRANCH  14  16
ENDBRANCH   8  14
TORSDOF 5
ENDMDL
MODEL 9
REMARK VINA RESULT:      -6.7     14.191     16.257
REMARK  5 active torsions:
REMARK  status: ('A' for Active; 'I' for Inactive)
REMARK    1  A    between atoms: C_8  and  N_9 
REMARK    2  A    between atoms: N_9  and  C_10 
REMARK    3  A    between atoms: C_10  and  C_11 
REMARK    4  A    between atoms: C_11  and  N_12 
REMARK       I    between atoms: N_12  and  C_13 
REMARK    5  A    between atoms: C_13  and  C_14 
ROOT
HETATM    1  C   UNL     1     -31.835  39.643 -48.856  1.00  0.00     0.048 C 
HETATM    2  C   UNL     1     -32.468  40.044 -50.159  1.00  0.00    -0.061 A 
HETATM    3  C   UNL     1     -31.833  39.766 -51.378  1.00  0.00     0.020 A 
HETATM    4  C   UNL     1     -32.433  40.119 -52.597  1.00  0.00    -0.008 A 
HETATM    5  C   UNL     1     -33.691  40.750 -52.583  1.00  0.00     0.043 A 
HETATM    6  N   UNL     1     -34.263  41.095 -53.747  1.00  0.00    -0.346 N 
HETATM    7  H   UNL     1     -35.174  41.537 -53.698  1.00  0.00     0.167 HD
HETATM    8  C   UNL     1     -33.713  40.901 -54.959  1.00  0.00     0.086 A 
HETATM    9  C   UNL     1     -32.477  40.230 -55.025  1.00  0.00    -0.023 A 
HETATM   10  C   UNL     1     -31.798  39.933 -56.335  1.00  0.00     0.052 C 
HETATM   11  C   UNL     1     -31.834  39.864 -53.834  1.00  0.00     0.023 A 
HETATM   12  C   UNL     1     -34.335  41.014 -51.368  1.00  0.00     0.031 A 
HETATM   13  C   UNL     1     -33.725  40.659 -50.164  1.00  0.00     0.009 A 
ENDROOT
BRANCH   8  14
HETATM   14  N   UNL     1     -34.391  41.275 -56.124  1.00  0.00    -0.277 NA
HETATM   15  H   UNL     1     -33.768  41.252 -56.934  1.00  0.00     0.129 HD
BRANCH  14  16
HETATM   16  C   UNL     1     -35.228  42.474 -56.094  1.00  0.00     0.113 C 
BRANCH  16  17
HETATM   17  C   UNL     1     -36.728  42.162 -56.025  1.00  0.00     0.137 C 
BRANCH  17  18
HETATM   18  N   UNL     1     -37.299  42.063 -54.685  1.00  0.00    -0.360 N 
HETATM   19  C   UNL     1     -37.417  40.904 -53.942  1.00  0.00     0.221 C 
HETATM   20  O   UNL     1     -36.953  39.825 -54.305  1.00  0.00    -0.273 OA
HETATM   21  H   UNL     1     -37.734  42.901 -54.315  1.00  0.00     0.162 HD
BRANCH  19  22
HETATM   22  C   UNL     1     -38.168  41.088 -52.623  1.00  0.00     0.070 C 
HETATM   23  C   UNL     1     -39.667  41.233 -52.878  1.00  0.00     0.019 C 
HETATM   24  C   UNL     1     -37.903  39.916 -51.679  1.00  0.00     0.019 C 
ENDBRANCH  19  22
ENDBRANCH  17  18
ENDBRANCH  16  17
ENDBRANCH  14  16
ENDBRANCH   8  14
TORSDOF 5
ENDMDL
MODEL 10
REMARK VINA RESULT:      -6.6      1.727      4.019
REMARK  5 active torsions:
REMARK  status: ('A' for Active; 'I' for Inactive)
REMARK    1  A    between atoms: C_8  and  N_9 
REMARK    2  A    between atoms: N_9  and  C_10 
REMARK    3  A    between atoms: C_10  and  C_11 
REMARK    4  A    between atoms: C_11  and  N_12 
REMARK       I    between atoms: N_12  and  C_13 
REMARK    5  A    between atoms: C_13  and  C_14 
ROOT
HETATM    1  C   UNL     1     -39.691  49.925 -53.832  1.00  0.00     0.048 C 
HETATM    2  C   UNL     1     -40.011  51.381 -53.640  1.00  0.00    -0.061 A 
HETATM    3  C   UNL     1     -40.581  52.130 -54.679  1.00  0.00     0.020 A 
HETATM    4  C   UNL     1     -40.902  53.485 -54.494  1.00  0.00    -0.008 A 
HETATM    5  C   UNL     1     -40.654  54.082 -53.244  1.00  0.00     0.043 A 
HETATM    6  N   UNL     1     -40.954  55.379 -53.068  1.00  0.00    -0.346 N 
HETATM    7  H   UNL     1     -40.772  55.772 -52.152  1.00  0.00     0.167 HD
HETATM    8  C   UNL     1     -41.468  56.183 -54.016  1.00  0.00     0.086 A 
HETATM    9  C   UNL     1     -41.777  55.616 -55.268  1.00  0.00    -0.023 A 
HETATM   10  C   UNL     1     -42.389  56.424 -56.380  1.00  0.00     0.052 C 
HETATM   11  C   UNL     1     -41.468  54.269 -55.503  1.00  0.00     0.023 A 
HETATM   12  C   UNL     1     -40.101  53.332 -52.200  1.00  0.00     0.031 A 
HETATM   13  C   UNL     1     -39.784  51.987 -52.399  1.00  0.00     0.009 A 
ENDROOT
BRANCH   8  14
HETATM   14  N   UNL     1     -41.769  57.521 -53.738  1.00  0.00    -0.277 NA
HETATM   15  H   UNL     1     -41.831  58.069 -54.598  1.00  0.00     0.129 HD
BRANCH  14  16
HETATM   16  C   UNL     1     -41.013  58.206 -52.690  1.00  0.00     0.113 C 
BRANCH  16  17
HETATM   17  C   UNL     1     -41.846  58.490 -51.433  1.00  0.00     0.137 C 
BRANCH  17  18
HETATM   18  N   UNL     1     -42.252  57.320 -50.657  1.00  0.00    -0.360 N 
HETATM   19  C   UNL     1     -41.403  56.355 -50.150  1.00  0.00     0.221 C 
HETATM   20  O   UNL     1     -40.179  56.436 -50.218  1.00  0.00    -0.273 OA
HETATM   21  H   UNL     1     -43.249  57.157 -50.575  1.00  0.00     0.162 HD
BRANCH  19  22
HETATM   22  C   UNL     1     -42.126  55.183 -49.486  1.00  0.00     0.070 C 
HETATM   23  C   UNL     1     -43.132  54.560 -50.452  1.00  0.00     0.019 C 
HETATM   24  C   UNL     1     -41.128  54.129 -49.008  1.00  0.00     0.019 C 
ENDBRANCH  19  22
ENDBRANCH  17  18
ENDBRANCH  16  17
ENDBRANCH  14  16
ENDBRANCH   8  14
TORSDOF 5
ENDMDL
