MODEL 1
REMARK VINA RESULT:      -9.0      0.000      0.000
REMARK  8 active torsions:
REMARK  status: ('A' for Active; 'I' for Inactive)
REMARK    1  A    between atoms: O_2  and  C_3 
REMARK    2  A    between atoms: C_5  and  C_6 
REMARK    3  A    between atoms: N_7  and  N_8 
REMARK    4  A    between atoms: C_19  and  C_20 
REMARK       I    between atoms: C_20  and  N_21 
REMARK    5  A    between atoms: N_21  and  C_22 
REMARK    6  A    between atoms: C_22  and  C_23 
REMARK    7  A    between atoms: C_23  and  C_24 
REMARK    8  A    between atoms: C_31  and  N_32 
ROOT
HETATM    1  N   UNL     1     -43.249  55.276 -54.494  1.00  0.00    -0.197 N 
HETATM    2  C   UNL     1     -42.414  54.353 -53.881  1.00  0.00     0.183 A 
HETATM    3  C   UNL     1     -42.265  54.754 -52.558  1.00  0.00     0.125 A 
HETATM    4  N   UNL     1     -41.414  54.117 -51.711  1.00  0.00    -0.242 NA
HETATM    5  C   UNL     1     -40.790  53.055 -52.240  1.00  0.00     0.086 A 
HETATM    6  C   UNL     1     -40.972  52.647 -53.588  1.00  0.00     0.088 A 
HETATM    7  N   UNL     1     -41.779  53.296 -54.445  1.00  0.00    -0.225 NA
HETATM    8  C   UNL     1     -39.919  52.338 -51.430  1.00  0.00     0.034 A 
HETATM    9  C   UNL     1     -39.223  51.228 -51.909  1.00  0.00     0.002 A 
HETATM   10  C   UNL     1     -39.402  50.826 -53.225  1.00  0.00     0.002 A 
HETATM   11  C   UNL     1     -40.274  51.538 -54.051  1.00  0.00     0.034 A 
HETATM   12  C   UNL     1     -43.057  55.908 -52.341  1.00  0.00     0.110 C 
HETATM   13  C   UNL     1     -43.781  56.099 -53.505  1.00  0.00     0.143 C 
ENDROOT
BRANCH  12  14
HETATM   14  C   UNL     1     -43.047  56.829 -51.219  1.00  0.00     0.257 C 
HETATM   15  N   UNL     1     -41.819  56.918 -50.593  1.00  0.00    -0.356 N 
HETATM   16  H   UNL     1     -41.137  56.211 -50.858  1.00  0.00     0.162 HD
HETATM   17  O   UNL     1     -43.981  57.583 -50.960  1.00  0.00    -0.267 OA
BRANCH  15  18
HETATM   18  C   UNL     1     -41.289  58.237 -50.306  1.00  0.00     0.127 C 
BRANCH  18  19
HETATM   19  C   UNL     1     -40.551  58.840 -51.516  1.00  0.00     0.053 C 
BRANCH  19  20
HETATM   20  C   UNL     1     -41.445  59.485 -52.563  1.00  0.00    -0.082 C 
HETATM   21  C   UNL     1     -41.339  58.973 -53.983  1.00  0.00     0.034 C 
HETATM   22  C   UNL     1     -42.042  59.863 -55.016  1.00  0.00     0.005 C 
HETATM   23  C   UNL     1     -43.400  60.339 -54.513  1.00  0.00     0.004 C 
HETATM   24  C   UNL     1     -43.258  61.111 -53.203  1.00  0.00     0.027 C 
HETATM   25  C   UNL     1     -42.312  60.462 -52.234  1.00  0.00    -0.024 C 
ENDBRANCH  19  20
ENDBRANCH  18  19
ENDBRANCH  15  18
ENDBRANCH  12  14
BRANCH  13  26
HETATM   26  N   UNL     1     -44.723  57.027 -53.806  1.00  0.00    -0.383 N 
HETATM   27  H   UNL     1     -44.452  57.954 -54.136  1.00  0.00     0.157 HD
HETATM   28  H   UNL     1     -45.671  56.937 -53.447  1.00  0.00     0.157 HD
ENDBRANCH  13  26
BRANCH   1  29
HETATM   29  N   UNL     1     -43.473  55.564 -55.818  1.00  0.00    -0.176 NA
HETATM   30  C   UNL     1     -42.468  56.043 -56.476  1.00  0.00     0.150 C 
BRANCH  30  31
HETATM   31  C   UNL     1     -42.671  56.652 -57.808  1.00  0.00    -0.014 A 
HETATM   32  C   UNL     1     -43.242  55.900 -58.843  1.00  0.00     0.049 A 
HETATM   33  C   UNL     1     -43.580  56.518 -60.045  1.00  0.00     0.069 A 
HETATM   34  C   UNL     1     -43.315  57.880 -60.212  1.00  0.00     0.037 A 
HETATM   35  C   UNL     1     -42.735  58.628 -59.183  1.00  0.00     0.004 A 
HETATM   36  C   UNL     1     -42.417  58.015 -57.972  1.00  0.00     0.013 A 
BRANCH  33  37
HETATM   37  O   UNL     1     -44.182  55.912 -61.114  1.00  0.00    -0.356 OA
HETATM   38  C   UNL     1     -45.034  54.809 -60.824  1.00  0.00     0.210 C 
ENDBRANCH  33  37
ENDBRANCH  30  31
ENDBRANCH   1  29
TORSDOF 8
ENDMDL
MODEL 2
REMARK VINA RESULT:      -8.8      1.670      2.598
REMARK  8 active torsions:
REMARK  status: ('A' for Active; 'I' for Inactive)
REMARK    1  A    between atoms: O_2  and  C_3 
REMARK    2  A    between atoms: C_5  and  C_6 
REMARK    3  A    between atoms: N_7  and  N_8 
REMARK    4  A    between atoms: C_19  and  C_20 
REMARK       I    between atoms: C_20  and  N_21 
REMARK    5  A    between atoms: N_21  and  C_22 
REMARK    6  A    between atoms: C_22  and  C_23 
REMARK    7  A    between atoms: C_23  and  C_24 
REMARK    8  A    between atoms: C_31  and  N_32 
ROOT
HETATM    1  N   UNL     1     -43.741  56.479 -54.263  1.00  0.00    -0.197 N 
HETATM    2  C   UNL     1     -43.047  56.024 -53.151  1.00  0.00     0.183 A 
HETATM    3  C   UNL     1     -43.475  56.781 -52.067  1.00  0.00     0.125 A 
HETATM    4  N   UNL     1     -42.905  56.656 -50.839  1.00  0.00    -0.242 NA
HETATM    5  C   UNL     1     -41.953  55.714 -50.759  1.00  0.00     0.086 A 
HETATM    6  C   UNL     1     -41.545  54.935 -51.874  1.00  0.00     0.088 A 
HETATM    7  N   UNL     1     -42.074  55.082 -53.101  1.00  0.00    -0.225 NA
HETATM    8  C   UNL     1     -41.337  55.510 -49.531  1.00  0.00     0.034 A 
HETATM    9  C   UNL     1     -40.330  54.558 -49.369  1.00  0.00     0.002 A 
HETATM   10  C   UNL     1     -39.932  53.793 -50.456  1.00  0.00     0.002 A 
HETATM   11  C   UNL     1     -40.543  53.989 -51.696  1.00  0.00     0.034 A 
HETATM   12  C   UNL     1     -44.479  57.679 -52.506  1.00  0.00     0.110 C 
HETATM   13  C   UNL     1     -44.738  57.346 -53.824  1.00  0.00     0.143 C 
ENDROOT
BRANCH  12  14
HETATM   14  C   UNL     1     -45.049  58.824 -51.820  1.00  0.00     0.257 C 
HETATM   15  N   UNL     1     -44.414  59.124 -50.630  1.00  0.00    -0.356 N 
HETATM   16  H   UNL     1     -43.767  58.418 -50.287  1.00  0.00     0.162 HD
HETATM   17  O   UNL     1     -45.893  59.559 -52.326  1.00  0.00    -0.267 OA
BRANCH  15  18
HETATM   18  C   UNL     1     -44.044  60.503 -50.378  1.00  0.00     0.127 C 
BRANCH  18  19
HETATM   19  C   UNL     1     -43.059  61.040 -51.434  1.00  0.00     0.053 C 
BRANCH  19  20
HETATM   20  C   UNL     1     -41.846  60.161 -51.694  1.00  0.00    -0.082 C 
HETATM   21  C   UNL     1     -41.569  59.761 -53.126  1.00  0.00     0.034 C 
HETATM   22  C   UNL     1     -40.522  58.648 -53.267  1.00  0.00     0.005 C 
HETATM   23  C   UNL     1     -39.339  58.871 -52.331  1.00  0.00     0.004 C 
HETATM   24  C   UNL     1     -39.799  58.944 -50.877  1.00  0.00     0.027 C 
HETATM   25  C   UNL     1     -41.038  59.770 -50.689  1.00  0.00    -0.024 C 
ENDBRANCH  19  20
ENDBRANCH  18  19
ENDBRANCH  15  18
ENDBRANCH  12  14
BRANCH  13  26
HETATM   26  N   UNL     1     -45.646  57.857 -54.692  1.00  0.00    -0.383 N 
HETATM   27  H   UNL     1     -46.631  57.924 -54.435  1.00  0.00     0.157 HD
HETATM   28  H   UNL     1     -45.437  57.910 -55.687  1.00  0.00     0.157 HD
ENDBRANCH  13  26
BRANCH   1  29
HETATM   29  N   UNL     1     -43.501  56.337 -55.608  1.00  0.00    -0.176 NA
HETATM   30  C   UNL     1     -42.650  57.160 -56.127  1.00  0.00     0.150 C 
BRANCH  30  31
HETATM   31  C   UNL     1     -42.535  57.287 -57.596  1.00  0.00    -0.014 A 
HETATM   32  C   UNL     1     -43.096  56.310 -58.430  1.00  0.00     0.049 A 
HETATM   33  C   UNL     1     -43.128  56.511 -59.809  1.00  0.00     0.069 A 
HETATM   34  C   UNL     1     -42.570  57.675 -60.343  1.00  0.00     0.037 A 
HETATM   35  C   UNL     1     -42.001  58.644 -59.512  1.00  0.00     0.004 A 
HETATM   36  C   UNL     1     -41.988  58.454 -58.131  1.00  0.00     0.013 A 
BRANCH  33  37
HETATM   37  O   UNL     1     -43.684  55.662 -60.727  1.00  0.00    -0.356 OA
HETATM   38  C   UNL     1     -44.823  54.922 -60.301  1.00  0.00     0.210 C 
ENDBRANCH  33  37
ENDBRANCH  30  31
ENDBRANCH   1  29
TORSDOF 8
ENDMDL
MODEL 3
REMARK VINA RESULT:      -8.7      0.925      1.547
REMARK  8 active torsions:
REMARK  status: ('A' for Active; 'I' for Inactive)
REMARK    1  A    between atoms: O_2  and  C_3 
REMARK    2  A    between atoms: C_5  and  C_6 
REMARK    3  A    between atoms: N_7  and  N_8 
REMARK    4  A    between atoms: C_19  and  C_20 
REMARK       I    between atoms: C_20  and  N_21 
REMARK    5  A    between atoms: N_21  and  C_22 
REMARK    6  A    between atoms: C_22  and  C_23 
REMARK    7  A    between atoms: C_23  and  C_24 
REMARK    8  A    between atoms: C_31  and  N_32 
ROOT
HETATM    1  N   UNL     1     -43.279  55.353 -54.548  1.00  0.00    -0.197 N 
HETATM    2  C   UNL     1     -42.436  54.435 -53.939  1.00  0.00     0.183 A 
HETATM    3  C   UNL     1     -42.286  54.838 -52.616  1.00  0.00     0.125 A 
HETATM    4  N   UNL     1     -41.427  54.206 -51.772  1.00  0.00    -0.242 NA
HETATM    5  C   UNL     1     -40.797  53.148 -52.303  1.00  0.00     0.086 A 
HETATM    6  C   UNL     1     -40.981  52.740 -53.651  1.00  0.00     0.088 A 
HETATM    7  N   UNL     1     -41.795  53.384 -54.505  1.00  0.00    -0.225 NA
HETATM    8  C   UNL     1     -39.919  52.437 -51.496  1.00  0.00     0.034 A 
HETATM    9  C   UNL     1     -39.218  51.332 -51.979  1.00  0.00     0.002 A 
HETATM   10  C   UNL     1     -39.398  50.929 -53.294  1.00  0.00     0.002 A 
HETATM   11  C   UNL     1     -40.277  51.636 -54.116  1.00  0.00     0.034 A 
HETATM   12  C   UNL     1     -43.084  55.986 -52.396  1.00  0.00     0.110 C 
HETATM   13  C   UNL     1     -43.814  56.172 -53.557  1.00  0.00     0.143 C 
ENDROOT
BRANCH  12  14
HETATM   14  C   UNL     1     -43.076  56.907 -51.273  1.00  0.00     0.257 C 
HETATM   15  N   UNL     1     -41.848  57.001 -50.649  1.00  0.00    -0.356 N 
HETATM   16  H   UNL     1     -41.164  56.297 -50.915  1.00  0.00     0.162 HD
HETATM   17  O   UNL     1     -44.013  57.657 -51.013  1.00  0.00    -0.267 OA
BRANCH  15  18
HETATM   18  C   UNL     1     -41.323  58.322 -50.362  1.00  0.00     0.127 C 
BRANCH  18  19
HETATM   19  C   UNL     1     -40.588  58.927 -51.573  1.00  0.00     0.053 C 
BRANCH  19  20
HETATM   20  C   UNL     1     -41.486  59.558 -52.625  1.00  0.00    -0.082 C 
HETATM   21  C   UNL     1     -41.381  59.031 -54.039  1.00  0.00     0.034 C 
HETATM   22  C   UNL     1     -42.088  59.908 -55.081  1.00  0.00     0.005 C 
HETATM   23  C   UNL     1     -43.448  60.384 -54.581  1.00  0.00     0.004 C 
HETATM   24  C   UNL     1     -43.306  61.170 -53.280  1.00  0.00     0.027 C 
HETATM   25  C   UNL     1     -42.357  60.535 -52.306  1.00  0.00    -0.024 C 
ENDBRANCH  19  20
ENDBRANCH  18  19
ENDBRANCH  15  18
ENDBRANCH  12  14
BRANCH  13  26
HETATM   26  N   UNL     1     -44.763  57.094 -53.855  1.00  0.00    -0.383 N 
HETATM   27  H   UNL     1     -45.620  57.154 -53.305  1.00  0.00     0.157 HD
HETATM   28  H   UNL     1     -44.786  57.534 -54.772  1.00  0.00     0.157 HD
ENDBRANCH  13  26
BRANCH   1  29
HETATM   29  N   UNL     1     -43.509  55.641 -55.872  1.00  0.00    -0.176 NA
HETATM   30  C   UNL     1     -42.546  56.224 -56.505  1.00  0.00     0.150 C 
BRANCH  30  31
HETATM   31  C   UNL     1     -42.785  56.833 -57.832  1.00  0.00    -0.014 A 
HETATM   32  C   UNL     1     -42.268  58.102 -58.124  1.00  0.00     0.049 A 
HETATM   33  C   UNL     1     -42.356  58.605 -59.421  1.00  0.00     0.069 A 
HETATM   34  C   UNL     1     -42.987  57.844 -60.408  1.00  0.00     0.037 A 
HETATM   35  C   UNL     1     -43.511  56.583 -60.114  1.00  0.00     0.004 A 
HETATM   36  C   UNL     1     -43.405  56.069 -58.822  1.00  0.00     0.013 A 
BRANCH  33  37
HETATM   37  O   UNL     1     -41.854  59.804 -59.848  1.00  0.00    -0.356 OA
HETATM   38  C   UNL     1     -41.968  60.082 -61.240  1.00  0.00     0.210 C 
ENDBRANCH  33  37
ENDBRANCH  30  31
ENDBRANCH   1  29
TORSDOF 8
ENDMDL
MODEL 4
REMARK VINA RESULT:      -8.6      2.414      6.640
REMARK  8 active torsions:
REMARK  status: ('A' for Active; 'I' for Inactive)
REMARK    1  A    between atoms: O_2  and  C_3 
REMARK    2  A    between atoms: C_5  and  C_6 
REMARK    3  A    between atoms: N_7  and  N_8 
REMARK    4  A    between atoms: C_19  and  C_20 
REMARK       I    between atoms: C_20  and  N_21 
REMARK    5  A    between atoms: N_21  and  C_22 
REMARK    6  A    between atoms: C_22  and  C_23 
REMARK    7  A    between atoms: C_23  and  C_24 
REMARK    8  A    between atoms: C_31  and  N_32 
ROOT
HETATM    1  N   UNL     1     -42.017  56.545 -55.803  1.00  0.00    -0.197 N 
HETATM    2  C   UNL     1     -42.863  56.514 -56.903  1.00  0.00     0.183 A 
HETATM    3  C   UNL     1     -43.671  57.643 -56.826  1.00  0.00     0.125 A 
HETATM    4  N   UNL     1     -44.689  57.852 -57.702  1.00  0.00    -0.242 NA
HETATM    5  C   UNL     1     -44.802  56.921 -58.661  1.00  0.00     0.086 A 
HETATM    6  C   UNL     1     -43.951  55.786 -58.735  1.00  0.00     0.088 A 
HETATM    7  N   UNL     1     -42.970  55.548 -57.848  1.00  0.00    -0.225 NA
HETATM    8  C   UNL     1     -45.805  57.076 -59.608  1.00  0.00     0.034 A 
HETATM    9  C   UNL     1     -45.994  56.145 -60.630  1.00  0.00     0.002 A 
HETATM   10  C   UNL     1     -45.163  55.037 -60.706  1.00  0.00     0.002 A 
HETATM   11  C   UNL     1     -44.151  54.869 -59.760  1.00  0.00     0.034 A 
HETATM   12  C   UNL     1     -43.286  58.403 -55.695  1.00  0.00     0.110 C 
HETATM   13  C   UNL     1     -42.154  57.787 -55.189  1.00  0.00     0.143 C 
ENDROOT
BRANCH  12  14
HETATM   14  C   UNL     1     -43.973  59.511 -55.057  1.00  0.00     0.257 C 
HETATM   15  N   UNL     1     -45.146  59.141 -54.428  1.00  0.00    -0.356 N 
HETATM   16  H   UNL     1     -45.482  58.204 -54.639  1.00  0.00     0.162 HD
HETATM   17  O   UNL     1     -43.479  60.628 -54.936  1.00  0.00    -0.267 OA
BRANCH  15  18
HETATM   18  C   UNL     1     -45.377  59.610 -53.075  1.00  0.00     0.127 C 
BRANCH  18  19
HETATM   19  C   UNL     1     -45.109  58.513 -52.029  1.00  0.00     0.053 C 
BRANCH  19  20
HETATM   20  C   UNL     1     -43.698  58.490 -51.463  1.00  0.00    -0.082 C 
HETATM   21  C   UNL     1     -43.018  57.144 -51.338  1.00  0.00     0.034 C 
HETATM   22  C   UNL     1     -41.737  57.174 -50.494  1.00  0.00     0.005 C 
HETATM   23  C   UNL     1     -40.882  58.394 -50.818  1.00  0.00     0.004 C 
HETATM   24  C   UNL     1     -41.663  59.685 -50.586  1.00  0.00     0.027 C 
HETATM   25  C   UNL     1     -43.070  59.627 -51.106  1.00  0.00    -0.024 C 
ENDBRANCH  19  20
ENDBRANCH  18  19
ENDBRANCH  15  18
ENDBRANCH  12  14
BRANCH  13  26
HETATM   26  N   UNL     1     -41.360  58.137 -54.147  1.00  0.00    -0.383 N 
HETATM   27  H   UNL     1     -40.369  58.337 -54.292  1.00  0.00     0.157 HD
HETATM   28  H   UNL     1     -41.640  57.932 -53.191  1.00  0.00     0.157 HD
ENDBRANCH  13  26
BRANCH   1  29
HETATM   29  N   UNL     1     -41.265  55.564 -55.204  1.00  0.00    -0.176 NA
HETATM   30  C   UNL     1     -41.922  54.635 -54.591  1.00  0.00     0.150 C 
BRANCH  30  31
HETATM   31  C   UNL     1     -41.222  53.704 -53.678  1.00  0.00    -0.014 A 
HETATM   32  C   UNL     1     -40.654  52.526 -54.181  1.00  0.00     0.049 A 
HETATM   33  C   UNL     1     -39.860  51.732 -53.355  1.00  0.00     0.069 A 
HETATM   34  C   UNL     1     -39.665  52.111 -52.024  1.00  0.00     0.037 A 
HETATM   35  C   UNL     1     -40.240  53.280 -51.521  1.00  0.00     0.004 A 
HETATM   36  C   UNL     1     -41.017  54.087 -52.352  1.00  0.00     0.013 A 
BRANCH  33  37
HETATM   37  O   UNL     1     -39.213  50.586 -53.731  1.00  0.00    -0.356 OA
HETATM   38  C   UNL     1     -39.859  49.783 -54.712  1.00  0.00     0.210 C 
ENDBRANCH  33  37
ENDBRANCH  30  31
ENDBRANCH   1  29
TORSDOF 8
ENDMDL
MODEL 5
REMARK VINA RESULT:      -7.9      3.040      7.642
REMARK  8 active torsions:
REMARK  status: ('A' for Active; 'I' for Inactive)
REMARK    1  A    between atoms: O_2  and  C_3 
REMARK    2  A    between atoms: C_5  and  C_6 
REMARK    3  A    between atoms: N_7  and  N_8 
REMARK    4  A    between atoms: C_19  and  C_20 
REMARK       I    between atoms: C_20  and  N_21 
REMARK    5  A    between atoms: N_21  and  C_22 
REMARK    6  A    between atoms: C_22  and  C_23 
REMARK    7  A    between atoms: C_23  and  C_24 
REMARK    8  A    between atoms: C_31  and  N_32 
ROOT
HETATM    1  N   UNL     1     -41.789  58.978 -52.233  1.00  0.00    -0.197 N 
HETATM    2  C   UNL     1     -41.447  57.648 -52.030  1.00  0.00     0.183 A 
HETATM    3  C   UNL     1     -41.509  57.019 -53.268  1.00  0.00     0.125 A 
HETATM    4  N   UNL     1     -41.334  55.677 -53.396  1.00  0.00    -0.242 NA
HETATM    5  C   UNL     1     -41.044  55.040 -52.252  1.00  0.00     0.086 A 
HETATM    6  C   UNL     1     -40.964  55.704 -51.000  1.00  0.00     0.088 A 
HETATM    7  N   UNL     1     -41.178  57.024 -50.857  1.00  0.00    -0.225 NA
HETATM    8  C   UNL     1     -40.829  53.669 -52.304  1.00  0.00     0.034 A 
HETATM    9  C   UNL     1     -40.535  52.933 -51.156  1.00  0.00     0.002 A 
HETATM   10  C   UNL     1     -40.452  53.580 -49.932  1.00  0.00     0.002 A 
HETATM   11  C   UNL     1     -40.667  54.958 -49.866  1.00  0.00     0.034 A 
HETATM   12  C   UNL     1     -41.844  57.981 -54.252  1.00  0.00     0.110 C 
HETATM   13  C   UNL     1     -41.839  59.206 -53.605  1.00  0.00     0.143 C 
ENDROOT
BRANCH  12  14
HETATM   14  C   UNL     1     -42.264  57.780 -55.627  1.00  0.00     0.257 C 
HETATM   15  N   UNL     1     -41.936  56.534 -56.124  1.00  0.00    -0.356 N 
HETATM   16  H   UNL     1     -41.291  55.989 -55.556  1.00  0.00     0.162 HD
HETATM   17  O   UNL     1     -42.990  58.566 -56.230  1.00  0.00    -0.267 OA
BRANCH  15  18
HETATM   18  C   UNL     1     -42.960  55.782 -56.823  1.00  0.00     0.127 C 
BRANCH  18  19
HETATM   19  C   UNL     1     -42.806  55.877 -58.352  1.00  0.00     0.053 C 
BRANCH  19  20
HETATM   20  C   UNL     1     -44.102  56.075 -59.122  1.00  0.00    -0.082 C 
HETATM   21  C   UNL     1     -44.468  55.029 -60.152  1.00  0.00     0.034 C 
HETATM   22  C   UNL     1     -45.615  55.449 -61.080  1.00  0.00     0.005 C 
HETATM   23  C   UNL     1     -46.738  56.133 -60.307  1.00  0.00     0.004 C 
HETATM   24  C   UNL     1     -46.219  57.363 -59.566  1.00  0.00     0.027 C 
HETATM   25  C   UNL     1     -44.904  57.130 -58.881  1.00  0.00    -0.024 C 
ENDBRANCH  19  20
ENDBRANCH  18  19
ENDBRANCH  15  18
ENDBRANCH  12  14
BRANCH  13  26
HETATM   26  N   UNL     1     -42.043  60.453 -54.095  1.00  0.00    -0.383 N 
HETATM   27  H   UNL     1     -42.921  60.944 -53.921  1.00  0.00     0.157 HD
HETATM   28  H   UNL     1     -41.477  60.805 -54.864  1.00  0.00     0.157 HD
ENDBRANCH  13  26
BRANCH   1  29
HETATM   29  N   UNL     1     -42.202  59.955 -51.361  1.00  0.00    -0.176 NA
HETATM   30  C   UNL     1     -43.423  59.871 -50.944  1.00  0.00     0.150 C 
BRANCH  30  31
HETATM   31  C   UNL     1     -44.054  61.011 -50.244  1.00  0.00    -0.014 A 
HETATM   32  C   UNL     1     -45.255  60.827 -49.546  1.00  0.00     0.049 A 
HETATM   33  C   UNL     1     -45.762  61.857 -48.757  1.00  0.00     0.069 A 
HETATM   34  C   UNL     1     -45.078  63.074 -48.696  1.00  0.00     0.037 A 
HETATM   35  C   UNL     1     -43.886  63.260 -49.401  1.00  0.00     0.004 A 
HETATM   36  C   UNL     1     -43.365  62.223 -50.174  1.00  0.00     0.013 A 
BRANCH  33  37
HETATM   37  O   UNL     1     -46.896  61.793 -47.992  1.00  0.00    -0.356 OA
HETATM   38  C   UNL     1     -46.778  62.229 -46.642  1.00  0.00     0.210 C 
ENDBRANCH  33  37
ENDBRANCH  30  31
ENDBRANCH   1  29
TORSDOF 8
ENDMDL
MODEL 6
REMARK VINA RESULT:      -7.9      3.258      7.279
REMARK  8 active torsions:
REMARK  status: ('A' for Active; 'I' for Inactive)
REMARK    1  A    between atoms: O_2  and  C_3 
REMARK    2  A    between atoms: C_5  and  C_6 
REMARK    3  A    between atoms: N_7  and  N_8 
REMARK    4  A    between atoms: C_19  and  C_20 
REMARK       I    between atoms: C_20  and  N_21 
REMARK    5  A    between atoms: N_21  and  C_22 
REMARK    6  A    between atoms: C_22  and  C_23 
REMARK    7  A    between atoms: C_23  and  C_24 
REMARK    8  A    between atoms: C_31  and  N_32 
ROOT
HETATM    1  N   UNL     1     -41.790  56.787 -54.906  1.00  0.00    -0.197 N 
HETATM    2  C   UNL     1     -42.365  56.722 -56.167  1.00  0.00     0.183 A 
HETATM    3  C   UNL     1     -42.639  58.029 -56.556  1.00  0.00     0.125 A 
HETATM    4  N   UNL     1     -43.309  58.305 -57.706  1.00  0.00    -0.242 NA
HETATM    5  C   UNL     1     -43.622  57.228 -58.443  1.00  0.00     0.086 A 
HETATM    6  C   UNL     1     -43.313  55.902 -58.038  1.00  0.00     0.088 A 
HETATM    7  N   UNL     1     -42.689  55.618 -56.883  1.00  0.00    -0.225 NA
HETATM    8  C   UNL     1     -44.288  57.430 -59.645  1.00  0.00     0.034 A 
HETATM    9  C   UNL     1     -44.659  56.361 -60.461  1.00  0.00     0.002 A 
HETATM   10  C   UNL     1     -44.355  55.065 -60.070  1.00  0.00     0.002 A 
HETATM   11  C   UNL     1     -43.686  54.849 -58.864  1.00  0.00     0.034 A 
HETATM   12  C   UNL     1     -42.183  58.910 -55.546  1.00  0.00     0.110 C 
HETATM   13  C   UNL     1     -41.512  58.122 -54.627  1.00  0.00     0.143 C 
ENDROOT
BRANCH  12  14
HETATM   14  C   UNL     1     -42.456  60.325 -55.371  1.00  0.00     0.257 C 
HETATM   15  N   UNL     1     -42.122  61.089 -56.473  1.00  0.00    -0.356 N 
HETATM   16  H   UNL     1     -41.565  60.619 -57.182  1.00  0.00     0.162 HD
HETATM   17  O   UNL     1     -43.081  60.776 -54.415  1.00  0.00    -0.267 OA
BRANCH  15  18
HETATM   18  C   UNL     1     -43.091  62.052 -56.960  1.00  0.00     0.127 C 
BRANCH  18  19
HETATM   19  C   UNL     1     -42.417  63.329 -57.497  1.00  0.00     0.053 C 
BRANCH  19  20
HETATM   20  C   UNL     1     -41.473  63.118 -58.670  1.00  0.00    -0.082 C 
HETATM   21  C   UNL     1     -42.051  62.512 -59.930  1.00  0.00     0.034 C 
HETATM   22  C   UNL     1     -40.990  62.062 -60.943  1.00  0.00     0.005 C 
HETATM   23  C   UNL     1     -39.871  63.090 -61.075  1.00  0.00     0.004 C 
HETATM   24  C   UNL     1     -39.199  63.343 -59.728  1.00  0.00     0.027 C 
HETATM   25  C   UNL     1     -40.177  63.476 -58.596  1.00  0.00    -0.024 C 
ENDBRANCH  19  20
ENDBRANCH  18  19
ENDBRANCH  15  18
ENDBRANCH  12  14
BRANCH  13  26
HETATM   26  N   UNL     1     -40.842  58.471 -53.500  1.00  0.00    -0.383 N 
HETATM   27  H   UNL     1     -40.501  59.425 -53.373  1.00  0.00     0.157 HD
HETATM   28  H   UNL     1     -40.417  57.760 -52.910  1.00  0.00     0.157 HD
ENDBRANCH  13  26
BRANCH   1  29
HETATM   29  N   UNL     1     -41.625  55.835 -53.930  1.00  0.00    -0.176 NA
HETATM   30  C   UNL     1     -40.599  55.058 -54.057  1.00  0.00     0.150 C 
BRANCH  30  31
HETATM   31  C   UNL     1     -40.486  53.831 -53.239  1.00  0.00    -0.014 A 
HETATM   32  C   UNL     1     -40.094  52.625 -53.836  1.00  0.00     0.049 A 
HETATM   33  C   UNL     1     -39.832  51.511 -53.040  1.00  0.00     0.069 A 
HETATM   34  C   UNL     1     -39.995  51.606 -51.655  1.00  0.00     0.037 A 
HETATM   35  C   UNL     1     -40.396  52.806 -51.062  1.00  0.00     0.004 A 
HETATM   36  C   UNL     1     -40.636  53.927 -51.855  1.00  0.00     0.013 A 
BRANCH  33  37
HETATM   37  O   UNL     1     -39.402  50.292 -53.489  1.00  0.00    -0.356 OA
HETATM   38  C   UNL     1     -39.937  49.846 -54.731  1.00  0.00     0.210 C 
ENDBRANCH  33  37
ENDBRANCH  30  31
ENDBRANCH   1  29
TORSDOF 8
ENDMDL
MODEL 7
REMARK VINA RESULT:      -7.8      2.792      3.600
REMARK  8 active torsions:
REMARK  status: ('A' for Active; 'I' for Inactive)
REMARK    1  A    between atoms: O_2  and  C_3 
REMARK    2  A    between atoms: C_5  and  C_6 
REMARK    3  A    between atoms: N_7  and  N_8 
REMARK    4  A    between atoms: C_19  and  C_20 
REMARK       I    between atoms: C_20  and  N_21 
REMARK    5  A    between atoms: N_21  and  C_22 
REMARK    6  A    between atoms: C_22  and  C_23 
REMARK    7  A    between atoms: C_23  and  C_24 
REMARK    8  A    between atoms: C_31  and  N_32 
ROOT
HETATM    1  N   UNL     1     -43.660  56.401 -54.195  1.00  0.00    -0.197 N 
HETATM    2  C   UNL     1     -42.935  55.882 -53.131  1.00  0.00     0.183 A 
HETATM    3  C   UNL     1     -43.249  56.648 -52.014  1.00  0.00     0.125 A 
HETATM    4  N   UNL     1     -42.619  56.464 -50.824  1.00  0.00    -0.242 NA
HETATM    5  C   UNL     1     -41.728  55.461 -50.811  1.00  0.00     0.086 A 
HETATM    6  C   UNL     1     -41.437  54.676 -51.959  1.00  0.00     0.088 A 
HETATM    7  N   UNL     1     -42.024  54.878 -53.151  1.00  0.00    -0.225 NA
HETATM    8  C   UNL     1     -41.058  55.197 -49.624  1.00  0.00     0.034 A 
HETATM    9  C   UNL     1     -40.109  54.178 -49.534  1.00  0.00     0.002 A 
HETATM   10  C   UNL     1     -39.825  53.408 -50.652  1.00  0.00     0.002 A 
HETATM   11  C   UNL     1     -40.491  53.664 -51.852  1.00  0.00     0.034 A 
HETATM   12  C   UNL     1     -44.215  57.616 -52.382  1.00  0.00     0.110 C 
HETATM   13  C   UNL     1     -44.571  57.323 -53.687  1.00  0.00     0.143 C 
ENDROOT
BRANCH  12  14
HETATM   14  C   UNL     1     -44.668  58.784 -51.648  1.00  0.00     0.257 C 
HETATM   15  N   UNL     1     -43.650  59.452 -50.996  1.00  0.00    -0.356 N 
HETATM   16  H   UNL     1     -42.762  58.958 -50.946  1.00  0.00     0.162 HD
HETATM   17  O   UNL     1     -45.807  59.235 -51.740  1.00  0.00    -0.267 OA
BRANCH  15  18
HETATM   18  C   UNL     1     -43.571  60.892 -51.140  1.00  0.00     0.127 C 
BRANCH  18  19
HETATM   19  C   UNL     1     -43.424  61.602 -49.781  1.00  0.00     0.053 C 
BRANCH  19  20
HETATM   20  C   UNL     1     -44.725  61.845 -49.034  1.00  0.00    -0.082 C 
HETATM   21  C   UNL     1     -44.811  61.356 -47.604  1.00  0.00     0.034 C 
HETATM   22  C   UNL     1     -46.233  61.371 -47.029  1.00  0.00     0.005 C 
HETATM   23  C   UNL     1     -46.976  62.648 -47.408  1.00  0.00     0.004 C 
HETATM   24  C   UNL     1     -47.049  62.808 -48.924  1.00  0.00     0.027 C 
HETATM   25  C   UNL     1     -45.755  62.490 -49.615  1.00  0.00    -0.024 C 
ENDBRANCH  19  20
ENDBRANCH  18  19
ENDBRANCH  15  18
ENDBRANCH  12  14
BRANCH  13  26
HETATM   26  N   UNL     1     -45.491  57.907 -54.494  1.00  0.00    -0.383 N 
HETATM   27  H   UNL     1     -45.203  58.568 -55.217  1.00  0.00     0.157 HD
HETATM   28  H   UNL     1     -46.471  57.936 -54.224  1.00  0.00     0.157 HD
ENDBRANCH  13  26
BRANCH   1  29
HETATM   29  N   UNL     1     -43.507  56.266 -55.553  1.00  0.00    -0.176 NA
HETATM   30  C   UNL     1     -42.598  57.004 -56.102  1.00  0.00     0.150 C 
BRANCH  30  31
HETATM   31  C   UNL     1     -42.545  57.154 -57.572  1.00  0.00    -0.014 A 
HETATM   32  C   UNL     1     -43.128  56.182 -58.397  1.00  0.00     0.049 A 
HETATM   33  C   UNL     1     -43.219  56.402 -59.770  1.00  0.00     0.069 A 
HETATM   34  C   UNL     1     -42.700  57.581 -60.310  1.00  0.00     0.037 A 
HETATM   35  C   UNL     1     -42.110  58.545 -59.489  1.00  0.00     0.004 A 
HETATM   36  C   UNL     1     -42.037  58.336 -58.112  1.00  0.00     0.013 A 
BRANCH  33  37
HETATM   37  O   UNL     1     -43.802  55.559 -60.677  1.00  0.00    -0.356 OA
HETATM   38  C   UNL     1     -45.161  55.209 -60.439  1.00  0.00     0.210 C 
ENDBRANCH  33  37
ENDBRANCH  30  31
ENDBRANCH   1  29
TORSDOF 8
ENDMDL
MODEL 8
REMARK VINA RESULT:      -7.7      3.453      6.925
REMARK  8 active torsions:
REMARK  status: ('A' for Active; 'I' for Inactive)
REMARK    1  A    between atoms: O_2  and  C_3 
REMARK    2  A    between atoms: C_5  and  C_6 
REMARK    3  A    between atoms: N_7  and  N_8 
REMARK    4  A    between atoms: C_19  and  C_20 
REMARK       I    between atoms: C_20  and  N_21 
REMARK    5  A    between atoms: N_21  and  C_22 
REMARK    6  A    between atoms: C_22  and  C_23 
REMARK    7  A    between atoms: C_23  and  C_24 
REMARK    8  A    between atoms: C_31  and  N_32 
ROOT
HETATM    1  N   UNL     1     -42.059  59.504 -56.900  1.00  0.00    -0.197 N 
HETATM    2  C   UNL     1     -42.642  58.399 -57.504  1.00  0.00     0.183 A 
HETATM    3  C   UNL     1     -42.803  57.434 -56.515  1.00  0.00     0.125 A 
HETATM    4  N   UNL     1     -43.252  56.185 -56.806  1.00  0.00    -0.242 NA
HETATM    5  C   UNL     1     -43.572  55.990 -58.093  1.00  0.00     0.086 A 
HETATM    6  C   UNL     1     -43.421  56.997 -59.084  1.00  0.00     0.088 A 
HETATM    7  N   UNL     1     -42.938  58.221 -58.815  1.00  0.00    -0.225 NA
HETATM    8  C   UNL     1     -44.060  54.744 -58.465  1.00  0.00     0.034 A 
HETATM    9  C   UNL     1     -44.405  54.461 -59.787  1.00  0.00     0.002 A 
HETATM   10  C   UNL     1     -44.261  55.443 -60.756  1.00  0.00     0.002 A 
HETATM   11  C   UNL     1     -43.771  56.699 -60.396  1.00  0.00     0.034 A 
HETATM   12  C   UNL     1     -42.361  57.969 -55.281  1.00  0.00     0.110 C 
HETATM   13  C   UNL     1     -42.071  59.301 -55.523  1.00  0.00     0.143 C 
ENDROOT
BRANCH  12  14
HETATM   14  C   UNL     1     -42.097  57.285 -54.027  1.00  0.00     0.257 C 
HETATM   15  N   UNL     1     -43.100  56.410 -53.658  1.00  0.00    -0.356 N 
HETATM   16  H   UNL     1     -43.966  56.484 -54.188  1.00  0.00     0.162 HD
HETATM   17  O   UNL     1     -41.019  57.345 -53.443  1.00  0.00    -0.267 OA
BRANCH  15  18
HETATM   18  C   UNL     1     -42.725  55.075 -53.234  1.00  0.00     0.127 C 
BRANCH  18  19
HETATM   19  C   UNL     1     -41.761  54.402 -54.229  1.00  0.00     0.053 C 
BRANCH  19  20
HETATM   20  C   UNL     1     -40.902  53.291 -53.648  1.00  0.00    -0.082 C 
HETATM   21  C   UNL     1     -40.659  53.306 -52.154  1.00  0.00     0.034 C 
HETATM   22  C   UNL     1     -39.556  52.343 -51.697  1.00  0.00     0.005 C 
HETATM   23  C   UNL     1     -39.662  50.996 -52.404  1.00  0.00     0.004 C 
HETATM   24  C   UNL     1     -39.580  51.165 -53.919  1.00  0.00     0.027 C 
HETATM   25  C   UNL     1     -40.395  52.318 -54.429  1.00  0.00    -0.024 C 
ENDBRANCH  19  20
ENDBRANCH  18  19
ENDBRANCH  15  18
ENDBRANCH  12  14
BRANCH  13  26
HETATM   26  N   UNL     1     -41.662  60.275 -54.673  1.00  0.00    -0.383 N 
HETATM   27  H   UNL     1     -40.667  60.455 -54.530  1.00  0.00     0.157 HD
HETATM   28  H   UNL     1     -42.291  60.637 -53.961  1.00  0.00     0.157 HD
ENDBRANCH  13  26
BRANCH   1  29
HETATM   29  N   UNL     1     -41.392  60.584 -57.427  1.00  0.00    -0.176 NA
HETATM   30  C   UNL     1     -41.768  60.970 -58.602  1.00  0.00     0.150 C 
BRANCH  30  31
HETATM   31  C   UNL     1     -40.940  61.921 -59.375  1.00  0.00    -0.014 A 
HETATM   32  C   UNL     1     -41.342  62.317 -60.658  1.00  0.00     0.049 A 
HETATM   33  C   UNL     1     -40.651  63.332 -61.318  1.00  0.00     0.069 A 
HETATM   34  C   UNL     1     -39.545  63.921 -60.700  1.00  0.00     0.037 A 
HETATM   35  C   UNL     1     -39.139  63.518 -59.425  1.00  0.00     0.004 A 
HETATM   36  C   UNL     1     -39.842  62.519 -58.754  1.00  0.00     0.013 A 
BRANCH  33  37
HETATM   37  O   UNL     1     -40.965  63.841 -62.549  1.00  0.00    -0.356 OA
HETATM   38  C   UNL     1     -40.630  63.037 -63.675  1.00  0.00     0.210 C 
ENDBRANCH  33  37
ENDBRANCH  30  31
ENDBRANCH   1  29
TORSDOF 8
ENDMDL
MODEL 9
REMARK VINA RESULT:      -7.7      2.211      6.062
REMARK  8 active torsions:
REMARK  status: ('A' for Active; 'I' for Inactive)
REMARK    1  A    between atoms: O_2  and  C_3 
REMARK    2  A    between atoms: C_5  and  C_6 
REMARK    3  A    between atoms: N_7  and  N_8 
REMARK    4  A    between atoms: C_19  and  C_20 
REMARK       I    between atoms: C_20  and  N_21 
REMARK    5  A    between atoms: N_21  and  C_22 
REMARK    6  A    between atoms: C_22  and  C_23 
REMARK    7  A    between atoms: C_23  and  C_24 
REMARK    8  A    between atoms: C_31  and  N_32 
ROOT
HETATM    1  N   UNL     1     -42.539  58.570 -54.395  1.00  0.00    -0.197 N 
HETATM    2  C   UNL     1     -43.514  59.316 -53.749  1.00  0.00     0.183 A 
HETATM    3  C   UNL     1     -43.434  59.004 -52.396  1.00  0.00     0.125 A 
HETATM    4  N   UNL     1     -44.331  59.490 -51.498  1.00  0.00    -0.242 NA
HETATM    5  C   UNL     1     -45.244  60.325 -52.016  1.00  0.00     0.086 A 
HETATM    6  C   UNL     1     -45.295  60.650 -53.398  1.00  0.00     0.088 A 
HETATM    7  N   UNL     1     -44.438  60.141 -54.300  1.00  0.00    -0.225 NA
HETATM    8  C   UNL     1     -46.183  60.881 -51.157  1.00  0.00     0.034 A 
HETATM    9  C   UNL     1     -47.171  61.750 -51.620  1.00  0.00     0.002 A 
HETATM   10  C   UNL     1     -47.221  62.071 -52.969  1.00  0.00     0.002 A 
HETATM   11  C   UNL     1     -46.283  61.519 -53.843  1.00  0.00     0.034 A 
HETATM   12  C   UNL     1     -42.367  58.093 -52.201  1.00  0.00     0.110 C 
HETATM   13  C   UNL     1     -41.731  57.982 -53.425  1.00  0.00     0.143 C 
ENDROOT
BRANCH  12  14
HETATM   14  C   UNL     1     -42.046  57.293 -51.032  1.00  0.00     0.257 C 
HETATM   15  N   UNL     1     -43.075  56.459 -50.639  1.00  0.00    -0.356 N 
HETATM   16  H   UNL     1     -43.975  56.633 -51.079  1.00  0.00     0.162 HD
HETATM   17  O   UNL     1     -40.920  57.233 -50.548  1.00  0.00    -0.267 OA
BRANCH  15  18
HETATM   18  C   UNL     1     -42.762  55.072 -50.354  1.00  0.00     0.127 C 
BRANCH  18  19
HETATM   19  C   UNL     1     -43.379  54.116 -51.392  1.00  0.00     0.053 C 
BRANCH  19  20
HETATM   20  C   UNL     1     -42.658  54.060 -52.729  1.00  0.00    -0.082 C 
HETATM   21  C   UNL     1     -43.362  54.660 -53.927  1.00  0.00     0.034 C 
HETATM   22  C   UNL     1     -42.712  54.302 -55.270  1.00  0.00     0.005 C 
HETATM   23  C   UNL     1     -41.191  54.393 -55.197  1.00  0.00     0.004 C 
HETATM   24  C   UNL     1     -40.639  53.470 -54.114  1.00  0.00     0.027 C 
HETATM   25  C   UNL     1     -41.430  53.517 -52.838  1.00  0.00    -0.024 C 
ENDBRANCH  19  20
ENDBRANCH  18  19
ENDBRANCH  15  18
ENDBRANCH  12  14
BRANCH  13  26
HETATM   26  N   UNL     1     -40.624  57.282 -53.775  1.00  0.00    -0.383 N 
HETATM   27  H   UNL     1     -40.528  56.299 -53.518  1.00  0.00     0.157 HD
HETATM   28  H   UNL     1     -39.765  57.765 -54.028  1.00  0.00     0.157 HD
ENDBRANCH  13  26
BRANCH   1  29
HETATM   29  N   UNL     1     -42.377  58.232 -55.717  1.00  0.00    -0.176 NA
HETATM   30  C   UNL     1     -41.942  59.167 -56.496  1.00  0.00     0.150 C 
BRANCH  30  31
HETATM   31  C   UNL     1     -42.006  59.005 -57.965  1.00  0.00    -0.014 A 
HETATM   32  C   UNL     1     -42.303  57.752 -58.519  1.00  0.00     0.049 A 
HETATM   33  C   UNL     1     -42.521  57.635 -59.890  1.00  0.00     0.069 A 
HETATM   34  C   UNL     1     -42.411  58.769 -60.700  1.00  0.00     0.037 A 
HETATM   35  C   UNL     1     -42.105  60.015 -60.148  1.00  0.00     0.004 A 
HETATM   36  C   UNL     1     -41.908  60.138 -58.773  1.00  0.00     0.013 A 
BRANCH  33  37
HETATM   37  O   UNL     1     -42.860  56.485 -60.550  1.00  0.00    -0.356 OA
HETATM   38  C   UNL     1     -44.230  56.099 -60.493  1.00  0.00     0.210 C 
ENDBRANCH  33  37
ENDBRANCH  30  31
ENDBRANCH   1  29
TORSDOF 8
ENDMDL
MODEL 10
REMARK VINA RESULT:      -7.6      2.837      6.866
REMARK  8 active torsions:
REMARK  status: ('A' for Active; 'I' for Inactive)
REMARK    1  A    between atoms: O_2  and  C_3 
REMARK    2  A    between atoms: C_5  and  C_6 
REMARK    3  A    between atoms: N_7  and  N_8 
REMARK    4  A    between atoms: C_19  and  C_20 
REMARK       I    between atoms: C_20  and  N_21 
REMARK    5  A    between atoms: N_21  and  C_22 
REMARK    6  A    between atoms: C_22  and  C_23 
REMARK    7  A    between atoms: C_23  and  C_24 
REMARK    8  A    between atoms: C_31  and  N_32 
ROOT
HETATM    1  N   UNL     1     -42.466  56.863 -56.087  1.00  0.00    -0.197 N 
HETATM    2  C   UNL     1     -43.214  56.696 -57.243  1.00  0.00     0.183 A 
HETATM    3  C   UNL     1     -44.115  57.754 -57.300  1.00  0.00     0.125 A 
HETATM    4  N   UNL     1     -45.072  57.825 -58.263  1.00  0.00    -0.242 NA
HETATM    5  C   UNL     1     -45.031  56.835 -59.166  1.00  0.00     0.086 A 
HETATM    6  C   UNL     1     -44.088  55.775 -59.103  1.00  0.00     0.088 A 
HETATM    7  N   UNL     1     -43.165  55.673 -58.131  1.00  0.00    -0.225 NA
HETATM    8  C   UNL     1     -45.963  56.849 -60.195  1.00  0.00     0.034 A 
HETATM    9  C   UNL     1     -45.993  55.849 -61.167  1.00  0.00     0.002 A 
HETATM   10  C   UNL     1     -45.071  54.814 -61.110  1.00  0.00     0.002 A 
HETATM   11  C   UNL     1     -44.128  54.787 -60.080  1.00  0.00     0.034 A 
HETATM   12  C   UNL     1     -43.886  58.608 -56.193  1.00  0.00     0.110 C 
HETATM   13  C   UNL     1     -42.752  58.121 -55.565  1.00  0.00     0.143 C 
ENDROOT
BRANCH  12  14
HETATM   14  C   UNL     1     -44.711  59.687 -55.681  1.00  0.00     0.257 C 
HETATM   15  N   UNL     1     -45.509  59.311 -54.619  1.00  0.00    -0.356 N 
HETATM   16  H   UNL     1     -45.570  58.310 -54.446  1.00  0.00     0.162 HD
HETATM   17  O   UNL     1     -44.585  60.855 -56.037  1.00  0.00    -0.267 OA
BRANCH  15  18
HETATM   18  C   UNL     1     -45.537  60.162 -53.445  1.00  0.00     0.127 C 
BRANCH  18  19
HETATM   19  C   UNL     1     -44.951  59.458 -52.207  1.00  0.00     0.053 C 
BRANCH  19  20
HETATM   20  C   UNL     1     -44.809  60.333 -50.971  1.00  0.00    -0.082 C 
HETATM   21  C   UNL     1     -43.951  61.573 -51.090  1.00  0.00     0.034 C 
HETATM   22  C   UNL     1     -43.621  62.228 -49.742  1.00  0.00     0.005 C 
HETATM   23  C   UNL     1     -44.840  62.271 -48.827  1.00  0.00     0.004 C 
HETATM   24  C   UNL     1     -45.386  60.867 -48.579  1.00  0.00     0.027 C 
HETATM   25  C   UNL     1     -45.441  60.026 -49.822  1.00  0.00    -0.024 C 
ENDBRANCH  19  20
ENDBRANCH  18  19
ENDBRANCH  15  18
ENDBRANCH  12  14
BRANCH  13  26
HETATM   26  N   UNL     1     -42.076  58.597 -54.490  1.00  0.00    -0.383 N 
HETATM   27  H   UNL     1     -41.327  58.052 -54.063  1.00  0.00     0.157 HD
HETATM   28  H   UNL     1     -42.472  59.340 -53.919  1.00  0.00     0.157 HD
ENDBRANCH  13  26
BRANCH   1  29
HETATM   29  N   UNL     1     -41.687  55.986 -55.372  1.00  0.00    -0.176 NA
HETATM   30  C   UNL     1     -42.292  54.954 -54.882  1.00  0.00     0.150 C 
BRANCH  30  31
HETATM   31  C   UNL     1     -41.625  54.110 -53.867  1.00  0.00    -0.014 A 
HETATM   32  C   UNL     1     -40.911  52.970 -54.262  1.00  0.00     0.049 A 
HETATM   33  C   UNL     1     -40.152  52.269 -53.328  1.00  0.00     0.069 A 
HETATM   34  C   UNL     1     -40.137  52.698 -51.998  1.00  0.00     0.037 A 
HETATM   35  C   UNL     1     -40.857  53.828 -51.602  1.00  0.00     0.004 A 
HETATM   36  C   UNL     1     -41.600  54.543 -52.540  1.00  0.00     0.013 A 
BRANCH  33  37
HETATM   37  O   UNL     1     -39.377  51.172 -53.590  1.00  0.00    -0.356 OA
HETATM   38  C   UNL     1     -39.985  50.128 -54.344  1.00  0.00     0.210 C 
ENDBRANCH  33  37
ENDBRANCH  30  31
ENDBRANCH   1  29
TORSDOF 8
ENDMDL
