MODEL 1
REMARK VINA RESULT:      -7.7      0.000      0.000
REMARK  5 active torsions:
REMARK  status: ('A' for Active; 'I' for Inactive)
REMARK    1  A    between atoms: C_8  and  N_9 
REMARK       I    between atoms: N_9  and  C_10 
REMARK       I    between atoms: C_10  and  N_11 
REMARK    2  A    between atoms: N_11  and  C_12 
REMARK    3  A    between atoms: C_13  and  O_14 
REMARK    4  A    between atoms: O_14  and  C_15 
REMARK    5  A    between atoms: C_15  and  C_16 
ROOT
HETATM    1  N   UNL     1     -41.473  55.927 -52.877  1.00  0.00    -0.305 N 
HETATM    2  C   UNL     1     -41.645  54.558 -52.794  1.00  0.00     0.325 C 
HETATM    3  N   UNL     1     -40.531  53.906 -53.296  1.00  0.00    -0.306 N 
HETATM    4  O   UNL     1     -42.632  53.998 -52.338  1.00  0.00    -0.247 OA
HETATM    5  H   UNL     1     -40.520  56.253 -52.921  1.00  0.00     0.171 HD
HETATM    6  H   UNL     1     -39.904  54.453 -53.871  1.00  0.00     0.171 HD
ENDROOT
BRANCH   3   7
HETATM    7  C   UNL     1     -40.261  52.520 -53.284  1.00  0.00     0.069 A 
HETATM    8  C   UNL     1     -39.691  51.984 -52.116  1.00  0.00     0.095 A 
HETATM    9  C   UNL     1     -39.434  50.616 -52.003  1.00  0.00     0.039 A 
HETATM   10  C   UNL     1     -39.712  49.773 -53.077  1.00  0.00     0.003 A 
HETATM   11  C   UNL     1     -40.258  50.297 -54.248  1.00  0.00     0.002 A 
HETATM   12  C   UNL     1     -40.537  51.665 -54.351  1.00  0.00     0.032 A 
BRANCH   8  13
HETATM   13  O   UNL     1     -39.437  52.840 -51.071  1.00  0.00    -0.340 OA
BRANCH  13  14
HETATM   14  C   UNL     1     -40.379  52.654 -49.997  1.00  0.00     0.293 C 
BRANCH  14  15
HETATM   15  C   UNL     1     -40.576  53.964 -49.252  1.00  0.00     0.408 C 
HETATM   16  F   UNL     1     -39.875  54.966 -49.830  1.00  0.00    -0.169 F 
HETATM   17  F   UNL     1     -41.876  54.331 -49.223  1.00  0.00    -0.169 F 
HETATM   18  F   UNL     1     -40.155  53.855 -47.972  1.00  0.00    -0.169 F 
ENDBRANCH  14  15
ENDBRANCH  13  14
ENDBRANCH   8  13
ENDBRANCH   3   7
BRANCH   1  19
HETATM   19  C   UNL     1     -42.429  56.895 -52.617  1.00  0.00     0.086 A 
HETATM   20  C   UNL     1     -42.281  57.824 -51.603  1.00  0.00     0.052 A 
HETATM   21  C   UNL     1     -41.220  58.050 -50.593  1.00  0.00     0.072 C 
HETATM   22  N   UNL     1     -43.396  58.610 -51.652  1.00  0.00    -0.280 N 
HETATM   23  H   UNL     1     -43.639  59.391 -51.052  1.00  0.00     0.189 HD
HETATM   24  N   UNL     1     -44.246  58.284 -52.628  1.00  0.00    -0.177 NA
HETATM   25  C   UNL     1     -43.668  57.238 -53.237  1.00  0.00     0.079 A 
HETATM   26  C   UNL     1     -44.341  56.660 -54.428  1.00  0.00     0.075 C 
ENDBRANCH   1  19
TORSDOF 5
ENDMDL
MODEL 2
REMARK VINA RESULT:      -7.5      1.029      2.033
REMARK  5 active torsions:
REMARK  status: ('A' for Active; 'I' for Inactive)
REMARK    1  A    between atoms: C_8  and  N_9 
REMARK       I    between atoms: N_9  and  C_10 
REMARK       I    between atoms: C_10  and  N_11 
REMARK    2  A    between atoms: N_11  and  C_12 
REMARK    3  A    between atoms: C_13  and  O_14 
REMARK    4  A    between atoms: O_14  and  C_15 
REMARK    5  A    between atoms: C_15  and  C_16 
ROOT
HETATM    1  N   UNL     1     -41.516  55.614 -53.770  1.00  0.00    -0.305 N 
HETATM    2  C   UNL     1     -41.654  54.275 -53.455  1.00  0.00     0.325 C 
HETATM    3  N   UNL     1     -40.459  53.609 -53.670  1.00  0.00    -0.306 N 
HETATM    4  O   UNL     1     -42.678  53.751 -53.039  1.00  0.00    -0.247 OA
HETATM    5  H   UNL     1     -40.578  55.981 -53.746  1.00  0.00     0.171 HD
HETATM    6  H   UNL     1     -39.774  54.078 -54.248  1.00  0.00     0.171 HD
ENDROOT
BRANCH   3   7
HETATM    7  C   UNL     1     -40.149  52.267 -53.362  1.00  0.00     0.069 A 
HETATM    8  C   UNL     1     -39.703  51.991 -52.057  1.00  0.00     0.095 A 
HETATM    9  C   UNL     1     -39.418  50.684 -51.654  1.00  0.00     0.039 A 
HETATM   10  C   UNL     1     -39.542  49.641 -52.568  1.00  0.00     0.003 A 
HETATM   11  C   UNL     1     -39.964  49.905 -53.871  1.00  0.00     0.002 A 
HETATM   12  C   UNL     1     -40.272  51.212 -54.266  1.00  0.00     0.032 A 
BRANCH   8  13
HETATM   13  O   UNL     1     -39.599  53.041 -51.176  1.00  0.00    -0.340 OA
BRANCH  13  14
HETATM   14  C   UNL     1     -40.515  52.895 -50.073  1.00  0.00     0.293 C 
BRANCH  14  15
HETATM   15  C   UNL     1     -41.085  54.252 -49.694  1.00  0.00     0.408 C 
HETATM   16  F   UNL     1     -40.870  54.527 -48.387  1.00  0.00    -0.169 F 
HETATM   17  F   UNL     1     -40.532  55.247 -50.422  1.00  0.00    -0.169 F 
HETATM   18  F   UNL     1     -42.420  54.288 -49.905  1.00  0.00    -0.169 F 
ENDBRANCH  14  15
ENDBRANCH  13  14
ENDBRANCH   8  13
ENDBRANCH   3   7
BRANCH   1  19
HETATM   19  C   UNL     1     -42.531  56.555 -53.829  1.00  0.00     0.086 A 
HETATM   20  C   UNL     1     -43.039  57.016 -55.030  1.00  0.00     0.052 A 
HETATM   21  C   UNL     1     -42.707  56.718 -56.443  1.00  0.00     0.072 C 
HETATM   22  N   UNL     1     -44.016  57.911 -54.701  1.00  0.00    -0.280 N 
HETATM   23  H   UNL     1     -44.602  58.457 -55.325  1.00  0.00     0.189 HD
HETATM   24  N   UNL     1     -44.202  58.054 -53.387  1.00  0.00    -0.177 NA
HETATM   25  C   UNL     1     -43.303  57.225 -52.833  1.00  0.00     0.079 A 
HETATM   26  C   UNL     1     -43.286  57.098 -51.354  1.00  0.00     0.075 C 
ENDBRANCH   1  19
TORSDOF 5
ENDMDL
MODEL 3
REMARK VINA RESULT:      -7.4      3.057      4.006
REMARK  5 active torsions:
REMARK  status: ('A' for Active; 'I' for Inactive)
REMARK    1  A    between atoms: C_8  and  N_9 
REMARK       I    between atoms: N_9  and  C_10 
REMARK       I    between atoms: C_10  and  N_11 
REMARK    2  A    between atoms: N_11  and  C_12 
REMARK    3  A    between atoms: C_13  and  O_14 
REMARK    4  A    between atoms: O_14  and  C_15 
REMARK    5  A    between atoms: C_15  and  C_16 
ROOT
HETATM    1  N   UNL     1     -42.122  56.047 -56.353  1.00  0.00    -0.305 N 
HETATM    2  C   UNL     1     -42.132  54.904 -55.574  1.00  0.00     0.325 C 
HETATM    3  N   UNL     1     -40.853  54.626 -55.122  1.00  0.00    -0.306 N 
HETATM    4  O   UNL     1     -43.123  54.237 -55.313  1.00  0.00    -0.247 OA
HETATM    5  H   UNL     1     -41.357  56.684 -56.198  1.00  0.00     0.171 HD
HETATM    6  H   UNL     1     -40.090  55.084 -55.603  1.00  0.00     0.171 HD
ENDROOT
BRANCH   3   7
HETATM    7  C   UNL     1     -40.457  53.623 -54.211  1.00  0.00     0.069 A 
HETATM    8  C   UNL     1     -40.522  53.933 -52.841  1.00  0.00     0.095 A 
HETATM    9  C   UNL     1     -40.192  52.984 -51.870  1.00  0.00     0.039 A 
HETATM   10  C   UNL     1     -39.757  51.721 -52.265  1.00  0.00     0.003 A 
HETATM   11  C   UNL     1     -39.669  51.409 -53.621  1.00  0.00     0.002 A 
HETATM   12  C   UNL     1     -40.022  52.353 -54.591  1.00  0.00     0.032 A 
BRANCH   8  13
HETATM   13  O   UNL     1     -40.964  55.185 -52.484  1.00  0.00    -0.340 OA
BRANCH  13  14
HETATM   14  C   UNL     1     -41.775  55.138 -51.294  1.00  0.00     0.293 C 
BRANCH  14  15
HETATM   15  C   UNL     1     -43.244  55.058 -51.675  1.00  0.00     0.408 C 
HETATM   16  F   UNL     1     -43.572  53.820 -52.109  1.00  0.00    -0.169 F 
HETATM   17  F   UNL     1     -44.048  55.358 -50.631  1.00  0.00    -0.169 F 
HETATM   18  F   UNL     1     -43.528  55.929 -52.669  1.00  0.00    -0.169 F 
ENDBRANCH  14  15
ENDBRANCH  13  14
ENDBRANCH   8  13
ENDBRANCH   3   7
BRANCH   1  19
HETATM   19  C   UNL     1     -43.179  56.543 -57.099  1.00  0.00     0.086 A 
HETATM   20  C   UNL     1     -44.156  57.351 -56.546  1.00  0.00     0.052 A 
HETATM   21  C   UNL     1     -44.379  57.862 -55.173  1.00  0.00     0.072 C 
HETATM   22  N   UNL     1     -45.013  57.651 -57.565  1.00  0.00    -0.280 N 
HETATM   23  H   UNL     1     -45.855  58.215 -57.530  1.00  0.00     0.189 HD
HETATM   24  N   UNL     1     -44.661  57.126 -58.741  1.00  0.00    -0.177 NA
HETATM   25  C   UNL     1     -43.534  56.448 -58.478  1.00  0.00     0.079 A 
HETATM   26  C   UNL     1     -42.838  55.780 -59.607  1.00  0.00     0.075 C 
ENDBRANCH   1  19
TORSDOF 5
ENDMDL
MODEL 4
REMARK VINA RESULT:      -7.4      1.762      2.043
REMARK  5 active torsions:
REMARK  status: ('A' for Active; 'I' for Inactive)
REMARK    1  A    between atoms: C_8  and  N_9 
REMARK       I    between atoms: N_9  and  C_10 
REMARK       I    between atoms: C_10  and  N_11 
REMARK    2  A    between atoms: N_11  and  C_12 
REMARK    3  A    between atoms: C_13  and  O_14 
REMARK    4  A    between atoms: O_14  and  C_15 
REMARK    5  A    between atoms: C_15  and  C_16 
ROOT
HETATM    1  N   UNL     1     -40.982  55.261 -54.942  1.00  0.00    -0.305 N 
HETATM    2  C   UNL     1     -41.246  54.070 -54.292  1.00  0.00     0.325 C 
HETATM    3  N   UNL     1     -40.125  53.257 -54.313  1.00  0.00    -0.306 N 
HETATM    4  O   UNL     1     -42.310  53.775 -53.766  1.00  0.00    -0.247 OA
HETATM    5  H   UNL     1     -40.012  55.528 -55.004  1.00  0.00     0.171 HD
HETATM    6  H   UNL     1     -39.406  53.490 -54.985  1.00  0.00     0.171 HD
ENDROOT
BRANCH   3   7
HETATM    7  C   UNL     1     -39.943  52.016 -53.663  1.00  0.00     0.069 A 
HETATM    8  C   UNL     1     -39.746  52.040 -52.271  1.00  0.00     0.095 A 
HETATM    9  C   UNL     1     -39.603  50.857 -51.543  1.00  0.00     0.039 A 
HETATM   10  C   UNL     1     -39.621  49.634 -52.210  1.00  0.00     0.003 A 
HETATM   11  C   UNL     1     -39.795  49.599 -53.593  1.00  0.00     0.002 A 
HETATM   12  C   UNL     1     -39.961  50.785 -54.317  1.00  0.00     0.032 A 
BRANCH   8  13
HETATM   13  O   UNL     1     -39.742  53.262 -51.642  1.00  0.00    -0.340 OA
BRANCH  13  14
HETATM   14  C   UNL     1     -40.539  53.238 -50.441  1.00  0.00     0.293 C 
BRANCH  14  15
HETATM   15  C   UNL     1     -40.169  54.416 -49.554  1.00  0.00     0.408 C 
HETATM   16  F   UNL     1     -40.451  55.593 -50.159  1.00  0.00    -0.169 F 
HETATM   17  F   UNL     1     -40.834  54.384 -48.378  1.00  0.00    -0.169 F 
HETATM   18  F   UNL     1     -38.846  54.407 -49.274  1.00  0.00    -0.169 F 
ENDBRANCH  14  15
ENDBRANCH  13  14
ENDBRANCH   8  13
ENDBRANCH   3   7
BRANCH   1  19
HETATM   19  C   UNL     1     -41.900  56.250 -55.255  1.00  0.00     0.086 A 
HETATM   20  C   UNL     1     -42.089  57.360 -54.451  1.00  0.00     0.052 A 
HETATM   21  C   UNL     1     -41.480  57.790 -53.170  1.00  0.00     0.072 C 
HETATM   22  N   UNL     1     -43.048  58.109 -55.070  1.00  0.00    -0.280 N 
HETATM   23  H   UNL     1     -43.449  58.989 -54.765  1.00  0.00     0.189 HD
HETATM   24  N   UNL     1     -43.481  57.590 -56.221  1.00  0.00    -0.177 NA
HETATM   25  C   UNL     1     -42.784  56.452 -56.356  1.00  0.00     0.079 A 
HETATM   26  C   UNL     1     -42.989  55.646 -57.587  1.00  0.00     0.075 C 
ENDBRANCH   1  19
TORSDOF 5
ENDMDL
MODEL 5
REMARK VINA RESULT:      -7.2      3.273      4.436
REMARK  5 active torsions:
REMARK  status: ('A' for Active; 'I' for Inactive)
REMARK    1  A    between atoms: C_8  and  N_9 
REMARK       I    between atoms: N_9  and  C_10 
REMARK       I    between atoms: C_10  and  N_11 
REMARK    2  A    between atoms: N_11  and  C_12 
REMARK    3  A    between atoms: C_13  and  O_14 
REMARK    4  A    between atoms: O_14  and  C_15 
REMARK    5  A    between atoms: C_15  and  C_16 
ROOT
HETATM    1  N   UNL     1     -42.291  56.482 -56.522  1.00  0.00    -0.305 N 
HETATM    2  C   UNL     1     -42.279  55.307 -55.792  1.00  0.00     0.325 C 
HETATM    3  N   UNL     1     -41.015  55.082 -55.273  1.00  0.00    -0.306 N 
HETATM    4  O   UNL     1     -43.243  54.574 -55.620  1.00  0.00    -0.247 OA
HETATM    5  H   UNL     1     -41.576  57.154 -56.293  1.00  0.00     0.171 HD
HETATM    6  H   UNL     1     -40.254  55.603 -55.686  1.00  0.00     0.171 HD
ENDROOT
BRANCH   3   7
HETATM    7  C   UNL     1     -40.616  54.063 -54.381  1.00  0.00     0.069 A 
HETATM    8  C   UNL     1     -40.663  54.354 -53.006  1.00  0.00     0.095 A 
HETATM    9  C   UNL     1     -40.328  53.390 -52.053  1.00  0.00     0.039 A 
HETATM   10  C   UNL     1     -39.907  52.129 -52.470  1.00  0.00     0.003 A 
HETATM   11  C   UNL     1     -39.836  51.836 -53.831  1.00  0.00     0.002 A 
HETATM   12  C   UNL     1     -40.194  52.796 -54.784  1.00  0.00     0.032 A 
BRANCH   8  13
HETATM   13  O   UNL     1     -41.092  55.604 -52.626  1.00  0.00    -0.340 OA
BRANCH  13  14
HETATM   14  C   UNL     1     -41.867  55.548 -51.412  1.00  0.00     0.293 C 
BRANCH  14  15
HETATM   15  C   UNL     1     -43.343  55.412 -51.749  1.00  0.00     0.408 C 
HETATM   16  F   UNL     1     -44.119  55.924 -50.767  1.00  0.00    -0.169 F 
HETATM   17  F   UNL     1     -43.654  56.051 -52.898  1.00  0.00    -0.169 F 
HETATM   18  F   UNL     1     -43.681  54.112 -51.902  1.00  0.00    -0.169 F 
ENDBRANCH  14  15
ENDBRANCH  13  14
ENDBRANCH   8  13
ENDBRANCH   3   7
BRANCH   1  19
HETATM   19  C   UNL     1     -43.329  56.951 -57.311  1.00  0.00     0.086 A 
HETATM   20  C   UNL     1     -43.414  56.665 -58.661  1.00  0.00     0.052 A 
HETATM   21  C   UNL     1     -42.545  55.896 -59.583  1.00  0.00     0.072 C 
HETATM   22  N   UNL     1     -44.554  57.275 -59.100  1.00  0.00    -0.280 N 
HETATM   23  H   UNL     1     -44.934  57.291 -60.040  1.00  0.00     0.189 HD
HETATM   24  N   UNL     1     -45.229  57.913 -58.142  1.00  0.00    -0.177 NA
HETATM   25  C   UNL     1     -44.498  57.721 -57.034  1.00  0.00     0.079 A 
HETATM   26  C   UNL     1     -45.012  58.264 -55.751  1.00  0.00     0.075 C 
ENDBRANCH   1  19
TORSDOF 5
ENDMDL
MODEL 6
REMARK VINA RESULT:      -7.0      3.471      4.721
REMARK  5 active torsions:
REMARK  status: ('A' for Active; 'I' for Inactive)
REMARK    1  A    between atoms: C_8  and  N_9 
REMARK       I    between atoms: N_9  and  C_10 
REMARK       I    between atoms: C_10  and  N_11 
REMARK    2  A    between atoms: N_11  and  C_12 
REMARK    3  A    between atoms: C_13  and  O_14 
REMARK    4  A    between atoms: O_14  and  C_15 
REMARK    5  A    between atoms: C_15  and  C_16 
ROOT
HETATM    1  N   UNL     1     -43.551  55.744 -55.251  1.00  0.00    -0.305 N 
HETATM    2  C   UNL     1     -42.525  55.766 -54.324  1.00  0.00     0.325 C 
HETATM    3  N   UNL     1     -42.654  54.704 -53.444  1.00  0.00    -0.306 N 
HETATM    4  O   UNL     1     -41.627  56.596 -54.287  1.00  0.00    -0.247 OA
HETATM    5  H   UNL     1     -43.992  54.850 -55.402  1.00  0.00     0.171 HD
HETATM    6  H   UNL     1     -43.556  54.248 -53.410  1.00  0.00     0.171 HD
ENDROOT
BRANCH   3   7
HETATM    7  C   UNL     1     -41.754  54.306 -52.432  1.00  0.00     0.069 A 
HETATM    8  C   UNL     1     -40.962  53.171 -52.683  1.00  0.00     0.095 A 
HETATM    9  C   UNL     1     -40.014  52.734 -51.755  1.00  0.00     0.039 A 
HETATM   10  C   UNL     1     -39.875  53.410 -50.545  1.00  0.00     0.003 A 
HETATM   11  C   UNL     1     -40.670  54.524 -50.276  1.00  0.00     0.002 A 
HETATM   12  C   UNL     1     -41.603  54.974 -51.217  1.00  0.00     0.032 A 
BRANCH   8  13
HETATM   13  O   UNL     1     -41.116  52.532 -53.890  1.00  0.00    -0.340 OA
BRANCH  13  14
HETATM   14  C   UNL     1     -39.956  51.745 -54.222  1.00  0.00     0.293 C 
BRANCH  14  15
HETATM   15  C   UNL     1     -40.336  50.276 -54.306  1.00  0.00     0.408 C 
HETATM   16  F   UNL     1     -40.164  49.656 -53.115  1.00  0.00    -0.169 F 
HETATM   17  F   UNL     1     -41.626  50.114 -54.674  1.00  0.00    -0.169 F 
HETATM   18  F   UNL     1     -39.569  49.634 -55.215  1.00  0.00    -0.169 F 
ENDBRANCH  14  15
ENDBRANCH  13  14
ENDBRANCH   8  13
ENDBRANCH   3   7
BRANCH   1  19
HETATM   19  C   UNL     1     -43.839  56.725 -56.185  1.00  0.00     0.086 A 
HETATM   20  C   UNL     1     -44.464  57.910 -55.839  1.00  0.00     0.052 A 
HETATM   21  C   UNL     1     -44.977  58.439 -54.553  1.00  0.00     0.072 C 
HETATM   22  N   UNL     1     -44.572  58.625 -56.997  1.00  0.00    -0.280 N 
HETATM   23  H   UNL     1     -44.987  59.542 -57.131  1.00  0.00     0.189 HD
HETATM   24  N   UNL     1     -44.047  58.015 -58.062  1.00  0.00    -0.177 NA
HETATM   25  C   UNL     1     -43.586  56.850 -57.583  1.00  0.00     0.079 A 
HETATM   26  C   UNL     1     -42.877  55.940 -58.518  1.00  0.00     0.075 C 
ENDBRANCH   1  19
TORSDOF 5
ENDMDL
MODEL 7
REMARK VINA RESULT:      -7.0      1.822      2.285
REMARK  5 active torsions:
REMARK  status: ('A' for Active; 'I' for Inactive)
REMARK    1  A    between atoms: C_8  and  N_9 
REMARK       I    between atoms: N_9  and  C_10 
REMARK       I    between atoms: C_10  and  N_11 
REMARK    2  A    between atoms: N_11  and  C_12 
REMARK    3  A    between atoms: C_13  and  O_14 
REMARK    4  A    between atoms: O_14  and  C_15 
REMARK    5  A    between atoms: C_15  and  C_16 
ROOT
HETATM    1  N   UNL     1     -44.259  56.159 -53.611  1.00  0.00    -0.305 N 
HETATM    2  C   UNL     1     -42.951  55.710 -53.615  1.00  0.00     0.325 C 
HETATM    3  N   UNL     1     -42.905  54.371 -53.264  1.00  0.00    -0.306 N 
HETATM    4  O   UNL     1     -41.974  56.391 -53.893  1.00  0.00    -0.247 OA
HETATM    5  H   UNL     1     -44.970  55.454 -53.724  1.00  0.00     0.171 HD
HETATM    6  H   UNL     1     -43.725  53.991 -52.812  1.00  0.00     0.171 HD
ENDROOT
BRANCH   3   7
HETATM    7  C   UNL     1     -41.782  53.515 -53.264  1.00  0.00     0.069 A 
HETATM    8  C   UNL     1     -41.173  53.250 -52.025  1.00  0.00     0.095 A 
HETATM    9  C   UNL     1     -40.086  52.379 -51.928  1.00  0.00     0.039 A 
HETATM   10  C   UNL     1     -39.573  51.790 -53.081  1.00  0.00     0.003 A 
HETATM   11  C   UNL     1     -40.156  52.061 -54.318  1.00  0.00     0.002 A 
HETATM   12  C   UNL     1     -41.260  52.916 -54.410  1.00  0.00     0.032 A 
BRANCH   8  13
HETATM   13  O   UNL     1     -41.709  53.840 -50.904  1.00  0.00    -0.340 OA
BRANCH  13  14
HETATM   14  C   UNL     1     -40.765  54.728 -50.274  1.00  0.00     0.293 C 
BRANCH  14  15
HETATM   15  C   UNL     1     -40.413  54.207 -48.890  1.00  0.00     0.408 C 
HETATM   16  F   UNL     1     -40.992  54.955 -47.923  1.00  0.00    -0.169 F 
HETATM   17  F   UNL     1     -40.813  52.928 -48.721  1.00  0.00    -0.169 F 
HETATM   18  F   UNL     1     -39.076  54.245 -48.691  1.00  0.00    -0.169 F 
ENDBRANCH  14  15
ENDBRANCH  13  14
ENDBRANCH   8  13
ENDBRANCH   3   7
BRANCH   1  19
HETATM   19  C   UNL     1     -44.681  57.470 -53.758  1.00  0.00     0.086 A 
HETATM   20  C   UNL     1     -44.913  58.295 -52.672  1.00  0.00     0.052 A 
HETATM   21  C   UNL     1     -44.823  58.081 -51.209  1.00  0.00     0.072 C 
HETATM   22  N   UNL     1     -45.300  59.496 -53.193  1.00  0.00    -0.280 N 
HETATM   23  H   UNL     1     -45.561  60.341 -52.695  1.00  0.00     0.189 HD
HETATM   24  N   UNL     1     -45.314  59.528 -54.528  1.00  0.00    -0.177 NA
HETATM   25  C   UNL     1     -44.931  58.296 -54.894  1.00  0.00     0.079 A 
HETATM   26  C   UNL     1     -44.784  58.010 -56.344  1.00  0.00     0.075 C 
ENDBRANCH   1  19
TORSDOF 5
ENDMDL
MODEL 8
REMARK VINA RESULT:      -6.9      3.307      4.668
REMARK  5 active torsions:
REMARK  status: ('A' for Active; 'I' for Inactive)
REMARK    1  A    between atoms: C_8  and  N_9 
REMARK       I    between atoms: N_9  and  C_10 
REMARK       I    between atoms: C_10  and  N_11 
REMARK    2  A    between atoms: N_11  and  C_12 
REMARK    3  A    between atoms: C_13  and  O_14 
REMARK    4  A    between atoms: O_14  and  C_15 
REMARK    5  A    between atoms: C_15  and  C_16 
ROOT
HETATM    1  N   UNL     1     -43.521  55.800 -54.837  1.00  0.00    -0.305 N 
HETATM    2  C   UNL     1     -42.589  55.743 -53.817  1.00  0.00     0.325 C 
HETATM    3  N   UNL     1     -42.737  54.567 -53.101  1.00  0.00    -0.306 N 
HETATM    4  O   UNL     1     -41.749  56.600 -53.582  1.00  0.00    -0.247 OA
HETATM    5  H   UNL     1     -43.893  54.916 -55.148  1.00  0.00     0.171 HD
HETATM    6  H   UNL     1     -43.609  54.070 -53.218  1.00  0.00     0.171 HD
ENDROOT
BRANCH   3   7
HETATM    7  C   UNL     1     -41.914  54.077 -52.064  1.00  0.00     0.069 A 
HETATM    8  C   UNL     1     -41.001  53.059 -52.392  1.00  0.00     0.095 A 
HETATM    9  C   UNL     1     -40.118  52.547 -51.438  1.00  0.00     0.039 A 
HETATM   10  C   UNL     1     -40.166  53.027 -50.131  1.00  0.00     0.003 A 
HETATM   11  C   UNL     1     -41.081  54.022 -49.789  1.00  0.00     0.002 A 
HETATM   12  C   UNL     1     -41.949  54.549 -50.752  1.00  0.00     0.032 A 
BRANCH   8  13
HETATM   13  O   UNL     1     -40.972  52.613 -53.692  1.00  0.00    -0.340 OA
BRANCH  13  14
HETATM   14  C   UNL     1     -39.810  51.799 -53.945  1.00  0.00     0.293 C 
BRANCH  14  15
HETATM   15  C   UNL     1     -40.234  50.365 -54.214  1.00  0.00     0.408 C 
HETATM   16  F   UNL     1     -40.163  49.613 -53.092  1.00  0.00    -0.169 F 
HETATM   17  F   UNL     1     -41.501  50.298 -54.678  1.00  0.00    -0.169 F 
HETATM   18  F   UNL     1     -39.431  49.794 -55.140  1.00  0.00    -0.169 F 
ENDBRANCH  14  15
ENDBRANCH  13  14
ENDBRANCH   8  13
ENDBRANCH   3   7
BRANCH   1  19
HETATM   19  C   UNL     1     -43.777  56.885 -55.659  1.00  0.00     0.086 A 
HETATM   20  C   UNL     1     -43.546  56.846 -57.022  1.00  0.00     0.052 A 
HETATM   21  C   UNL     1     -43.009  55.799 -57.923  1.00  0.00     0.072 C 
HETATM   22  N   UNL     1     -43.920  58.071 -57.498  1.00  0.00    -0.280 N 
HETATM   23  H   UNL     1     -43.882  58.410 -58.453  1.00  0.00     0.189 HD
HETATM   24  N   UNL     1     -44.396  58.893 -56.561  1.00  0.00    -0.177 NA
HETATM   25  C   UNL     1     -44.324  58.182 -55.426  1.00  0.00     0.079 A 
HETATM   26  C   UNL     1     -44.842  58.799 -54.178  1.00  0.00     0.075 C 
ENDBRANCH   1  19
TORSDOF 5
ENDMDL
MODEL 9
REMARK VINA RESULT:      -6.6      3.298      4.499
REMARK  5 active torsions:
REMARK  status: ('A' for Active; 'I' for Inactive)
REMARK    1  A    between atoms: C_8  and  N_9 
REMARK       I    between atoms: N_9  and  C_10 
REMARK       I    between atoms: C_10  and  N_11 
REMARK    2  A    between atoms: N_11  and  C_12 
REMARK    3  A    between atoms: C_13  and  O_14 
REMARK    4  A    between atoms: O_14  and  C_15 
REMARK    5  A    between atoms: C_15  and  C_16 
ROOT
HETATM    1  N   UNL     1     -42.334  56.481 -56.564  1.00  0.00    -0.305 N 
HETATM    2  C   UNL     1     -42.343  55.325 -55.804  1.00  0.00     0.325 C 
HETATM    3  N   UNL     1     -41.083  55.090 -55.281  1.00  0.00    -0.306 N 
HETATM    4  O   UNL     1     -43.321  54.616 -55.612  1.00  0.00    -0.247 OA
HETATM    5  H   UNL     1     -41.606  57.144 -56.354  1.00  0.00     0.171 HD
HETATM    6  H   UNL     1     -40.312  55.585 -55.709  1.00  0.00     0.171 HD
ENDROOT
BRANCH   3   7
HETATM    7  C   UNL     1     -40.701  54.087 -54.363  1.00  0.00     0.069 A 
HETATM    8  C   UNL     1     -41.035  54.287 -53.012  1.00  0.00     0.095 A 
HETATM    9  C   UNL     1     -40.736  53.325 -52.045  1.00  0.00     0.039 A 
HETATM   10  C   UNL     1     -40.063  52.164 -52.417  1.00  0.00     0.003 A 
HETATM   11  C   UNL     1     -39.708  51.963 -53.751  1.00  0.00     0.002 A 
HETATM   12  C   UNL     1     -40.030  52.918 -54.722  1.00  0.00     0.032 A 
BRANCH   8  13
HETATM   13  O   UNL     1     -41.707  55.439 -52.679  1.00  0.00    -0.340 OA
BRANCH  13  14
HETATM   14  C   UNL     1     -41.270  55.955 -51.406  1.00  0.00     0.293 C 
BRANCH  14  15
HETATM   15  C   UNL     1     -41.061  57.457 -51.504  1.00  0.00     0.408 C 
HETATM   16  F   UNL     1     -40.118  57.879 -50.630  1.00  0.00    -0.169 F 
HETATM   17  F   UNL     1     -40.672  57.828 -52.744  1.00  0.00    -0.169 F 
HETATM   18  F   UNL     1     -42.205  58.119 -51.221  1.00  0.00    -0.169 F 
ENDBRANCH  14  15
ENDBRANCH  13  14
ENDBRANCH   8  13
ENDBRANCH   3   7
BRANCH   1  19
HETATM   19  C   UNL     1     -43.364  56.949 -57.363  1.00  0.00     0.086 A 
HETATM   20  C   UNL     1     -43.419  56.689 -58.721  1.00  0.00     0.052 A 
HETATM   21  C   UNL     1     -42.520  55.954 -59.641  1.00  0.00     0.072 C 
HETATM   22  N   UNL     1     -44.560  57.290 -59.169  1.00  0.00    -0.280 N 
HETATM   23  H   UNL     1     -44.923  57.318 -60.117  1.00  0.00     0.189 HD
HETATM   24  N   UNL     1     -45.265  57.897 -58.212  1.00  0.00    -0.177 NA
HETATM   25  C   UNL     1     -44.551  57.693 -57.094  1.00  0.00     0.079 A 
HETATM   26  C   UNL     1     -45.099  58.201 -55.811  1.00  0.00     0.075 C 
ENDBRANCH   1  19
TORSDOF 5
ENDMDL
MODEL 10
REMARK VINA RESULT:      -6.5      3.091      6.332
REMARK  5 active torsions:
REMARK  status: ('A' for Active; 'I' for Inactive)
REMARK    1  A    between atoms: C_8  and  N_9 
REMARK       I    between atoms: N_9  and  C_10 
REMARK       I    between atoms: C_10  and  N_11 
REMARK    2  A    between atoms: N_11  and  C_12 
REMARK    3  A    between atoms: C_13  and  O_14 
REMARK    4  A    between atoms: O_14  and  C_15 
REMARK    5  A    between atoms: C_15  and  C_16 
ROOT
HETATM    1  N   UNL     1     -41.671  53.955 -53.525  1.00  0.00    -0.305 N 
HETATM    2  C   UNL     1     -41.354  54.811 -54.564  1.00  0.00     0.325 C 
HETATM    3  N   UNL     1     -42.511  55.294 -55.152  1.00  0.00    -0.306 N 
HETATM    4  O   UNL     1     -40.220  55.108 -54.912  1.00  0.00    -0.247 OA
HETATM    5  H   UNL     1     -42.583  54.074 -53.115  1.00  0.00     0.171 HD
HETATM    6  H   UNL     1     -43.365  54.790 -54.957  1.00  0.00     0.171 HD
ENDROOT
BRANCH   3   7
HETATM    7  C   UNL     1     -42.623  56.276 -56.161  1.00  0.00     0.069 A 
HETATM    8  C   UNL     1     -42.573  57.623 -55.758  1.00  0.00     0.095 A 
HETATM    9  C   UNL     1     -42.631  58.657 -56.695  1.00  0.00     0.039 A 
HETATM   10  C   UNL     1     -42.778  58.353 -58.046  1.00  0.00     0.003 A 
HETATM   11  C   UNL     1     -42.849  57.022 -58.455  1.00  0.00     0.002 A 
HETATM   12  C   UNL     1     -42.767  55.986 -57.517  1.00  0.00     0.032 A 
BRANCH   8  13
HETATM   13  O   UNL     1     -42.419  57.890 -54.419  1.00  0.00    -0.340 OA
BRANCH  13  14
HETATM   14  C   UNL     1     -41.453  58.936 -54.198  1.00  0.00     0.293 C 
BRANCH  14  15
HETATM   15  C   UNL     1     -40.656  58.644 -52.938  1.00  0.00     0.408 C 
HETATM   16  F   UNL     1     -41.041  59.445 -51.917  1.00  0.00    -0.169 F 
HETATM   17  F   UNL     1     -40.806  57.362 -52.538  1.00  0.00    -0.169 F 
HETATM   18  F   UNL     1     -39.336  58.854 -53.146  1.00  0.00    -0.169 F 
ENDBRANCH  14  15
ENDBRANCH  13  14
ENDBRANCH   8  13
ENDBRANCH   3   7
BRANCH   1  19
HETATM   19  C   UNL     1     -40.785  53.166 -52.809  1.00  0.00     0.086 A 
HETATM   20  C   UNL     1     -40.432  53.455 -51.503  1.00  0.00     0.052 A 
HETATM   21  C   UNL     1     -40.808  54.550 -50.578  1.00  0.00     0.072 C 
HETATM   22  N   UNL     1     -39.564  52.470 -51.126  1.00  0.00    -0.280 N 
HETATM   23  H   UNL     1     -39.091  52.360 -50.235  1.00  0.00     0.189 HD
HETATM   24  N   UNL     1     -39.343  51.553 -52.069  1.00  0.00    -0.177 NA
HETATM   25  C   UNL     1     -40.088  51.958 -53.109  1.00  0.00     0.079 A 
HETATM   26  C   UNL     1     -40.114  51.108 -54.326  1.00  0.00     0.075 C 
ENDBRANCH   1  19
TORSDOF 5
ENDMDL
