MODEL 1
REMARK VINA RESULT:      -8.8      0.000      0.000
REMARK  5 active torsions:
REMARK  status: ('A' for Active; 'I' for Inactive)
REMARK    1  A    between atoms: C_8  and  N_9 
REMARK    2  A    between atoms: N_9  and  C_10 
REMARK    3  A    between atoms: C_10  and  C_11 
REMARK       I    between atoms: C_11  and  N_12 
REMARK    4  A    between atoms: N_12  and  N_13 
REMARK    5  A    between atoms: C_14  and  C_15 
ROOT
HETATM    1  C   UNL     1     -42.748  56.227 -55.810  1.00  0.00     0.250 C 
HETATM    2  N   UNL     1     -41.767  55.236 -55.870  1.00  0.00    -0.246 N 
HETATM    3  O   UNL     1     -43.590  56.336 -54.921  1.00  0.00    -0.270 OA
HETATM    4  H   UNL     1     -40.958  55.392 -56.464  1.00  0.00     0.192 HD
ENDROOT
BRANCH   2   5
HETATM    5  N   UNL     1     -41.544  54.272 -54.916  1.00  0.00    -0.184 NA
HETATM    6  C   UNL     1     -40.724  54.532 -53.947  1.00  0.00     0.153 C 
BRANCH   6   7
HETATM    7  C   UNL     1     -40.446  53.521 -52.939  1.00  0.00     0.018 A 
HETATM    8  C   UNL     1     -40.116  52.133 -53.107  1.00  0.00     0.004 A 
HETATM    9  C   UNL     1     -39.949  51.587 -51.833  1.00  0.00     0.043 A 
HETATM   10  C   UNL     1     -39.944  51.280 -54.219  1.00  0.00     0.014 A 
HETATM   11  C   UNL     1     -39.621  50.242 -51.616  1.00  0.00     0.030 A 
HETATM   12  N   UNL     1     -40.160  52.597 -50.927  1.00  0.00    -0.358 N 
HETATM   13  C   UNL     1     -39.459  49.424 -52.737  1.00  0.00     0.002 A 
HETATM   14  C   UNL     1     -39.617  49.934 -54.022  1.00  0.00     0.001 A 
HETATM   15  H   UNL     1     -40.097  52.482 -49.926  1.00  0.00     0.166 HD
HETATM   16  C   UNL     1     -40.461  53.770 -51.572  1.00  0.00     0.018 A 
HETATM   17  C   UNL     1     -40.730  55.020 -50.812  1.00  0.00     0.069 C 
ENDBRANCH   6   7
ENDBRANCH   2   5
BRANCH   1  18
HETATM   18  C   UNL     1     -42.678  57.202 -56.996  1.00  0.00     0.197 C 
BRANCH  18  19
HETATM   19  N   UNL     1     -44.030  57.566 -57.457  1.00  0.00    -0.284 NA
HETATM   20  H   UNL     1     -44.110  58.571 -57.604  1.00  0.00     0.128 HD
BRANCH  19  21
HETATM   21  C   UNL     1     -44.427  56.844 -58.605  1.00  0.00     0.016 A 
HETATM   22  C   UNL     1     -45.678  57.067 -59.221  1.00  0.00    -0.019 A 
HETATM   23  C   UNL     1     -46.582  58.183 -58.764  1.00  0.00     0.052 C 
HETATM   24  C   UNL     1     -46.065  56.226 -60.283  1.00  0.00     0.041 A 
HETATM   25 CL   UNL     1     -47.599  56.396 -61.067  1.00  0.00    -0.084 Cl
HETATM   26  C   UNL     1     -45.224  55.208 -60.741  1.00  0.00     0.024 A 
HETATM   27  C   UNL     1     -43.986  55.005 -60.141  1.00  0.00     0.003 A 
HETATM   28  C   UNL     1     -43.595  55.813 -59.074  1.00  0.00     0.024 A 
ENDBRANCH  19  21
ENDBRANCH  18  19
ENDBRANCH   1  18
TORSDOF 5
ENDMDL
MODEL 2
REMARK VINA RESULT:      -8.6      1.159      1.807
REMARK  5 active torsions:
REMARK  status: ('A' for Active; 'I' for Inactive)
REMARK    1  A    between atoms: C_8  and  N_9 
REMARK    2  A    between atoms: N_9  and  C_10 
REMARK    3  A    between atoms: C_10  and  C_11 
REMARK       I    between atoms: C_11  and  N_12 
REMARK    4  A    between atoms: N_12  and  N_13 
REMARK    5  A    between atoms: C_14  and  C_15 
ROOT
HETATM    1  C   UNL     1     -42.900  56.318 -55.423  1.00  0.00     0.250 C 
HETATM    2  N   UNL     1     -42.768  56.310 -54.033  1.00  0.00    -0.246 N 
HETATM    3  O   UNL     1     -42.605  55.385 -56.167  1.00  0.00    -0.270 OA
HETATM    4  H   UNL     1     -43.294  56.992 -53.494  1.00  0.00     0.192 HD
ENDROOT
BRANCH   2   5
HETATM    5  N   UNL     1     -42.355  55.240 -53.274  1.00  0.00    -0.184 NA
HETATM    6  C   UNL     1     -41.095  54.945 -53.246  1.00  0.00     0.153 C 
BRANCH   6   7
HETATM    7  C   UNL     1     -40.633  53.802 -52.476  1.00  0.00     0.018 A 
HETATM    8  C   UNL     1     -40.315  52.472 -52.919  1.00  0.00     0.004 A 
HETATM    9  C   UNL     1     -39.924  51.741 -51.796  1.00  0.00     0.043 A 
HETATM   10  C   UNL     1     -40.323  51.813 -54.167  1.00  0.00     0.014 A 
HETATM   11  C   UNL     1     -39.543  50.393 -51.858  1.00  0.00     0.030 A 
HETATM   12  N   UNL     1     -39.992  52.586 -50.717  1.00  0.00    -0.358 N 
HETATM   13  C   UNL     1     -39.563  49.769 -53.107  1.00  0.00     0.002 A 
HETATM   14  C   UNL     1     -39.947  50.468 -54.248  1.00  0.00     0.001 A 
HETATM   15  H   UNL     1     -39.758  52.318 -49.771  1.00  0.00     0.166 HD
HETATM   16  C   UNL     1     -40.418  53.832 -51.103  1.00  0.00     0.018 A 
HETATM   17  C   UNL     1     -40.572  54.934 -50.117  1.00  0.00     0.069 C 
ENDBRANCH   6   7
ENDBRANCH   2   5
BRANCH   1  18
HETATM   18  C   UNL     1     -43.467  57.644 -55.955  1.00  0.00     0.197 C 
BRANCH  18  19
HETATM   19  N   UNL     1     -43.234  57.769 -57.406  1.00  0.00    -0.284 NA
HETATM   20  H   UNL     1     -42.388  57.275 -57.686  1.00  0.00     0.128 HD
BRANCH  19  21
HETATM   21  C   UNL     1     -44.348  57.360 -58.173  1.00  0.00     0.016 A 
HETATM   22  C   UNL     1     -44.207  56.480 -59.269  1.00  0.00    -0.019 A 
HETATM   23  C   UNL     1     -42.882  55.830 -59.579  1.00  0.00     0.052 C 
HETATM   24  C   UNL     1     -45.335  56.214 -60.069  1.00  0.00     0.041 A 
HETATM   25 CL   UNL     1     -45.245  55.185 -61.458  1.00  0.00    -0.084 Cl
HETATM   26  C   UNL     1     -46.578  56.782 -59.775  1.00  0.00     0.024 A 
HETATM   27  C   UNL     1     -46.714  57.634 -58.684  1.00  0.00     0.003 A 
HETATM   28  C   UNL     1     -45.603  57.927 -57.895  1.00  0.00     0.024 A 
ENDBRANCH  19  21
ENDBRANCH  18  19
ENDBRANCH   1  18
TORSDOF 5
ENDMDL
MODEL 3
REMARK VINA RESULT:      -8.5      0.961      2.727
REMARK  5 active torsions:
REMARK  status: ('A' for Active; 'I' for Inactive)
REMARK    1  A    between atoms: C_8  and  N_9 
REMARK    2  A    between atoms: N_9  and  C_10 
REMARK    3  A    between atoms: C_10  and  C_11 
REMARK       I    between atoms: C_11  and  N_12 
REMARK    4  A    between atoms: N_12  and  N_13 
REMARK    5  A    between atoms: C_14  and  C_15 
ROOT
HETATM    1  C   UNL     1     -42.490  56.687 -55.880  1.00  0.00     0.250 C 
HETATM    2  N   UNL     1     -41.436  55.775 -55.801  1.00  0.00    -0.246 N 
HETATM    3  O   UNL     1     -43.135  57.108 -54.922  1.00  0.00    -0.270 OA
HETATM    4  H   UNL     1     -40.793  55.711 -56.585  1.00  0.00     0.192 HD
ENDROOT
BRANCH   2   5
HETATM    5  N   UNL     1     -40.909  55.259 -54.641  1.00  0.00    -0.184 NA
HETATM    6  C   UNL     1     -41.415  54.169 -54.157  1.00  0.00     0.153 C 
BRANCH   6   7
HETATM    7  C   UNL     1     -40.897  53.617 -52.916  1.00  0.00     0.018 A 
HETATM    8  C   UNL     1     -40.965  54.148 -51.582  1.00  0.00     0.004 A 
HETATM    9  C   UNL     1     -40.313  53.246 -50.740  1.00  0.00     0.043 A 
HETATM   10  C   UNL     1     -41.517  55.312 -51.004  1.00  0.00     0.014 A 
HETATM   11  C   UNL     1     -40.185  53.447 -49.359  1.00  0.00     0.030 A 
HETATM   12  N   UNL     1     -39.872  52.207 -51.521  1.00  0.00    -0.358 N 
HETATM   13  C   UNL     1     -40.740  54.609 -48.817  1.00  0.00     0.002 A 
HETATM   14  C   UNL     1     -41.399  55.530 -49.627  1.00  0.00     0.001 A 
HETATM   15  H   UNL     1     -39.368  51.406 -51.167  1.00  0.00     0.166 HD
HETATM   16  C   UNL     1     -40.212  52.410 -52.835  1.00  0.00     0.018 A 
HETATM   17  C   UNL     1     -39.851  51.423 -53.886  1.00  0.00     0.069 C 
ENDBRANCH   6   7
ENDBRANCH   2   5
BRANCH   1  18
HETATM   18  C   UNL     1     -42.782  57.131 -57.322  1.00  0.00     0.197 C 
BRANCH  18  19
HETATM   19  N   UNL     1     -44.234  57.221 -57.561  1.00  0.00    -0.284 NA
HETATM   20  H   UNL     1     -44.555  58.187 -57.513  1.00  0.00     0.128 HD
BRANCH  19  21
HETATM   21  C   UNL     1     -44.626  56.606 -58.770  1.00  0.00     0.016 A 
HETATM   22  C   UNL     1     -45.844  56.934 -59.405  1.00  0.00    -0.019 A 
HETATM   23  C   UNL     1     -46.710  58.057 -58.891  1.00  0.00     0.052 C 
HETATM   24  C   UNL     1     -46.236  56.194 -60.537  1.00  0.00     0.041 A 
HETATM   25 CL   UNL     1     -47.733  56.496 -61.350  1.00  0.00    -0.084 Cl
HETATM   26  C   UNL     1     -45.429  55.172 -61.045  1.00  0.00     0.024 A 
HETATM   27  C   UNL     1     -44.222  54.866 -60.426  1.00  0.00     0.003 A 
HETATM   28  C   UNL     1     -43.829  55.572 -59.291  1.00  0.00     0.024 A 
ENDBRANCH  19  21
ENDBRANCH  18  19
ENDBRANCH   1  18
TORSDOF 5
ENDMDL
MODEL 4
REMARK VINA RESULT:      -8.3      2.717      3.324
REMARK  5 active torsions:
REMARK  status: ('A' for Active; 'I' for Inactive)
REMARK    1  A    between atoms: C_8  and  N_9 
REMARK    2  A    between atoms: N_9  and  C_10 
REMARK    3  A    between atoms: C_10  and  C_11 
REMARK       I    between atoms: C_11  and  N_12 
REMARK    4  A    between atoms: N_12  and  N_13 
REMARK    5  A    between atoms: C_14  and  C_15 
ROOT
HETATM    1  C   UNL     1     -40.994  58.817 -53.592  1.00  0.00     0.250 C 
HETATM    2  N   UNL     1     -41.560  57.550 -53.438  1.00  0.00    -0.246 N 
HETATM    3  O   UNL     1     -39.864  59.137 -53.226  1.00  0.00    -0.270 OA
HETATM    4  H   UNL     1     -42.360  57.305 -54.014  1.00  0.00     0.192 HD
ENDROOT
BRANCH   2   5
HETATM    5  N   UNL     1     -40.924  56.447 -52.919  1.00  0.00    -0.184 NA
HETATM    6  C   UNL     1     -41.623  55.386 -52.667  1.00  0.00     0.153 C 
BRANCH   6   7
HETATM    7  C   UNL     1     -40.983  54.214 -52.090  1.00  0.00     0.018 A 
HETATM    8  C   UNL     1     -40.589  52.987 -52.723  1.00  0.00     0.004 A 
HETATM    9  C   UNL     1     -40.022  52.174 -51.741  1.00  0.00     0.043 A 
HETATM   10  C   UNL     1     -40.658  52.481 -54.040  1.00  0.00     0.014 A 
HETATM   11  C   UNL     1     -39.526  50.890 -52.005  1.00  0.00     0.030 A 
HETATM   12  N   UNL     1     -40.062  52.875 -50.561  1.00  0.00    -0.358 N 
HETATM   13  C   UNL     1     -39.611  50.417 -53.316  1.00  0.00     0.002 A 
HETATM   14  C   UNL     1     -40.168  51.201 -54.323  1.00  0.00     0.001 A 
HETATM   15  H   UNL     1     -39.711  52.524 -49.681  1.00  0.00     0.166 HD
HETATM   16  C   UNL     1     -40.637  54.106 -50.749  1.00  0.00     0.018 A 
HETATM   17  C   UNL     1     -40.794  55.063 -49.622  1.00  0.00     0.069 C 
ENDBRANCH   6   7
ENDBRANCH   2   5
BRANCH   1  18
HETATM   18  C   UNL     1     -41.943  59.809 -54.284  1.00  0.00     0.197 C 
BRANCH  18  19
HETATM   19  N   UNL     1     -42.987  59.095 -55.041  1.00  0.00    -0.284 NA
HETATM   20  H   UNL     1     -43.908  59.490 -54.859  1.00  0.00     0.128 HD
BRANCH  19  21
HETATM   21  C   UNL     1     -42.714  59.039 -56.426  1.00  0.00     0.016 A 
HETATM   22  C   UNL     1     -42.830  57.835 -57.154  1.00  0.00    -0.019 A 
HETATM   23  C   UNL     1     -43.386  56.589 -56.512  1.00  0.00     0.052 C 
HETATM   24  C   UNL     1     -42.420  57.820 -58.502  1.00  0.00     0.041 A 
HETATM   25 CL   UNL     1     -42.484  56.377 -59.457  1.00  0.00    -0.084 Cl
HETATM   26  C   UNL     1     -41.933  58.974 -59.121  1.00  0.00     0.024 A 
HETATM   27  C   UNL     1     -41.838  60.161 -58.404  1.00  0.00     0.003 A 
HETATM   28  C   UNL     1     -42.217  60.190 -57.063  1.00  0.00     0.024 A 
ENDBRANCH  19  21
ENDBRANCH  18  19
ENDBRANCH   1  18
TORSDOF 5
ENDMDL
MODEL 5
REMARK VINA RESULT:      -8.3      2.198      2.575
REMARK  5 active torsions:
REMARK  status: ('A' for Active; 'I' for Inactive)
REMARK    1  A    between atoms: C_8  and  N_9 
REMARK    2  A    between atoms: N_9  and  C_10 
REMARK    3  A    between atoms: C_10  and  C_11 
REMARK       I    between atoms: C_11  and  N_12 
REMARK    4  A    between atoms: N_12  and  N_13 
REMARK    5  A    between atoms: C_14  and  C_15 
ROOT
HETATM    1  C   UNL     1     -43.103  57.115 -54.165  1.00  0.00     0.250 C 
HETATM    2  N   UNL     1     -42.995  55.748 -54.427  1.00  0.00    -0.246 N 
HETATM    3  O   UNL     1     -42.838  57.652 -53.092  1.00  0.00    -0.270 OA
HETATM    4  H   UNL     1     -42.956  55.444 -55.396  1.00  0.00     0.192 HD
ENDROOT
BRANCH   2   5
HETATM    5  N   UNL     1     -42.513  54.801 -53.555  1.00  0.00    -0.184 NA
HETATM    6  C   UNL     1     -41.247  54.526 -53.571  1.00  0.00     0.153 C 
BRANCH   6   7
HETATM    7  C   UNL     1     -40.713  53.508 -52.681  1.00  0.00     0.018 A 
HETATM    8  C   UNL     1     -40.318  52.158 -52.972  1.00  0.00     0.004 A 
HETATM    9  C   UNL     1     -39.878  51.585 -51.778  1.00  0.00     0.043 A 
HETATM   10  C   UNL     1     -40.293  51.360 -54.137  1.00  0.00     0.014 A 
HETATM   11  C   UNL     1     -39.417  50.265 -51.689  1.00  0.00     0.030 A 
HETATM   12  N   UNL     1     -39.991  52.544 -50.802  1.00  0.00    -0.358 N 
HETATM   13  C   UNL     1     -39.405  49.501 -52.858  1.00  0.00     0.002 A 
HETATM   14  C   UNL     1     -39.837  50.039 -54.067  1.00  0.00     0.001 A 
HETATM   15  H   UNL     1     -39.735  52.401 -49.835  1.00  0.00     0.166 HD
HETATM   16  C   UNL     1     -40.492  53.709 -51.323  1.00  0.00     0.018 A 
HETATM   17  C   UNL     1     -40.707  54.907 -50.469  1.00  0.00     0.069 C 
ENDBRANCH   6   7
ENDBRANCH   2   5
BRANCH   1  18
HETATM   18  C   UNL     1     -43.601  57.913 -55.381  1.00  0.00     0.197 C 
BRANCH  18  19
HETATM   19  N   UNL     1     -42.470  58.513 -56.112  1.00  0.00    -0.284 NA
HETATM   20  H   UNL     1     -41.587  58.329 -55.640  1.00  0.00     0.128 HD
BRANCH  19  21
HETATM   21  C   UNL     1     -42.424  58.114 -57.466  1.00  0.00     0.016 A 
HETATM   22  C   UNL     1     -42.059  59.015 -58.491  1.00  0.00    -0.019 A 
HETATM   23  C   UNL     1     -41.567  60.403 -58.166  1.00  0.00     0.052 C 
HETATM   24  C   UNL     1     -42.157  58.589 -59.829  1.00  0.00     0.041 A 
HETATM   25 CL   UNL     1     -41.774  59.640 -61.150  1.00  0.00    -0.084 Cl
HETATM   26  C   UNL     1     -42.579  57.295 -60.146  1.00  0.00     0.024 A 
HETATM   27  C   UNL     1     -42.920  56.407 -59.132  1.00  0.00     0.003 A 
HETATM   28  C   UNL     1     -42.851  56.817 -57.802  1.00  0.00     0.024 A 
ENDBRANCH  19  21
ENDBRANCH  18  19
ENDBRANCH   1  18
TORSDOF 5
ENDMDL
MODEL 6
REMARK VINA RESULT:      -8.2      6.353      8.261
REMARK  5 active torsions:
REMARK  status: ('A' for Active; 'I' for Inactive)
REMARK    1  A    between atoms: C_8  and  N_9 
REMARK    2  A    between atoms: N_9  and  C_10 
REMARK    3  A    between atoms: C_10  and  C_11 
REMARK       I    between atoms: C_11  and  N_12 
REMARK    4  A    between atoms: N_12  and  N_13 
REMARK    5  A    between atoms: C_14  and  C_15 
ROOT
HETATM    1  C   UNL     1     -44.905  58.284 -51.591  1.00  0.00     0.250 C 
HETATM    2  N   UNL     1     -44.018  57.652 -50.717  1.00  0.00    -0.246 N 
HETATM    3  O   UNL     1     -44.889  58.177 -52.816  1.00  0.00    -0.270 OA
HETATM    4  H   UNL     1     -44.281  57.567 -49.740  1.00  0.00     0.192 HD
ENDROOT
BRANCH   2   5
HETATM    5  N   UNL     1     -43.037  56.760 -51.080  1.00  0.00    -0.184 NA
HETATM    6  C   UNL     1     -43.022  55.589 -50.525  1.00  0.00     0.153 C 
BRANCH   6   7
HETATM    7  C   UNL     1     -41.979  54.636 -50.867  1.00  0.00     0.018 A 
HETATM    8  C   UNL     1     -41.704  53.997 -52.124  1.00  0.00     0.004 A 
HETATM    9  C   UNL     1     -40.602  53.162 -51.936  1.00  0.00     0.043 A 
HETATM   10  C   UNL     1     -42.287  54.042 -53.410  1.00  0.00     0.014 A 
HETATM   11  C   UNL     1     -40.055  52.376 -52.960  1.00  0.00     0.030 A 
HETATM   12  N   UNL     1     -40.214  53.290 -50.625  1.00  0.00    -0.358 N 
HETATM   13  C   UNL     1     -40.655  52.442 -54.219  1.00  0.00     0.002 A 
HETATM   14  C   UNL     1     -41.756  53.264 -54.444  1.00  0.00     0.001 A 
HETATM   15  H   UNL     1     -39.433  52.799 -50.214  1.00  0.00     0.166 HD
HETATM   16  C   UNL     1     -41.030  54.172 -49.963  1.00  0.00     0.018 A 
HETATM   17  C   UNL     1     -40.818  54.489 -48.526  1.00  0.00     0.069 C 
ENDBRANCH   6   7
ENDBRANCH   2   5
BRANCH   1  18
HETATM   18  C   UNL     1     -45.937  59.156 -50.858  1.00  0.00     0.197 C 
BRANCH  18  19
HETATM   19  N   UNL     1     -45.638  59.222 -49.415  1.00  0.00    -0.284 NA
HETATM   20  H   UNL     1     -44.952  58.517 -49.149  1.00  0.00     0.128 HD
BRANCH  19  21
HETATM   21  C   UNL     1     -45.242  60.512 -49.000  1.00  0.00     0.016 A 
HETATM   22  C   UNL     1     -45.496  60.978 -47.691  1.00  0.00    -0.019 A 
HETATM   23  C   UNL     1     -46.078  60.066 -46.641  1.00  0.00     0.052 C 
HETATM   24  C   UNL     1     -45.190  62.317 -47.381  1.00  0.00     0.041 A 
HETATM   25 CL   UNL     1     -45.511  62.986 -45.817  1.00  0.00    -0.084 Cl
HETATM   26  C   UNL     1     -44.620  63.166 -48.334  1.00  0.00     0.024 A 
HETATM   27  C   UNL     1     -44.355  62.696 -49.615  1.00  0.00     0.003 A 
HETATM   28  C   UNL     1     -44.673  61.381 -49.947  1.00  0.00     0.024 A 
ENDBRANCH  19  21
ENDBRANCH  18  19
ENDBRANCH   1  18
TORSDOF 5
ENDMDL
MODEL 7
REMARK VINA RESULT:      -8.0      3.410      9.605
REMARK  5 active torsions:
REMARK  status: ('A' for Active; 'I' for Inactive)
REMARK    1  A    between atoms: C_8  and  N_9 
REMARK    2  A    between atoms: N_9  and  C_10 
REMARK    3  A    between atoms: C_10  and  C_11 
REMARK       I    between atoms: C_11  and  N_12 
REMARK    4  A    between atoms: N_12  and  N_13 
REMARK    5  A    between atoms: C_14  and  C_15 
ROOT
HETATM    1  C   UNL     1     -41.847  54.938 -55.329  1.00  0.00     0.250 C 
HETATM    2  N   UNL     1     -41.738  55.937 -56.297  1.00  0.00    -0.246 N 
HETATM    3  O   UNL     1     -42.901  54.423 -54.959  1.00  0.00    -0.270 OA
HETATM    4  H   UNL     1     -40.834  56.090 -56.734  1.00  0.00     0.192 HD
ENDROOT
BRANCH   2   5
HETATM    5  N   UNL     1     -42.776  56.451 -57.037  1.00  0.00    -0.184 NA
HETATM    6  C   UNL     1     -42.852  56.155 -58.296  1.00  0.00     0.153 C 
BRANCH   6   7
HETATM    7  C   UNL     1     -43.923  56.708 -59.110  1.00  0.00     0.018 A 
HETATM    8  C   UNL     1     -44.330  58.076 -59.273  1.00  0.00     0.004 A 
HETATM    9  C   UNL     1     -45.411  58.087 -60.155  1.00  0.00     0.043 A 
HETATM   10  C   UNL     1     -43.887  59.313 -58.756  1.00  0.00     0.014 A 
HETATM   11  C   UNL     1     -46.068  59.262 -60.544  1.00  0.00     0.030 A 
HETATM   12  N   UNL     1     -45.650  56.785 -60.521  1.00  0.00    -0.358 N 
HETATM   13  C   UNL     1     -45.608  60.469 -60.013  1.00  0.00     0.002 A 
HETATM   14  C   UNL     1     -44.531  60.497 -59.131  1.00  0.00     0.001 A 
HETATM   15  H   UNL     1     -46.379  56.500 -61.160  1.00  0.00     0.166 HD
HETATM   16  C   UNL     1     -44.766  55.939 -59.902  1.00  0.00     0.018 A 
HETATM   17  C   UNL     1     -44.812  54.471 -60.136  1.00  0.00     0.069 C 
ENDBRANCH   6   7
ENDBRANCH   2   5
BRANCH   1  18
HETATM   18  C   UNL     1     -40.485  54.527 -54.746  1.00  0.00     0.197 C 
BRANCH  18  19
HETATM   19  N   UNL     1     -40.639  53.990 -53.382  1.00  0.00    -0.284 NA
HETATM   20  H   UNL     1     -41.555  54.218 -52.998  1.00  0.00     0.128 HD
BRANCH  19  21
HETATM   21  C   UNL     1     -40.379  52.604 -53.310  1.00  0.00     0.016 A 
HETATM   22  C   UNL     1     -40.044  51.978 -52.089  1.00  0.00    -0.019 A 
HETATM   23  C   UNL     1     -40.086  52.738 -50.788  1.00  0.00     0.052 C 
HETATM   24  C   UNL     1     -39.672  50.619 -52.109  1.00  0.00     0.041 A 
HETATM   25 CL   UNL     1     -39.201  49.783 -50.668  1.00  0.00    -0.084 Cl
HETATM   26  C   UNL     1     -39.660  49.891 -53.301  1.00  0.00     0.024 A 
HETATM   27  C   UNL     1     -40.009  50.509 -54.497  1.00  0.00     0.003 A 
HETATM   28  C   UNL     1     -40.357  51.859 -54.501  1.00  0.00     0.024 A 
ENDBRANCH  19  21
ENDBRANCH  18  19
ENDBRANCH   1  18
TORSDOF 5
ENDMDL
MODEL 8
REMARK VINA RESULT:      -8.0      4.522      6.049
REMARK  5 active torsions:
REMARK  status: ('A' for Active; 'I' for Inactive)
REMARK    1  A    between atoms: C_8  and  N_9 
REMARK    2  A    between atoms: N_9  and  C_10 
REMARK    3  A    between atoms: C_10  and  C_11 
REMARK       I    between atoms: C_11  and  N_12 
REMARK    4  A    between atoms: N_12  and  N_13 
REMARK    5  A    between atoms: C_14  and  C_15 
ROOT
HETATM    1  C   UNL     1     -43.453  56.791 -53.832  1.00  0.00     0.250 C 
HETATM    2  N   UNL     1     -43.465  56.216 -52.560  1.00  0.00    -0.246 N 
HETATM    3  O   UNL     1     -42.870  56.331 -54.812  1.00  0.00    -0.270 OA
HETATM    4  H   UNL     1     -44.190  56.500 -51.908  1.00  0.00     0.192 HD
ENDROOT
BRANCH   2   5
HETATM    5  N   UNL     1     -42.890  55.014 -52.220  1.00  0.00    -0.184 NA
HETATM    6  C   UNL     1     -41.627  54.987 -51.933  1.00  0.00     0.153 C 
BRANCH   6   7
HETATM    7  C   UNL     1     -40.985  53.726 -51.598  1.00  0.00     0.018 A 
HETATM    8  C   UNL     1     -40.573  52.655 -52.462  1.00  0.00     0.004 A 
HETATM    9  C   UNL     1     -40.013  51.661 -51.657  1.00  0.00     0.043 A 
HETATM   10  C   UNL     1     -40.621  52.427 -53.855  1.00  0.00     0.014 A 
HETATM   11  C   UNL     1     -39.503  50.461 -52.170  1.00  0.00     0.030 A 
HETATM   12  N   UNL     1     -40.073  52.107 -50.360  1.00  0.00    -0.358 N 
HETATM   13  C   UNL     1     -39.566  50.265 -53.551  1.00  0.00     0.002 A 
HETATM   14  C   UNL     1     -40.117  51.234 -54.385  1.00  0.00     0.001 A 
HETATM   15  H   UNL     1     -39.731  51.587 -49.565  1.00  0.00     0.166 HD
HETATM   16  C   UNL     1     -40.656  53.348 -50.302  1.00  0.00     0.018 A 
HETATM   17  C   UNL     1     -40.836  54.055 -49.006  1.00  0.00     0.069 C 
ENDBRANCH   6   7
ENDBRANCH   2   5
BRANCH   1  18
HETATM   18  C   UNL     1     -44.261  58.097 -53.898  1.00  0.00     0.197 C 
BRANCH  18  19
HETATM   19  N   UNL     1     -43.366  59.262 -54.021  1.00  0.00    -0.284 NA
HETATM   20  H   UNL     1     -43.805  60.008 -54.559  1.00  0.00     0.128 HD
BRANCH  19  21
HETATM   21  C   UNL     1     -42.906  59.730 -52.770  1.00  0.00     0.016 A 
HETATM   22  C   UNL     1     -41.576  59.515 -52.345  1.00  0.00    -0.019 A 
HETATM   23  C   UNL     1     -40.555  58.900 -53.268  1.00  0.00     0.052 C 
HETATM   24  C   UNL     1     -41.218  59.893 -51.036  1.00  0.00     0.041 A 
HETATM   25 CL   UNL     1     -39.625  59.626 -50.415  1.00  0.00    -0.084 Cl
HETATM   26  C   UNL     1     -42.144  60.494 -50.180  1.00  0.00     0.024 A 
HETATM   27  C   UNL     1     -43.447  60.719 -50.611  1.00  0.00     0.003 A 
HETATM   28  C   UNL     1     -43.826  60.331 -51.895  1.00  0.00     0.024 A 
ENDBRANCH  19  21
ENDBRANCH  18  19
ENDBRANCH   1  18
TORSDOF 5
ENDMDL
MODEL 9
REMARK VINA RESULT:      -7.7      5.868      7.406
REMARK  5 active torsions:
REMARK  status: ('A' for Active; 'I' for Inactive)
REMARK    1  A    between atoms: C_8  and  N_9 
REMARK    2  A    between atoms: N_9  and  C_10 
REMARK    3  A    between atoms: C_10  and  C_11 
REMARK       I    between atoms: C_11  and  N_12 
REMARK    4  A    between atoms: N_12  and  N_13 
REMARK    5  A    between atoms: C_14  and  C_15 
ROOT
HETATM    1  C   UNL     1     -44.074  57.870 -51.966  1.00  0.00     0.250 C 
HETATM    2  N   UNL     1     -43.265  57.443 -50.912  1.00  0.00    -0.246 N 
HETATM    3  O   UNL     1     -43.962  57.507 -53.136  1.00  0.00    -0.270 OA
HETATM    4  H   UNL     1     -43.605  57.566 -49.962  1.00  0.00     0.192 HD
ENDROOT
BRANCH   2   5
HETATM    5  N   UNL     1     -42.268  56.501 -50.999  1.00  0.00    -0.184 NA
HETATM    6  C   UNL     1     -42.581  55.249 -50.892  1.00  0.00     0.153 C 
BRANCH   6   7
HETATM    7  C   UNL     1     -41.543  54.232 -50.950  1.00  0.00     0.018 A 
HETATM    8  C   UNL     1     -41.118  53.427 -52.061  1.00  0.00     0.004 A 
HETATM    9  C   UNL     1     -40.093  52.596 -51.606  1.00  0.00     0.043 A 
HETATM   10  C   UNL     1     -41.504  53.318 -53.415  1.00  0.00     0.014 A 
HETATM   11  C   UNL     1     -39.439  51.668 -52.429  1.00  0.00     0.030 A 
HETATM   12  N   UNL     1     -39.895  52.885 -50.278  1.00  0.00    -0.358 N 
HETATM   13  C   UNL     1     -39.845  51.584 -53.762  1.00  0.00     0.002 A 
HETATM   14  C   UNL     1     -40.864  52.397 -54.252  1.00  0.00     0.001 A 
HETATM   15  H   UNL     1     -39.204  52.432 -49.696  1.00  0.00     0.166 HD
HETATM   16  C   UNL     1     -40.758  53.867 -49.863  1.00  0.00     0.018 A 
HETATM   17  C   UNL     1     -40.743  54.365 -48.462  1.00  0.00     0.069 C 
ENDBRANCH   6   7
ENDBRANCH   2   5
BRANCH   1  18
HETATM   18  C   UNL     1     -45.152  58.870 -51.518  1.00  0.00     0.197 C 
BRANCH  18  19
HETATM   19  N   UNL     1     -44.849  59.402 -50.177  1.00  0.00    -0.284 NA
HETATM   20  H   UNL     1     -43.962  59.040 -49.829  1.00  0.00     0.128 HD
BRANCH  19  21
HETATM   21  C   UNL     1     -44.884  60.813 -50.130  1.00  0.00     0.016 A 
HETATM   22  C   UNL     1     -43.700  61.582 -50.129  1.00  0.00    -0.019 A 
HETATM   23  C   UNL     1     -42.352  60.933 -50.321  1.00  0.00     0.052 C 
HETATM   24  C   UNL     1     -43.801  62.975 -49.952  1.00  0.00     0.041 A 
HETATM   25 CL   UNL     1     -42.399  63.990 -49.892  1.00  0.00    -0.084 Cl
HETATM   26  C   UNL     1     -45.044  63.596 -49.807  1.00  0.00     0.024 A 
HETATM   27  C   UNL     1     -46.208  62.836 -49.826  1.00  0.00     0.003 A 
HETATM   28  C   UNL     1     -46.126  61.452 -49.977  1.00  0.00     0.024 A 
ENDBRANCH  19  21
ENDBRANCH  18  19
ENDBRANCH   1  18
TORSDOF 5
ENDMDL
MODEL 10
REMARK VINA RESULT:      -7.7      4.280      5.290
REMARK  5 active torsions:
REMARK  status: ('A' for Active; 'I' for Inactive)
REMARK    1  A    between atoms: C_8  and  N_9 
REMARK    2  A    between atoms: N_9  and  C_10 
REMARK    3  A    between atoms: C_10  and  C_11 
REMARK       I    between atoms: C_11  and  N_12 
REMARK    4  A    between atoms: N_12  and  N_13 
REMARK    5  A    between atoms: C_14  and  C_15 
ROOT
HETATM    1  C   UNL     1     -40.839  58.779 -50.605  1.00  0.00     0.250 C 
HETATM    2  N   UNL     1     -41.535  57.621 -50.255  1.00  0.00    -0.246 N 
HETATM    3  O   UNL     1     -39.641  58.830 -50.875  1.00  0.00    -0.270 OA
HETATM    4  H   UNL     1     -42.548  57.623 -50.333  1.00  0.00     0.192 HD
ENDROOT
BRANCH   2   5
HETATM    5  N   UNL     1     -41.011  56.350 -50.225  1.00  0.00    -0.184 NA
HETATM    6  C   UNL     1     -41.329  55.521 -51.168  1.00  0.00     0.153 C 
BRANCH   6   7
HETATM    7  C   UNL     1     -40.813  54.162 -51.146  1.00  0.00     0.018 A 
HETATM    8  C   UNL     1     -40.505  53.286 -52.242  1.00  0.00     0.004 A 
HETATM    9  C   UNL     1     -40.046  52.085 -51.700  1.00  0.00     0.043 A 
HETATM   10  C   UNL     1     -40.574  53.393 -53.648  1.00  0.00     0.014 A 
HETATM   11  C   UNL     1     -39.653  50.993 -52.486  1.00  0.00     0.030 A 
HETATM   12  N   UNL     1     -40.064  52.222 -50.334  1.00  0.00    -0.358 N 
HETATM   13  C   UNL     1     -39.734  51.129 -53.874  1.00  0.00     0.002 A 
HETATM   14  C   UNL     1     -40.187  52.313 -54.450  1.00  0.00     0.001 A 
HETATM   15  H   UNL     1     -39.775  51.501 -49.688  1.00  0.00     0.166 HD
HETATM   16  C   UNL     1     -40.524  53.465 -49.979  1.00  0.00     0.018 A 
HETATM   17  C   UNL     1     -40.636  53.866 -48.552  1.00  0.00     0.069 C 
ENDBRANCH   6   7
ENDBRANCH   2   5
BRANCH   1  18
HETATM   18  C   UNL     1     -41.737  60.026 -50.622  1.00  0.00     0.197 C 
BRANCH  18  19
HETATM   19  N   UNL     1     -41.889  60.545 -51.994  1.00  0.00    -0.284 NA
HETATM   20  H   UNL     1     -41.016  60.467 -52.514  1.00  0.00     0.128 HD
BRANCH  19  21
HETATM   21  C   UNL     1     -42.960  59.941 -52.689  1.00  0.00     0.016 A 
HETATM   22  C   UNL     1     -42.735  59.015 -53.731  1.00  0.00    -0.019 A 
HETATM   23  C   UNL     1     -41.345  58.527 -54.051  1.00  0.00     0.052 C 
HETATM   24  C   UNL     1     -43.841  58.548 -54.467  1.00  0.00     0.041 A 
HETATM   25 CL   UNL     1     -43.656  57.447 -55.791  1.00  0.00    -0.084 Cl
HETATM   26  C   UNL     1     -45.140  58.964 -54.162  1.00  0.00     0.024 A 
HETATM   27  C   UNL     1     -45.356  59.863 -53.123  1.00  0.00     0.003 A 
HETATM   28  C   UNL     1     -44.272  60.354 -52.398  1.00  0.00     0.024 A 
ENDBRANCH  19  21
ENDBRANCH  18  19
ENDBRANCH   1  18
TORSDOF 5
ENDMDL
