MODEL 1
REMARK VINA RESULT:      -8.0      0.000      0.000
REMARK  5 active torsions:
REMARK  status: ('A' for Active; 'I' for Inactive)
REMARK    1  A    between atoms: C_2  and  N_4 
REMARK    2  A    between atoms: N_4  and  C_5 
REMARK       I    between atoms: N_4  and  C_12 
REMARK    3  A    between atoms: C_5  and  C_6 
REMARK       I    between atoms: C_12  and  N_14 
REMARK    4  A    between atoms: N_14  and  C_15 
REMARK    5  A    between atoms: C_18  and  C_21 
ROOT
HETATM    1  N   UNL     1     -42.801  58.441 -54.748  1.00  0.00    -0.326 N 
HETATM    2  C   UNL     1     -42.742  57.045 -54.635  1.00  0.00     0.323 C 
HETATM    3  O   UNL     1     -43.588  56.317 -55.147  1.00  0.00    -0.247 OA
HETATM    4  N   UNL     1     -41.675  56.578 -53.895  1.00  0.00    -0.309 N 
HETATM    5  H   UNL     1     -41.296  57.223 -53.219  1.00  0.00     0.170 HD
ENDROOT
BRANCH   4   6
HETATM    6  C   UNL     1     -41.239  55.244 -53.771  1.00  0.00     0.036 A 
HETATM    7  C   UNL     1     -40.659  54.518 -54.810  1.00  0.00     0.030 A 
HETATM    8  C   UNL     1     -40.234  53.199 -54.606  1.00  0.00     0.014 A 
HETATM    9  C   UNL     1     -40.374  52.582 -53.357  1.00  0.00    -0.023 A 
HETATM   10  C   UNL     1     -40.942  53.320 -52.312  1.00  0.00     0.014 A 
HETATM   11  C   UNL     1     -41.368  54.638 -52.517  1.00  0.00     0.030 A 
BRANCH   9  12
HETATM   12  C   UNL     1     -39.935  51.215 -53.136  1.00  0.00     0.010 A 
HETATM   13  C   UNL     1     -39.704  50.155 -54.046  1.00  0.00     0.152 A 
HETATM   14  N   UNL     1     -39.285  49.037 -53.447  1.00  0.00    -0.187 NA
HETATM   15  N   UNL     1     -39.242  49.375 -52.149  1.00  0.00    -0.289 N 
HETATM   16  H   UNL     1     -38.941  48.677 -51.478  1.00  0.00     0.188 HD
HETATM   17  C   UNL     1     -39.620  50.666 -51.911  1.00  0.00     0.123 A 
ENDBRANCH   9  12
ENDBRANCH   4   6
BRANCH   1  18
HETATM   18  C   UNL     1     -43.945  59.077 -55.433  1.00  0.00     0.081 C 
HETATM   19  C   UNL     1     -45.097  59.391 -54.476  1.00  0.00     0.032 C 
HETATM   20  C   UNL     1     -43.546  60.308 -56.251  1.00  0.00     0.032 C 
ENDBRANCH   1  18
BRANCH   1  21
HETATM   21  C   UNL     1     -41.668  59.314 -54.421  1.00  0.00     0.166 C 
BRANCH  21  22
HETATM   22  C   UNL     1     -41.421  59.525 -52.941  1.00  0.00    -0.040 A 
HETATM   23  C   UNL     1     -40.228  59.033 -52.385  1.00  0.00     0.009 A 
HETATM   24  C   UNL     1     -39.957  59.179 -51.023  1.00  0.00     0.001 A 
HETATM   25  C   UNL     1     -40.875  59.818 -50.194  1.00  0.00     0.000 A 
HETATM   26  C   UNL     1     -42.061  60.314 -50.728  1.00  0.00     0.001 A 
HETATM   27  C   UNL     1     -42.332  60.170 -52.090  1.00  0.00     0.009 A 
ENDBRANCH  21  22
ENDBRANCH   1  21
TORSDOF 5
ENDMDL
MODEL 2
REMARK VINA RESULT:      -8.0      2.265      4.182
REMARK  5 active torsions:
REMARK  status: ('A' for Active; 'I' for Inactive)
REMARK    1  A    between atoms: C_2  and  N_4 
REMARK    2  A    between atoms: N_4  and  C_5 
REMARK       I    between atoms: N_4  and  C_12 
REMARK    3  A    between atoms: C_5  and  C_6 
REMARK       I    between atoms: C_12  and  N_14 
REMARK    4  A    between atoms: N_14  and  C_15 
REMARK    5  A    between atoms: C_18  and  C_21 
ROOT
HETATM    1  N   UNL     1     -43.053  58.156 -55.148  1.00  0.00    -0.326 N 
HETATM    2  C   UNL     1     -42.863  56.988 -54.396  1.00  0.00     0.323 C 
HETATM    3  O   UNL     1     -43.744  56.533 -53.673  1.00  0.00    -0.247 OA
HETATM    4  N   UNL     1     -41.613  56.422 -54.530  1.00  0.00    -0.309 N 
HETATM    5  H   UNL     1     -40.874  57.052 -54.806  1.00  0.00     0.170 HD
ENDROOT
BRANCH   4   6
HETATM    6  C   UNL     1     -41.192  55.159 -54.068  1.00  0.00     0.036 A 
HETATM    7  C   UNL     1     -41.205  54.781 -52.726  1.00  0.00     0.030 A 
HETATM    8  C   UNL     1     -40.787  53.500 -52.343  1.00  0.00     0.014 A 
HETATM    9  C   UNL     1     -40.355  52.570 -53.295  1.00  0.00    -0.023 A 
HETATM   10  C   UNL     1     -40.359  52.947 -54.643  1.00  0.00     0.014 A 
HETATM   11  C   UNL     1     -40.775  54.229 -55.025  1.00  0.00     0.030 A 
BRANCH   9  12
HETATM   12  C   UNL     1     -39.921  51.238 -52.907  1.00  0.00     0.010 A 
HETATM   13  C   UNL     1     -39.756  50.056 -53.669  1.00  0.00     0.152 A 
HETATM   14  N   UNL     1     -39.316  49.026 -52.942  1.00  0.00    -0.187 NA
HETATM   15  N   UNL     1     -39.194  49.543 -51.709  1.00  0.00    -0.289 N 
HETATM   16  H   UNL     1     -38.863  48.940 -50.964  1.00  0.00     0.188 HD
HETATM   17  C   UNL     1     -39.541  50.861 -51.636  1.00  0.00     0.123 A 
ENDBRANCH   9  12
ENDBRANCH   4   6
BRANCH   1  18
HETATM   18  C   UNL     1     -44.314  58.916 -55.023  1.00  0.00     0.081 C 
HETATM   19  C   UNL     1     -44.114  60.418 -55.244  1.00  0.00     0.032 C 
HETATM   20  C   UNL     1     -45.437  58.365 -55.905  1.00  0.00     0.032 C 
ENDBRANCH   1  18
BRANCH   1  21
HETATM   21  C   UNL     1     -42.155  58.556 -56.238  1.00  0.00     0.166 C 
BRANCH  21  22
HETATM   22  C   UNL     1     -42.337  57.795 -57.535  1.00  0.00    -0.040 A 
HETATM   23  C   UNL     1     -41.890  58.390 -58.727  1.00  0.00     0.009 A 
HETATM   24  C   UNL     1     -42.051  57.744 -59.956  1.00  0.00     0.001 A 
HETATM   25  C   UNL     1     -42.661  56.494 -60.011  1.00  0.00     0.000 A 
HETATM   26  C   UNL     1     -43.106  55.888 -58.839  1.00  0.00     0.001 A 
HETATM   27  C   UNL     1     -42.944  56.532 -57.612  1.00  0.00     0.009 A 
ENDBRANCH  21  22
ENDBRANCH   1  21
TORSDOF 5
ENDMDL
MODEL 3
REMARK VINA RESULT:      -7.8      3.199      8.052
REMARK  5 active torsions:
REMARK  status: ('A' for Active; 'I' for Inactive)
REMARK    1  A    between atoms: C_2  and  N_4 
REMARK    2  A    between atoms: N_4  and  C_5 
REMARK       I    between atoms: N_4  and  C_12 
REMARK    3  A    between atoms: C_5  and  C_6 
REMARK       I    between atoms: C_12  and  N_14 
REMARK    4  A    between atoms: N_14  and  C_15 
REMARK    5  A    between atoms: C_18  and  C_21 
ROOT
HETATM    1  N   UNL     1     -42.358  55.421 -52.888  1.00  0.00    -0.326 N 
HETATM    2  C   UNL     1     -43.009  55.999 -53.987  1.00  0.00     0.323 C 
HETATM    3  O   UNL     1     -44.144  56.458 -53.900  1.00  0.00    -0.247 OA
HETATM    4  N   UNL     1     -42.274  55.985 -55.154  1.00  0.00    -0.309 N 
HETATM    5  H   UNL     1     -41.568  55.267 -55.219  1.00  0.00     0.170 HD
ENDROOT
BRANCH   4   6
HETATM    6  C   UNL     1     -42.569  56.655 -56.358  1.00  0.00     0.036 A 
HETATM    7  C   UNL     1     -43.033  56.017 -57.507  1.00  0.00     0.030 A 
HETATM    8  C   UNL     1     -43.323  56.754 -58.663  1.00  0.00     0.014 A 
HETATM    9  C   UNL     1     -43.160  58.144 -58.690  1.00  0.00    -0.023 A 
HETATM   10  C   UNL     1     -42.710  58.783 -57.529  1.00  0.00     0.014 A 
HETATM   11  C   UNL     1     -42.420  58.046 -56.374  1.00  0.00     0.030 A 
BRANCH   9  12
HETATM   12  C   UNL     1     -43.458  58.917 -59.884  1.00  0.00     0.010 A 
HETATM   13  C   UNL     1     -42.621  59.694 -60.720  1.00  0.00     0.152 A 
HETATM   14  N   UNL     1     -43.277  60.245 -61.745  1.00  0.00    -0.187 NA
HETATM   15  N   UNL     1     -44.539  59.821 -61.573  1.00  0.00    -0.289 N 
HETATM   16  H   UNL     1     -45.241  60.111 -62.245  1.00  0.00     0.188 HD
HETATM   17  C   UNL     1     -44.700  59.023 -60.477  1.00  0.00     0.123 A 
ENDBRANCH   9  12
ENDBRANCH   4   6
BRANCH   1  18
HETATM   18  C   UNL     1     -43.069  55.285 -51.599  1.00  0.00     0.081 C 
HETATM   19  C   UNL     1     -43.654  53.884 -51.401  1.00  0.00     0.032 C 
HETATM   20  C   UNL     1     -42.222  55.713 -50.398  1.00  0.00     0.032 C 
ENDBRANCH   1  18
BRANCH   1  21
HETATM   21  C   UNL     1     -40.917  55.145 -52.871  1.00  0.00     0.166 C 
BRANCH  21  22
HETATM   22  C   UNL     1     -40.538  53.685 -53.011  1.00  0.00    -0.040 A 
HETATM   23  C   UNL     1     -40.033  53.014 -51.885  1.00  0.00     0.009 A 
HETATM   24  C   UNL     1     -39.647  51.674 -51.961  1.00  0.00     0.001 A 
HETATM   25  C   UNL     1     -39.760  50.983 -53.165  1.00  0.00     0.000 A 
HETATM   26  C   UNL     1     -40.262  51.631 -54.290  1.00  0.00     0.001 A 
HETATM   27  C   UNL     1     -40.649  52.970 -54.214  1.00  0.00     0.009 A 
ENDBRANCH  21  22
ENDBRANCH   1  21
TORSDOF 5
ENDMDL
MODEL 4
REMARK VINA RESULT:      -7.4      1.443      1.991
REMARK  5 active torsions:
REMARK  status: ('A' for Active; 'I' for Inactive)
REMARK    1  A    between atoms: C_2  and  N_4 
REMARK    2  A    between atoms: N_4  and  C_5 
REMARK       I    between atoms: N_4  and  C_12 
REMARK    3  A    between atoms: C_5  and  C_6 
REMARK       I    between atoms: C_12  and  N_14 
REMARK    4  A    between atoms: N_14  and  C_15 
REMARK    5  A    between atoms: C_18  and  C_21 
ROOT
HETATM    1  N   UNL     1     -43.372  58.219 -52.562  1.00  0.00    -0.326 N 
HETATM    2  C   UNL     1     -43.169  56.843 -52.389  1.00  0.00     0.323 C 
HETATM    3  O   UNL     1     -44.103  56.068 -52.207  1.00  0.00    -0.247 OA
HETATM    4  N   UNL     1     -41.846  56.455 -52.423  1.00  0.00    -0.309 N 
HETATM    5  H   UNL     1     -41.174  57.168 -52.182  1.00  0.00     0.170 HD
ENDROOT
BRANCH   4   6
HETATM    6  C   UNL     1     -41.342  55.140 -52.477  1.00  0.00     0.036 A 
HETATM    7  C   UNL     1     -40.895  54.434 -51.361  1.00  0.00     0.030 A 
HETATM    8  C   UNL     1     -40.423  53.122 -51.491  1.00  0.00     0.014 A 
HETATM    9  C   UNL     1     -40.396  52.487 -52.738  1.00  0.00    -0.023 A 
HETATM   10  C   UNL     1     -40.861  53.192 -53.853  1.00  0.00     0.014 A 
HETATM   11  C   UNL     1     -41.332  54.505 -53.723  1.00  0.00     0.030 A 
BRANCH   9  12
HETATM   12  C   UNL     1     -39.909  51.125 -52.882  1.00  0.00     0.010 A 
HETATM   13  C   UNL     1     -39.584  50.372 -54.036  1.00  0.00     0.152 A 
HETATM   14  N   UNL     1     -39.147  49.143 -53.748  1.00  0.00    -0.187 NA
HETATM   15  N   UNL     1     -39.187  49.102 -52.407  1.00  0.00    -0.289 N 
HETATM   16  H   UNL     1     -38.891  48.251 -51.942  1.00  0.00     0.188 HD
HETATM   17  C   UNL     1     -39.634  50.262 -51.842  1.00  0.00     0.123 A 
ENDBRANCH   9  12
ENDBRANCH   4   6
BRANCH   1  18
HETATM   18  C   UNL     1     -44.734  58.782 -52.452  1.00  0.00     0.081 C 
HETATM   19  C   UNL     1     -45.052  59.267 -51.036  1.00  0.00     0.032 C 
HETATM   20  C   UNL     1     -45.021  59.868 -53.493  1.00  0.00     0.032 C 
ENDBRANCH   1  18
BRANCH   1  21
HETATM   21  C   UNL     1     -42.334  59.118 -53.078  1.00  0.00     0.166 C 
BRANCH  21  22
HETATM   22  C   UNL     1     -41.128  59.296 -52.178  1.00  0.00    -0.040 A 
HETATM   23  C   UNL     1     -39.853  59.036 -52.710  1.00  0.00     0.009 A 
HETATM   24  C   UNL     1     -38.708  59.162 -51.920  1.00  0.00     0.001 A 
HETATM   25  C   UNL     1     -38.819  59.548 -50.587  1.00  0.00     0.000 A 
HETATM   26  C   UNL     1     -40.073  59.813 -50.045  1.00  0.00     0.001 A 
HETATM   27  C   UNL     1     -41.219  59.688 -50.834  1.00  0.00     0.009 A 
ENDBRANCH  21  22
ENDBRANCH   1  21
TORSDOF 5
ENDMDL
MODEL 5
REMARK VINA RESULT:      -7.4      3.281      5.513
REMARK  5 active torsions:
REMARK  status: ('A' for Active; 'I' for Inactive)
REMARK    1  A    between atoms: C_2  and  N_4 
REMARK    2  A    between atoms: N_4  and  C_5 
REMARK       I    between atoms: N_4  and  C_12 
REMARK    3  A    between atoms: C_5  and  C_6 
REMARK       I    between atoms: C_12  and  N_14 
REMARK    4  A    between atoms: N_14  and  C_15 
REMARK    5  A    between atoms: C_18  and  C_21 
ROOT
HETATM    1  N   UNL     1     -44.139  58.172 -57.050  1.00  0.00    -0.326 N 
HETATM    2  C   UNL     1     -43.823  57.420 -55.910  1.00  0.00     0.323 C 
HETATM    3  O   UNL     1     -44.535  57.428 -54.911  1.00  0.00    -0.247 OA
HETATM    4  N   UNL     1     -42.651  56.699 -56.011  1.00  0.00    -0.309 N 
HETATM    5  H   UNL     1     -41.974  57.056 -56.668  1.00  0.00     0.170 HD
ENDROOT
BRANCH   4   6
HETATM    6  C   UNL     1     -42.177  55.710 -55.126  1.00  0.00     0.036 A 
HETATM    7  C   UNL     1     -42.393  54.345 -55.302  1.00  0.00     0.030 A 
HETATM    8  C   UNL     1     -41.874  53.419 -54.388  1.00  0.00     0.014 A 
HETATM    9  C   UNL     1     -41.123  53.840 -53.285  1.00  0.00    -0.023 A 
HETATM   10  C   UNL     1     -40.894  55.210 -53.121  1.00  0.00     0.014 A 
HETATM   11  C   UNL     1     -41.414  56.136 -54.034  1.00  0.00     0.030 A 
BRANCH   9  12
HETATM   12  C   UNL     1     -40.580  52.886 -52.332  1.00  0.00     0.010 A 
HETATM   13  C   UNL     1     -40.724  52.793 -50.926  1.00  0.00     0.152 A 
HETATM   14  N   UNL     1     -40.074  51.749 -50.405  1.00  0.00    -0.187 NA
HETATM   15  N   UNL     1     -39.511  51.166 -51.474  1.00  0.00    -0.289 N 
HETATM   16  H   UNL     1     -38.955  50.330 -51.331  1.00  0.00     0.188 HD
HETATM   17  C   UNL     1     -39.784  51.805 -52.649  1.00  0.00     0.123 A 
ENDBRANCH   9  12
ENDBRANCH   4   6
BRANCH   1  18
HETATM   18  C   UNL     1     -45.317  59.064 -57.040  1.00  0.00     0.081 C 
HETATM   19  C   UNL     1     -45.140  60.274 -57.961  1.00  0.00     0.032 C 
HETATM   20  C   UNL     1     -46.629  58.330 -57.329  1.00  0.00     0.032 C 
ENDBRANCH   1  18
BRANCH   1  21
HETATM   21  C   UNL     1     -43.494  57.957 -58.350  1.00  0.00     0.166 C 
BRANCH  21  22
HETATM   22  C   UNL     1     -44.050  56.806 -59.163  1.00  0.00    -0.040 A 
HETATM   23  C   UNL     1     -44.964  57.094 -60.191  1.00  0.00     0.009 A 
HETATM   24  C   UNL     1     -45.526  56.071 -60.959  1.00  0.00     0.001 A 
HETATM   25  C   UNL     1     -45.183  54.745 -60.711  1.00  0.00     0.000 A 
HETATM   26  C   UNL     1     -44.276  54.442 -59.700  1.00  0.00     0.001 A 
HETATM   27  C   UNL     1     -43.713  55.463 -58.933  1.00  0.00     0.009 A 
ENDBRANCH  21  22
ENDBRANCH   1  21
TORSDOF 5
ENDMDL
MODEL 6
REMARK VINA RESULT:      -7.2      1.739      3.075
REMARK  5 active torsions:
REMARK  status: ('A' for Active; 'I' for Inactive)
REMARK    1  A    between atoms: C_2  and  N_4 
REMARK    2  A    between atoms: N_4  and  C_5 
REMARK       I    between atoms: N_4  and  C_12 
REMARK    3  A    between atoms: C_5  and  C_6 
REMARK       I    between atoms: C_12  and  N_14 
REMARK    4  A    between atoms: N_14  and  C_15 
REMARK    5  A    between atoms: C_18  and  C_21 
ROOT
HETATM    1  N   UNL     1     -42.987  58.837 -51.465  1.00  0.00    -0.326 N 
HETATM    2  C   UNL     1     -42.875  57.443 -51.567  1.00  0.00     0.323 C 
HETATM    3  O   UNL     1     -43.815  56.697 -51.310  1.00  0.00    -0.247 OA
HETATM    4  N   UNL     1     -41.628  57.000 -51.957  1.00  0.00    -0.309 N 
HETATM    5  H   UNL     1     -40.860  57.623 -51.759  1.00  0.00     0.170 HD
ENDROOT
BRANCH   4   6
HETATM    6  C   UNL     1     -41.266  55.691 -52.334  1.00  0.00     0.036 A 
HETATM    7  C   UNL     1     -41.073  55.290 -53.656  1.00  0.00     0.030 A 
HETATM    8  C   UNL     1     -40.695  53.974 -53.952  1.00  0.00     0.014 A 
HETATM    9  C   UNL     1     -40.497  53.035 -52.933  1.00  0.00    -0.023 A 
HETATM   10  C   UNL     1     -40.676  53.445 -51.607  1.00  0.00     0.014 A 
HETATM   11  C   UNL     1     -41.055  54.761 -51.311  1.00  0.00     0.030 A 
BRANCH   9  12
HETATM   12  C   UNL     1     -40.105  51.668 -53.232  1.00  0.00     0.010 A 
HETATM   13  C   UNL     1     -39.611  50.640 -52.394  1.00  0.00     0.152 A 
HETATM   14  N   UNL     1     -39.379  49.500 -53.051  1.00  0.00    -0.187 NA
HETATM   15  N   UNL     1     -39.726  49.791 -54.314  1.00  0.00    -0.289 N 
HETATM   16  H   UNL     1     -39.641  49.065 -55.017  1.00  0.00     0.188 HD
HETATM   17  C   UNL     1     -40.168  51.073 -54.475  1.00  0.00     0.123 A 
ENDBRANCH   9  12
ENDBRANCH   4   6
BRANCH   1  18
HETATM   18  C   UNL     1     -44.239  59.441 -50.966  1.00  0.00     0.081 C 
HETATM   19  C   UNL     1     -44.003  60.786 -50.275  1.00  0.00     0.032 C 
HETATM   20  C   UNL     1     -45.326  59.546 -52.039  1.00  0.00     0.032 C 
ENDBRANCH   1  18
BRANCH   1  21
HETATM   21  C   UNL     1     -42.004  59.759 -52.047  1.00  0.00     0.166 C 
BRANCH  21  22
HETATM   22  C   UNL     1     -42.295  60.200 -53.466  1.00  0.00    -0.040 A 
HETATM   23  C   UNL     1     -41.895  59.363 -54.522  1.00  0.00     0.009 A 
HETATM   24  C   UNL     1     -42.117  59.729 -55.852  1.00  0.00     0.001 A 
HETATM   25  C   UNL     1     -42.741  60.938 -56.147  1.00  0.00     0.000 A 
HETATM   26  C   UNL     1     -43.147  61.778 -55.114  1.00  0.00     0.001 A 
HETATM   27  C   UNL     1     -42.927  61.412 -53.785  1.00  0.00     0.009 A 
ENDBRANCH  21  22
ENDBRANCH   1  21
TORSDOF 5
ENDMDL
MODEL 7
REMARK VINA RESULT:      -7.2      1.685      2.181
REMARK  5 active torsions:
REMARK  status: ('A' for Active; 'I' for Inactive)
REMARK    1  A    between atoms: C_2  and  N_4 
REMARK    2  A    between atoms: N_4  and  C_5 
REMARK       I    between atoms: N_4  and  C_12 
REMARK    3  A    between atoms: C_5  and  C_6 
REMARK       I    between atoms: C_12  and  N_14 
REMARK    4  A    between atoms: N_14  and  C_15 
REMARK    5  A    between atoms: C_18  and  C_21 
ROOT
HETATM    1  N   UNL     1     -42.343  58.694 -55.624  1.00  0.00    -0.326 N 
HETATM    2  C   UNL     1     -42.207  57.299 -55.613  1.00  0.00     0.323 C 
HETATM    3  O   UNL     1     -42.431  56.618 -56.610  1.00  0.00    -0.247 OA
HETATM    4  N   UNL     1     -41.823  56.774 -54.397  1.00  0.00    -0.309 N 
HETATM    5  H   UNL     1     -42.048  57.334 -53.588  1.00  0.00     0.170 HD
ENDROOT
BRANCH   4   6
HETATM    6  C   UNL     1     -41.417  55.452 -54.126  1.00  0.00     0.036 A 
HETATM    7  C   UNL     1     -41.891  54.700 -53.053  1.00  0.00     0.030 A 
HETATM    8  C   UNL     1     -41.453  53.383 -52.858  1.00  0.00     0.014 A 
HETATM    9  C   UNL     1     -40.538  52.791 -53.736  1.00  0.00    -0.023 A 
HETATM   10  C   UNL     1     -40.077  53.544 -54.822  1.00  0.00     0.014 A 
HETATM   11  C   UNL     1     -40.514  54.861 -55.016  1.00  0.00     0.030 A 
BRANCH   9  12
HETATM   12  C   UNL     1     -40.079  51.426 -53.542  1.00  0.00     0.010 A 
HETATM   13  C   UNL     1     -39.907  50.365 -54.463  1.00  0.00     0.152 A 
HETATM   14  N   UNL     1     -39.442  49.250 -53.890  1.00  0.00    -0.187 NA
HETATM   15  N   UNL     1     -39.312  49.593 -52.600  1.00  0.00    -0.289 N 
HETATM   16  H   UNL     1     -38.962  48.898 -51.949  1.00  0.00     0.188 HD
HETATM   17  C   UNL     1     -39.678  50.882 -52.339  1.00  0.00     0.123 A 
ENDBRANCH   9  12
ENDBRANCH   4   6
BRANCH   1  18
HETATM   18  C   UNL     1     -42.841  59.376 -56.837  1.00  0.00     0.081 C 
HETATM   19  C   UNL     1     -44.350  59.628 -56.786  1.00  0.00     0.032 C 
HETATM   20  C   UNL     1     -42.071  60.658 -57.164  1.00  0.00     0.032 C 
ENDBRANCH   1  18
BRANCH   1  21
HETATM   21  C   UNL     1     -41.801  59.555 -54.567  1.00  0.00     0.166 C 
BRANCH  21  22
HETATM   22  C   UNL     1     -42.832  60.178 -53.649  1.00  0.00    -0.040 A 
HETATM   23  C   UNL     1     -42.780  61.565 -53.429  1.00  0.00     0.009 A 
HETATM   24  C   UNL     1     -43.691  62.191 -52.576  1.00  0.00     0.001 A 
HETATM   25  C   UNL     1     -44.669  61.440 -51.929  1.00  0.00     0.000 A 
HETATM   26  C   UNL     1     -44.738  60.066 -52.138  1.00  0.00     0.001 A 
HETATM   27  C   UNL     1     -43.828  59.440 -52.992  1.00  0.00     0.009 A 
ENDBRANCH  21  22
ENDBRANCH   1  21
TORSDOF 5
ENDMDL
MODEL 8
REMARK VINA RESULT:      -7.1      3.404      6.451
REMARK  5 active torsions:
REMARK  status: ('A' for Active; 'I' for Inactive)
REMARK    1  A    between atoms: C_2  and  N_4 
REMARK    2  A    between atoms: N_4  and  C_5 
REMARK       I    between atoms: N_4  and  C_12 
REMARK    3  A    between atoms: C_5  and  C_6 
REMARK       I    between atoms: C_12  and  N_14 
REMARK    4  A    between atoms: N_14  and  C_15 
REMARK    5  A    between atoms: C_18  and  C_21 
ROOT
HETATM    1  N   UNL     1     -41.763  58.503 -52.085  1.00  0.00    -0.326 N 
HETATM    2  C   UNL     1     -41.921  58.437 -53.476  1.00  0.00     0.323 C 
HETATM    3  O   UNL     1     -41.216  59.091 -54.239  1.00  0.00    -0.247 OA
HETATM    4  N   UNL     1     -42.933  57.600 -53.895  1.00  0.00    -0.309 N 
HETATM    5  H   UNL     1     -43.671  57.438 -53.226  1.00  0.00     0.170 HD
ENDROOT
BRANCH   4   6
HETATM    6  C   UNL     1     -43.203  57.177 -55.212  1.00  0.00     0.036 A 
HETATM    7  C   UNL     1     -42.578  56.090 -55.820  1.00  0.00     0.030 A 
HETATM    8  C   UNL     1     -42.912  55.718 -57.129  1.00  0.00     0.014 A 
HETATM    9  C   UNL     1     -43.883  56.421 -57.852  1.00  0.00    -0.023 A 
HETATM   10  C   UNL     1     -44.520  57.502 -57.231  1.00  0.00     0.014 A 
HETATM   11  C   UNL     1     -44.185  57.874 -55.923  1.00  0.00     0.030 A 
BRANCH   9  12
HETATM   12  C   UNL     1     -44.236  56.042 -59.209  1.00  0.00     0.010 A 
HETATM   13  C   UNL     1     -44.364  54.768 -59.814  1.00  0.00     0.152 A 
HETATM   14  N   UNL     1     -44.727  54.836 -61.098  1.00  0.00    -0.187 NA
HETATM   15  N   UNL     1     -44.837  56.155 -61.322  1.00  0.00    -0.289 N 
HETATM   16  H   UNL     1     -45.113  56.465 -62.247  1.00  0.00     0.188 HD
HETATM   17  C   UNL     1     -44.555  56.918 -60.226  1.00  0.00     0.123 A 
ENDBRANCH   9  12
ENDBRANCH   4   6
BRANCH   1  18
HETATM   18  C   UNL     1     -40.777  59.435 -51.498  1.00  0.00     0.081 C 
HETATM   19  C   UNL     1     -41.188  59.918 -50.105  1.00  0.00     0.032 C 
HETATM   20  C   UNL     1     -39.350  58.880 -51.500  1.00  0.00     0.032 C 
ENDBRANCH   1  18
BRANCH   1  21
HETATM   21  C   UNL     1     -42.364  57.527 -51.168  1.00  0.00     0.166 C 
BRANCH  21  22
HETATM   22  C   UNL     1     -41.601  56.227 -51.019  1.00  0.00    -0.040 A 
HETATM   23  C   UNL     1     -41.018  55.932 -49.775  1.00  0.00     0.009 A 
HETATM   24  C   UNL     1     -40.285  54.759 -49.586  1.00  0.00     0.001 A 
HETATM   25  C   UNL     1     -40.122  53.861 -50.638  1.00  0.00     0.000 A 
HETATM   26  C   UNL     1     -40.696  54.135 -51.876  1.00  0.00     0.001 A 
HETATM   27  C   UNL     1     -41.430  55.307 -52.065  1.00  0.00     0.009 A 
ENDBRANCH  21  22
ENDBRANCH   1  21
TORSDOF 5
ENDMDL
MODEL 9
REMARK VINA RESULT:      -7.0      3.295      6.432
REMARK  5 active torsions:
REMARK  status: ('A' for Active; 'I' for Inactive)
REMARK    1  A    between atoms: C_2  and  N_4 
REMARK    2  A    between atoms: N_4  and  C_5 
REMARK       I    between atoms: N_4  and  C_12 
REMARK    3  A    between atoms: C_5  and  C_6 
REMARK       I    between atoms: C_12  and  N_14 
REMARK    4  A    between atoms: N_14  and  C_15 
REMARK    5  A    between atoms: C_18  and  C_21 
ROOT
HETATM    1  N   UNL     1     -40.893  54.673 -51.559  1.00  0.00    -0.326 N 
HETATM    2  C   UNL     1     -40.986  54.683 -52.958  1.00  0.00     0.323 C 
HETATM    3  O   UNL     1     -40.363  53.888 -53.654  1.00  0.00    -0.247 OA
HETATM    4  N   UNL     1     -41.813  55.664 -53.465  1.00  0.00    -0.309 N 
HETATM    5  H   UNL     1     -41.946  56.472 -52.876  1.00  0.00     0.170 HD
ENDROOT
BRANCH   4   6
HETATM    6  C   UNL     1     -42.260  55.801 -54.795  1.00  0.00     0.036 A 
HETATM    7  C   UNL     1     -42.122  56.970 -55.542  1.00  0.00     0.030 A 
HETATM    8  C   UNL     1     -42.575  57.025 -56.866  1.00  0.00     0.014 A 
HETATM    9  C   UNL     1     -43.169  55.912 -57.471  1.00  0.00    -0.023 A 
HETATM   10  C   UNL     1     -43.291  54.735 -56.723  1.00  0.00     0.014 A 
HETATM   11  C   UNL     1     -42.838  54.680 -55.399  1.00  0.00     0.030 A 
BRANCH   9  12
HETATM   12  C   UNL     1     -43.642  55.961 -58.845  1.00  0.00     0.010 A 
HETATM   13  C   UNL     1     -43.978  54.924 -59.748  1.00  0.00     0.152 A 
HETATM   14  N   UNL     1     -44.394  55.381 -60.932  1.00  0.00    -0.187 NA
HETATM   15  N   UNL     1     -44.330  56.714 -60.793  1.00  0.00    -0.289 N 
HETATM   16  H   UNL     1     -44.608  57.295 -61.577  1.00  0.00     0.188 HD
HETATM   17  C   UNL     1     -43.888  57.112 -59.564  1.00  0.00     0.123 A 
ENDBRANCH   9  12
ENDBRANCH   4   6
BRANCH   1  18
HETATM   18  C   UNL     1     -39.967  53.735 -50.889  1.00  0.00     0.081 C 
HETATM   19  C   UNL     1     -39.491  54.256 -49.531  1.00  0.00     0.032 C 
HETATM   20  C   UNL     1     -40.527  52.315 -50.779  1.00  0.00     0.032 C 
ENDBRANCH   1  18
BRANCH   1  21
HETATM   21  C   UNL     1     -41.837  55.388 -50.693  1.00  0.00     0.166 C 
BRANCH  21  22
HETATM   22  C   UNL     1     -41.781  56.899 -50.788  1.00  0.00    -0.040 A 
HETATM   23  C   UNL     1     -42.948  57.590 -51.155  1.00  0.00     0.009 A 
HETATM   24  C   UNL     1     -42.950  58.981 -51.280  1.00  0.00     0.001 A 
HETATM   25  C   UNL     1     -41.785  59.704 -51.039  1.00  0.00     0.000 A 
HETATM   26  C   UNL     1     -40.620  59.037 -50.670  1.00  0.00     0.001 A 
HETATM   27  C   UNL     1     -40.618  57.646 -50.545  1.00  0.00     0.009 A 
ENDBRANCH  21  22
ENDBRANCH   1  21
TORSDOF 5
ENDMDL
MODEL 10
REMARK VINA RESULT:      -6.9      1.619      2.182
REMARK  5 active torsions:
REMARK  status: ('A' for Active; 'I' for Inactive)
REMARK    1  A    between atoms: C_2  and  N_4 
REMARK    2  A    between atoms: N_4  and  C_5 
REMARK       I    between atoms: N_4  and  C_12 
REMARK    3  A    between atoms: C_5  and  C_6 
REMARK       I    between atoms: C_12  and  N_14 
REMARK    4  A    between atoms: N_14  and  C_15 
REMARK    5  A    between atoms: C_18  and  C_21 
ROOT
HETATM    1  N   UNL     1     -42.866  59.205 -53.592  1.00  0.00    -0.326 N 
HETATM    2  C   UNL     1     -42.645  57.888 -54.018  1.00  0.00     0.323 C 
HETATM    3  O   UNL     1     -42.872  57.533 -55.171  1.00  0.00    -0.247 OA
HETATM    4  N   UNL     1     -42.175  57.043 -53.034  1.00  0.00    -0.309 N 
HETATM    5  H   UNL     1     -42.397  57.308 -52.087  1.00  0.00     0.170 HD
ENDROOT
BRANCH   4   6
HETATM    6  C   UNL     1     -41.678  55.734 -53.197  1.00  0.00     0.036 A 
HETATM    7  C   UNL     1     -40.843  55.347 -54.244  1.00  0.00     0.030 A 
HETATM    8  C   UNL     1     -40.373  54.030 -54.330  1.00  0.00     0.014 A 
HETATM    9  C   UNL     1     -40.723  53.077 -53.367  1.00  0.00    -0.023 A 
HETATM   10  C   UNL     1     -41.548  53.473 -52.308  1.00  0.00     0.014 A 
HETATM   11  C   UNL     1     -42.019  54.790 -52.223  1.00  0.00     0.030 A 
BRANCH   9  12
HETATM   12  C   UNL     1     -40.240  51.708 -53.448  1.00  0.00     0.010 A 
HETATM   13  C   UNL     1     -40.290  50.767 -54.505  1.00  0.00     0.152 A 
HETATM   14  N   UNL     1     -39.713  49.603 -54.191  1.00  0.00    -0.187 NA
HETATM   15  N   UNL     1     -39.289  49.794 -52.932  1.00  0.00    -0.289 N 
HETATM   16  H   UNL     1     -38.805  49.034 -52.467  1.00  0.00     0.188 HD
HETATM   17  C   UNL     1     -39.578  51.035 -52.443  1.00  0.00     0.123 A 
ENDBRANCH   9  12
ENDBRANCH   4   6
BRANCH   1  18
HETATM   18  C   UNL     1     -43.459  60.190 -54.520  1.00  0.00     0.081 C 
HETATM   19  C   UNL     1     -44.989  60.168 -54.495  1.00  0.00     0.032 C 
HETATM   20  C   UNL     1     -42.916  61.607 -54.319  1.00  0.00     0.032 C 
ENDBRANCH   1  18
BRANCH   1  21
HETATM   21  C   UNL     1     -42.329  59.735 -52.333  1.00  0.00     0.166 C 
BRANCH  21  22
HETATM   22  C   UNL     1     -43.364  60.058 -51.275  1.00  0.00    -0.040 A 
HETATM   23  C   UNL     1     -44.480  59.212 -51.151  1.00  0.00     0.009 A 
HETATM   24  C   UNL     1     -45.477  59.473 -50.208  1.00  0.00     0.001 A 
HETATM   25  C   UNL     1     -45.374  60.584 -49.375  1.00  0.00     0.000 A 
HETATM   26  C   UNL     1     -44.274  61.430 -49.482  1.00  0.00     0.001 A 
HETATM   27  C   UNL     1     -43.277  61.169 -50.423  1.00  0.00     0.009 A 
ENDBRANCH  21  22
ENDBRANCH   1  21
TORSDOF 5
ENDMDL
