MODEL 1
REMARK VINA RESULT:      -9.0      0.000      0.000
REMARK  3 active torsions:
REMARK  status: ('A' for Active; 'I' for Inactive)
REMARK    1  A    between atoms: C_7  and  C_8 
REMARK    2  A    between atoms: N_9  and  C_11 
REMARK    3  A    between atoms: C_11  and  C_12 
ROOT
HETATM    1  C   UNL     1     -41.180  55.839 -54.166  1.00  0.00     0.238 C 
HETATM    2  N   UNL     1     -42.476  56.063 -54.932  1.00  0.00    -0.056 N 
HETATM    3  H   UNL     1     -42.448  57.049 -55.214  1.00  0.00     0.281 HD
HETATM    4  C   UNL     1     -43.731  55.913 -54.110  1.00  0.00     0.236 C 
HETATM    5  C   UNL     1     -43.675  56.818 -52.891  1.00  0.00     0.028 C 
HETATM    6  C   UNL     1     -42.436  56.559 -52.049  1.00  0.00     0.004 C 
HETATM    7  C   UNL     1     -41.172  56.689 -52.889  1.00  0.00     0.040 C 
ENDROOT
BRANCH   2   8
HETATM    8  C   UNL     1     -42.579  55.280 -56.227  1.00  0.00     0.295 C 
BRANCH   8   9
HETATM    9  C   UNL     1     -42.851  56.138 -57.395  1.00  0.00     0.077 A 
HETATM   10  N   UNL     1     -43.533  55.743 -58.535  1.00  0.00    -0.155 N 
HETATM   11  C   UNL     1     -43.503  56.822 -59.422  1.00  0.00     0.732 A 
HETATM   12  C   UNL     1     -44.148  54.541 -58.872  1.00  0.00     0.117 A 
HETATM   13  N   UNL     1     -44.047  56.724 -60.668  1.00  0.00    -0.074 NA
HETATM   14  N   UNL     1     -42.899  57.850 -58.870  1.00  0.00    -0.072 NA
HETATM   15  C   UNL     1     -44.622  55.600 -60.963  1.00  0.00     0.138 A 
HETATM   16  C   UNL     1     -44.719  54.407 -60.078  1.00  0.00     0.038 A 
HETATM   17  C   UNL     1     -42.543  57.465 -57.616  1.00  0.00     0.164 A 
ENDBRANCH   8   9
ENDBRANCH   2   8
BRANCH   1  18
HETATM   18  C   UNL     1     -40.846  54.401 -53.922  1.00  0.00     0.041 A 
HETATM   19  N   UNL     1     -40.533  53.957 -52.651  1.00  0.00    -0.357 N 
HETATM   20  C   UNL     1     -40.178  52.629 -52.673  1.00  0.00     0.042 A 
HETATM   21  H   UNL     1     -40.531  54.517 -51.805  1.00  0.00     0.166 HD
HETATM   22  C   UNL     1     -40.347  52.180 -53.979  1.00  0.00    -0.008 A 
HETATM   23  C   UNL     1     -39.742  51.795 -51.638  1.00  0.00     0.030 A 
HETATM   24  C   UNL     1     -40.075  50.832 -54.276  1.00  0.00     0.014 A 
HETATM   25  C   UNL     1     -40.792  53.290 -54.746  1.00  0.00     0.040 A 
HETATM   26  C   UNL     1     -39.634  49.983 -53.255  1.00  0.00     0.001 A 
HETATM   27  C   UNL     1     -39.469  50.461 -51.956  1.00  0.00     0.002 A 
ENDBRANCH   1  18
TORSDOF 3
ENDMDL
MODEL 2
REMARK VINA RESULT:      -9.0      1.676      7.096
REMARK  3 active torsions:
REMARK  status: ('A' for Active; 'I' for Inactive)
REMARK    1  A    between atoms: C_7  and  C_8 
REMARK    2  A    between atoms: N_9  and  C_11 
REMARK    3  A    between atoms: C_11  and  C_12 
ROOT
HETATM    1  C   UNL     1     -43.331  55.946 -53.870  1.00  0.00     0.238 C 
HETATM    2  N   UNL     1     -42.074  55.658 -53.063  1.00  0.00    -0.056 N 
HETATM    3  H   UNL     1     -42.407  55.180 -52.218  1.00  0.00     0.281 HD
HETATM    4  C   UNL     1     -41.341  56.881 -52.574  1.00  0.00     0.236 C 
HETATM    5  C   UNL     1     -42.279  57.780 -51.787  1.00  0.00     0.028 C 
HETATM    6  C   UNL     1     -43.508  58.165 -52.595  1.00  0.00     0.004 C 
HETATM    7  C   UNL     1     -44.232  56.926 -53.106  1.00  0.00     0.040 C 
ENDROOT
BRANCH   2   8
HETATM    8  C   UNL     1     -41.119  54.681 -53.723  1.00  0.00     0.295 C 
BRANCH   8   9
HETATM    9  C   UNL     1     -40.592  53.672 -52.785  1.00  0.00     0.077 A 
HETATM   10  N   UNL     1     -40.273  52.365 -53.113  1.00  0.00    -0.155 N 
HETATM   11  C   UNL     1     -39.887  51.729 -51.931  1.00  0.00     0.732 A 
HETATM   12  C   UNL     1     -40.310  51.683 -54.326  1.00  0.00     0.117 A 
HETATM   13  N   UNL     1     -39.564  50.406 -51.916  1.00  0.00    -0.074 NA
HETATM   14  N   UNL     1     -39.900  52.581 -50.930  1.00  0.00    -0.072 NA
HETATM   15  C   UNL     1     -39.597  49.788 -53.055  1.00  0.00     0.138 A 
HETATM   16  C   UNL     1     -39.977  50.385 -54.365  1.00  0.00     0.038 A 
HETATM   17  C   UNL     1     -40.278  53.781 -51.445  1.00  0.00     0.164 A 
ENDBRANCH   8   9
ENDBRANCH   2   8
BRANCH   1  18
HETATM   18  C   UNL     1     -43.077  56.357 -55.287  1.00  0.00     0.041 A 
HETATM   19  N   UNL     1     -43.485  55.555 -56.336  1.00  0.00    -0.357 N 
HETATM   20  C   UNL     1     -43.076  56.081 -57.538  1.00  0.00     0.042 A 
HETATM   21  H   UNL     1     -43.993  54.680 -56.258  1.00  0.00     0.166 HD
HETATM   22  C   UNL     1     -42.462  57.300 -57.266  1.00  0.00    -0.008 A 
HETATM   23  C   UNL     1     -43.221  55.583 -58.837  1.00  0.00     0.030 A 
HETATM   24  C   UNL     1     -41.969  58.068 -58.336  1.00  0.00     0.014 A 
HETATM   25  C   UNL     1     -42.493  57.475 -55.856  1.00  0.00     0.040 A 
HETATM   26  C   UNL     1     -42.101  57.584 -59.642  1.00  0.00     0.001 A 
HETATM   27  C   UNL     1     -42.717  56.358 -59.885  1.00  0.00     0.002 A 
ENDBRANCH   1  18
TORSDOF 3
ENDMDL
MODEL 3
REMARK VINA RESULT:      -8.8      2.211      3.138
REMARK  3 active torsions:
REMARK  status: ('A' for Active; 'I' for Inactive)
REMARK    1  A    between atoms: C_7  and  C_8 
REMARK    2  A    between atoms: N_9  and  C_11 
REMARK    3  A    between atoms: C_11  and  C_12 
ROOT
HETATM    1  C   UNL     1     -40.989  55.209 -51.263  1.00  0.00     0.238 C 
HETATM    2  N   UNL     1     -41.658  56.249 -52.151  1.00  0.00    -0.056 N 
HETATM    3  H   UNL     1     -41.570  57.131 -51.635  1.00  0.00     0.281 HD
HETATM    4  C   UNL     1     -43.137  56.046 -52.360  1.00  0.00     0.236 C 
HETATM    5  C   UNL     1     -43.852  55.957 -51.022  1.00  0.00     0.028 C 
HETATM    6  C   UNL     1     -43.269  54.864 -50.139  1.00  0.00     0.004 C 
HETATM    7  C   UNL     1     -41.770  55.060 -49.950  1.00  0.00     0.040 C 
ENDROOT
BRANCH   2   8
HETATM    8  C   UNL     1     -40.951  56.488 -53.472  1.00  0.00     0.295 C 
BRANCH   8   9
HETATM    9  C   UNL     1     -41.383  57.732 -54.136  1.00  0.00     0.077 A 
HETATM   10  N   UNL     1     -42.107  57.800 -55.315  1.00  0.00    -0.155 N 
HETATM   11  C   UNL     1     -42.238  59.153 -55.637  1.00  0.00     0.732 A 
HETATM   12  C   UNL     1     -42.633  56.804 -56.132  1.00  0.00     0.117 A 
HETATM   13  N   UNL     1     -42.859  59.547 -56.783  1.00  0.00    -0.074 NA
HETATM   14  N   UNL     1     -41.691  59.899 -54.703  1.00  0.00    -0.072 NA
HETATM   15  C   UNL     1     -43.350  58.607 -57.529  1.00  0.00     0.138 A 
HETATM   16  C   UNL     1     -43.274  57.145 -57.259  1.00  0.00     0.038 A 
HETATM   17  C   UNL     1     -41.212  59.048 -53.756  1.00  0.00     0.164 A 
ENDBRANCH   8   9
ENDBRANCH   2   8
BRANCH   1  18
HETATM   18  C   UNL     1     -40.713  53.903 -51.939  1.00  0.00     0.041 A 
HETATM   19  N   UNL     1     -40.302  52.804 -51.206  1.00  0.00    -0.357 N 
HETATM   20  C   UNL     1     -40.025  51.743 -52.035  1.00  0.00     0.042 A 
HETATM   21  H   UNL     1     -40.186  52.767 -50.200  1.00  0.00     0.166 HD
HETATM   22  C   UNL     1     -40.346  52.138 -53.330  1.00  0.00    -0.008 A 
HETATM   23  C   UNL     1     -39.537  50.468 -51.734  1.00  0.00     0.030 A 
HETATM   24  C   UNL     1     -40.180  51.220 -54.383  1.00  0.00     0.014 A 
HETATM   25  C   UNL     1     -40.802  53.482 -53.254  1.00  0.00     0.040 A 
HETATM   26  C   UNL     1     -39.689  49.940 -54.101  1.00  0.00     0.001 A 
HETATM   27  C   UNL     1     -39.371  49.573 -52.795  1.00  0.00     0.002 A 
ENDBRANCH   1  18
TORSDOF 3
ENDMDL
MODEL 4
REMARK VINA RESULT:      -8.4      1.386      1.708
REMARK  3 active torsions:
REMARK  status: ('A' for Active; 'I' for Inactive)
REMARK    1  A    between atoms: C_7  and  C_8 
REMARK    2  A    between atoms: N_9  and  C_11 
REMARK    3  A    between atoms: C_11  and  C_12 
ROOT
HETATM    1  C   UNL     1     -41.481  57.114 -53.881  1.00  0.00     0.238 C 
HETATM    2  N   UNL     1     -42.979  57.348 -54.000  1.00  0.00    -0.056 N 
HETATM    3  H   UNL     1     -43.070  58.329 -54.287  1.00  0.00     0.281 HD
HETATM    4  C   UNL     1     -43.744  57.232 -52.705  1.00  0.00     0.236 C 
HETATM    5  C   UNL     1     -43.147  58.155 -51.656  1.00  0.00     0.028 C 
HETATM    6  C   UNL     1     -41.666  57.888 -51.442  1.00  0.00     0.004 C 
HETATM    7  C   UNL     1     -40.901  57.984 -52.757  1.00  0.00     0.040 C 
ENDROOT
BRANCH   2   8
HETATM    8  C   UNL     1     -43.650  56.547 -55.100  1.00  0.00     0.295 C 
BRANCH   8   9
HETATM    9  C   UNL     1     -43.995  57.366 -56.276  1.00  0.00     0.077 A 
HETATM   10  N   UNL     1     -43.750  57.016 -57.594  1.00  0.00    -0.155 N 
HETATM   11  C   UNL     1     -44.155  58.093 -58.386  1.00  0.00     0.732 A 
HETATM   12  C   UNL     1     -43.193  55.870 -58.155  1.00  0.00     0.117 A 
HETATM   13  N   UNL     1     -43.988  58.075 -59.737  1.00  0.00    -0.074 NA
HETATM   14  N   UNL     1     -44.676  59.039 -57.636  1.00  0.00    -0.072 NA
HETATM   15  C   UNL     1     -43.475  56.998 -60.244  1.00  0.00     0.138 A 
HETATM   16  C   UNL     1     -43.031  55.797 -59.484  1.00  0.00     0.038 A 
HETATM   17  C   UNL     1     -44.633  58.588 -56.354  1.00  0.00     0.164 A 
ENDBRANCH   8   9
ENDBRANCH   2   8
BRANCH   1  18
HETATM   18  C   UNL     1     -41.084  55.674 -53.779  1.00  0.00     0.041 A 
HETATM   19  N   UNL     1     -40.964  55.063 -52.544  1.00  0.00    -0.357 N 
HETATM   20  C   UNL     1     -40.510  53.773 -52.683  1.00  0.00     0.042 A 
HETATM   21  H   UNL     1     -41.152  55.491 -51.644  1.00  0.00     0.166 HD
HETATM   22  C   UNL     1     -40.415  53.515 -54.047  1.00  0.00    -0.008 A 
HETATM   23  C   UNL     1     -40.198  52.818 -51.710  1.00  0.00     0.030 A 
HETATM   24  C   UNL     1     -39.994  52.241 -54.471  1.00  0.00     0.014 A 
HETATM   25  C   UNL     1     -40.804  54.702 -54.723  1.00  0.00     0.040 A 
HETATM   26  C   UNL     1     -39.673  51.274 -53.512  1.00  0.00     0.001 A 
HETATM   27  C   UNL     1     -39.773  51.561 -52.153  1.00  0.00     0.002 A 
ENDBRANCH   1  18
TORSDOF 3
ENDMDL
MODEL 5
REMARK VINA RESULT:      -8.2      2.075      6.682
REMARK  3 active torsions:
REMARK  status: ('A' for Active; 'I' for Inactive)
REMARK    1  A    between atoms: C_7  and  C_8 
REMARK    2  A    between atoms: N_9  and  C_11 
REMARK    3  A    between atoms: C_11  and  C_12 
ROOT
HETATM    1  C   UNL     1     -43.640  58.065 -54.158  1.00  0.00     0.238 C 
HETATM    2  N   UNL     1     -42.516  58.679 -53.335  1.00  0.00    -0.056 N 
HETATM    3  H   UNL     1     -42.805  58.551 -52.359  1.00  0.00     0.281 HD
HETATM    4  C   UNL     1     -42.340  60.166 -53.515  1.00  0.00     0.236 C 
HETATM    5  C   UNL     1     -43.649  60.889 -53.245  1.00  0.00     0.028 C 
HETATM    6  C   UNL     1     -44.778  60.363 -54.115  1.00  0.00     0.004 C 
HETATM    7  C   UNL     1     -44.937  58.857 -53.948  1.00  0.00     0.040 C 
ENDROOT
BRANCH   2   8
HETATM    8  C   UNL     1     -41.187  57.957 -53.457  1.00  0.00     0.295 C 
BRANCH   8   9
HETATM    9  C   UNL     1     -41.201  56.623 -52.829  1.00  0.00     0.077 A 
HETATM   10  N   UNL     1     -40.878  55.436 -53.467  1.00  0.00    -0.155 N 
HETATM   11  C   UNL     1     -41.094  54.407 -52.548  1.00  0.00     0.732 A 
HETATM   12  C   UNL     1     -40.442  55.174 -54.762  1.00  0.00     0.117 A 
HETATM   13  N   UNL     1     -40.917  53.102 -52.897  1.00  0.00    -0.074 NA
HETATM   14  N   UNL     1     -41.470  54.901 -51.389  1.00  0.00    -0.072 NA
HETATM   15  C   UNL     1     -40.503  52.876 -54.105  1.00  0.00     0.138 A 
HETATM   16  C   UNL     1     -40.231  53.906 -55.145  1.00  0.00     0.038 A 
HETATM   17  C   UNL     1     -41.490  56.253 -51.531  1.00  0.00     0.164 A 
ENDBRANCH   8   9
ENDBRANCH   2   8
BRANCH   1  18
HETATM   18  C   UNL     1     -43.305  57.849 -55.601  1.00  0.00     0.041 A 
HETATM   19  N   UNL     1     -43.681  56.684 -56.244  1.00  0.00    -0.357 N 
HETATM   20  C   UNL     1     -43.199  56.661 -57.531  1.00  0.00     0.042 A 
HETATM   21  H   UNL     1     -44.215  55.922 -55.838  1.00  0.00     0.166 HD
HETATM   22  C   UNL     1     -42.567  57.881 -57.754  1.00  0.00    -0.008 A 
HETATM   23  C   UNL     1     -43.292  55.668 -58.511  1.00  0.00     0.030 A 
HETATM   24  C   UNL     1     -42.002  58.133 -59.018  1.00  0.00     0.014 A 
HETATM   25  C   UNL     1     -42.664  58.627 -56.549  1.00  0.00     0.040 A 
HETATM   26  C   UNL     1     -42.081  57.150 -60.009  1.00  0.00     0.001 A 
HETATM   27  C   UNL     1     -42.716  55.936 -59.757  1.00  0.00     0.002 A 
ENDBRANCH   1  18
TORSDOF 3
ENDMDL
MODEL 6
REMARK VINA RESULT:      -8.1      1.639      2.615
REMARK  3 active torsions:
REMARK  status: ('A' for Active; 'I' for Inactive)
REMARK    1  A    between atoms: C_7  and  C_8 
REMARK    2  A    between atoms: N_9  and  C_11 
REMARK    3  A    between atoms: C_11  and  C_12 
ROOT
HETATM    1  C   UNL     1     -41.544  56.878 -53.445  1.00  0.00     0.238 C 
HETATM    2  N   UNL     1     -43.059  57.014 -53.515  1.00  0.00    -0.056 N 
HETATM    3  H   UNL     1     -43.221  57.919 -53.971  1.00  0.00     0.281 HD
HETATM    4  C   UNL     1     -43.748  57.105 -52.177  1.00  0.00     0.236 C 
HETATM    5  C   UNL     1     -43.154  58.234 -51.352  1.00  0.00     0.028 C 
HETATM    6  C   UNL     1     -41.651  58.083 -51.183  1.00  0.00     0.004 C 
HETATM    7  C   UNL     1     -40.961  57.969 -52.537  1.00  0.00     0.040 C 
ENDROOT
BRANCH   2   8
HETATM    8  C   UNL     1     -43.736  55.991 -54.407  1.00  0.00     0.295 C 
BRANCH   8   9
HETATM    9  C   UNL     1     -43.538  56.262 -55.843  1.00  0.00     0.077 A 
HETATM   10  N   UNL     1     -44.071  57.337 -56.534  1.00  0.00    -0.155 N 
HETATM   11  C   UNL     1     -43.712  57.180 -57.874  1.00  0.00     0.732 A 
HETATM   12  C   UNL     1     -44.848  58.412 -56.111  1.00  0.00     0.117 A 
HETATM   13  N   UNL     1     -44.138  58.058 -58.825  1.00  0.00    -0.074 NA
HETATM   14  N   UNL     1     -42.955  56.115 -58.022  1.00  0.00    -0.072 NA
HETATM   15  C   UNL     1     -44.854  59.057 -58.413  1.00  0.00     0.138 A 
HETATM   16  C   UNL     1     -45.270  59.315 -57.007  1.00  0.00     0.038 A 
HETATM   17  C   UNL     1     -42.799  55.575 -56.784  1.00  0.00     0.164 A 
ENDBRANCH   8   9
ENDBRANCH   2   8
BRANCH   1  18
HETATM   18  C   UNL     1     -41.060  55.503 -53.105  1.00  0.00     0.041 A 
HETATM   19  N   UNL     1     -40.674  54.626 -54.102  1.00  0.00    -0.357 N 
HETATM   20  C   UNL     1     -40.349  53.400 -53.572  1.00  0.00     0.042 A 
HETATM   21  H   UNL     1     -40.650  54.824 -55.096  1.00  0.00     0.166 HD
HETATM   22  C   UNL     1     -40.446  53.512 -52.188  1.00  0.00    -0.008 A 
HETATM   23  C   UNL     1     -39.961  52.217 -54.208  1.00  0.00     0.030 A 
HETATM   24  C   UNL     1     -40.137  52.394 -51.392  1.00  0.00     0.014 A 
HETATM   25  C   UNL     1     -40.865  54.841 -51.906  1.00  0.00     0.040 A 
HETATM   26  C   UNL     1     -39.752  51.201 -52.011  1.00  0.00     0.001 A 
HETATM   27  C   UNL     1     -39.667  51.116 -53.399  1.00  0.00     0.002 A 
ENDBRANCH   1  18
TORSDOF 3
ENDMDL
MODEL 7
REMARK VINA RESULT:      -8.1      2.272      7.090
REMARK  3 active torsions:
REMARK  status: ('A' for Active; 'I' for Inactive)
REMARK    1  A    between atoms: C_7  and  C_8 
REMARK    2  A    between atoms: N_9  and  C_11 
REMARK    3  A    between atoms: C_11  and  C_12 
ROOT
HETATM    1  C   UNL     1     -41.434  55.916 -54.875  1.00  0.00     0.238 C 
HETATM    2  N   UNL     1     -42.355  55.624 -53.699  1.00  0.00    -0.056 N 
HETATM    3  H   UNL     1     -41.798  55.845 -52.867  1.00  0.00     0.281 HD
HETATM    4  C   UNL     1     -42.750  54.177 -53.549  1.00  0.00     0.236 C 
HETATM    5  C   UNL     1     -41.514  53.296 -53.483  1.00  0.00     0.028 C 
HETATM    6  C   UNL     1     -40.611  53.494 -54.690  1.00  0.00     0.004 C 
HETATM    7  C   UNL     1     -40.233  54.961 -54.850  1.00  0.00     0.040 C 
ENDROOT
BRANCH   2   8
HETATM    8  C   UNL     1     -43.570  56.529 -53.619  1.00  0.00     0.295 C 
BRANCH   8   9
HETATM    9  C   UNL     1     -43.233  57.905 -53.209  1.00  0.00     0.077 A 
HETATM   10  N   UNL     1     -42.411  58.244 -52.147  1.00  0.00    -0.155 N 
HETATM   11  C   UNL     1     -42.417  59.637 -52.054  1.00  0.00     0.732 A 
HETATM   12  C   UNL     1     -41.687  57.459 -51.254  1.00  0.00     0.117 A 
HETATM   13  N   UNL     1     -41.740  60.280 -51.062  1.00  0.00    -0.074 NA
HETATM   14  N   UNL     1     -43.142  60.156 -53.021  1.00  0.00    -0.072 NA
HETATM   15  C   UNL     1     -41.065  59.534 -50.243  1.00  0.00     0.138 A 
HETATM   16  C   UNL     1     -40.985  58.048 -50.275  1.00  0.00     0.038 A 
HETATM   17  C   UNL     1     -43.603  59.114 -53.763  1.00  0.00     0.164 A 
ENDBRANCH   8   9
ENDBRANCH   2   8
BRANCH   1  18
HETATM   18  C   UNL     1     -42.122  55.969 -56.203  1.00  0.00     0.041 A 
HETATM   19  N   UNL     1     -42.108  57.127 -56.957  1.00  0.00    -0.357 N 
HETATM   20  C   UNL     1     -42.868  56.978 -58.093  1.00  0.00     0.042 A 
HETATM   21  H   UNL     1     -41.635  57.992 -56.717  1.00  0.00     0.166 HD
HETATM   22  C   UNL     1     -43.316  55.660 -58.117  1.00  0.00    -0.008 A 
HETATM   23  C   UNL     1     -43.174  57.897 -59.101  1.00  0.00     0.030 A 
HETATM   24  C   UNL     1     -44.103  55.228 -59.200  1.00  0.00     0.014 A 
HETATM   25  C   UNL     1     -42.819  55.030 -56.943  1.00  0.00     0.040 A 
HETATM   26  C   UNL     1     -44.423  56.135 -60.216  1.00  0.00     0.001 A 
HETATM   27  C   UNL     1     -43.964  57.450 -60.164  1.00  0.00     0.002 A 
ENDBRANCH   1  18
TORSDOF 3
ENDMDL
MODEL 8
REMARK VINA RESULT:      -7.9      2.833      7.164
REMARK  3 active torsions:
REMARK  status: ('A' for Active; 'I' for Inactive)
REMARK    1  A    between atoms: C_7  and  C_8 
REMARK    2  A    between atoms: N_9  and  C_11 
REMARK    3  A    between atoms: C_11  and  C_12 
ROOT
HETATM    1  C   UNL     1     -41.777  56.347 -54.724  1.00  0.00     0.238 C 
HETATM    2  N   UNL     1     -42.845  56.190 -53.651  1.00  0.00    -0.056 N 
HETATM    3  H   UNL     1     -42.395  56.504 -52.784  1.00  0.00     0.281 HD
HETATM    4  C   UNL     1     -43.277  54.769 -53.392  1.00  0.00     0.236 C 
HETATM    5  C   UNL     1     -42.073  53.901 -53.070  1.00  0.00     0.028 C 
HETATM    6  C   UNL     1     -41.020  53.961 -54.164  1.00  0.00     0.004 C 
HETATM    7  C   UNL     1     -40.603  55.400 -54.439  1.00  0.00     0.040 C 
ENDROOT
BRANCH   2   8
HETATM    8  C   UNL     1     -44.047  57.099 -53.830  1.00  0.00     0.295 C 
BRANCH   8   9
HETATM    9  C   UNL     1     -44.574  57.608 -52.550  1.00  0.00     0.077 A 
HETATM   10  N   UNL     1     -45.183  58.839 -52.371  1.00  0.00    -0.155 N 
HETATM   11  C   UNL     1     -45.462  58.962 -51.007  1.00  0.00     0.732 A 
HETATM   12  C   UNL     1     -45.492  59.856 -53.270  1.00  0.00     0.117 A 
HETATM   13  N   UNL     1     -46.016  60.099 -50.502  1.00  0.00    -0.074 NA
HETATM   14  N   UNL     1     -45.111  57.868 -50.370  1.00  0.00    -0.072 NA
HETATM   15  C   UNL     1     -46.304  61.033 -51.354  1.00  0.00     0.138 A 
HETATM   16  C   UNL     1     -46.061  60.984 -52.822  1.00  0.00     0.038 A 
HETATM   17  C   UNL     1     -44.616  57.014 -51.305  1.00  0.00     0.164 A 
ENDBRANCH   8   9
ENDBRANCH   2   8
BRANCH   1  18
HETATM   18  C   UNL     1     -42.288  56.249 -56.127  1.00  0.00     0.041 A 
HETATM   19  N   UNL     1     -42.178  57.322 -56.993  1.00  0.00    -0.357 N 
HETATM   20  C   UNL     1     -42.786  57.042 -58.194  1.00  0.00     0.042 A 
HETATM   21  H   UNL     1     -41.739  58.213 -56.788  1.00  0.00     0.166 HD
HETATM   22  C   UNL     1     -43.227  55.723 -58.134  1.00  0.00    -0.008 A 
HETATM   23  C   UNL     1     -42.959  57.845 -59.325  1.00  0.00     0.030 A 
HETATM   24  C   UNL     1     -43.869  55.169 -59.256  1.00  0.00     0.014 A 
HETATM   25  C   UNL     1     -42.885  55.228 -56.846  1.00  0.00     0.040 A 
HETATM   26  C   UNL     1     -44.055  55.959 -60.395  1.00  0.00     0.001 A 
HETATM   27  C   UNL     1     -43.607  57.277 -60.426  1.00  0.00     0.002 A 
ENDBRANCH   1  18
TORSDOF 3
ENDMDL
MODEL 9
REMARK VINA RESULT:      -7.8      2.147      4.883
REMARK  3 active torsions:
REMARK  status: ('A' for Active; 'I' for Inactive)
REMARK    1  A    between atoms: C_7  and  C_8 
REMARK    2  A    between atoms: N_9  and  C_11 
REMARK    3  A    between atoms: C_11  and  C_12 
ROOT
HETATM    1  C   UNL     1     -42.998  55.606 -53.918  1.00  0.00     0.238 C 
HETATM    2  N   UNL     1     -42.222  55.566 -55.227  1.00  0.00    -0.056 N 
HETATM    3  H   UNL     1     -42.791  54.984 -55.852  1.00  0.00     0.281 HD
HETATM    4  C   UNL     1     -40.880  54.883 -55.147  1.00  0.00     0.236 C 
HETATM    5  C   UNL     1     -41.034  53.482 -54.581  1.00  0.00     0.028 C 
HETATM    6  C   UNL     1     -41.725  53.489 -53.227  1.00  0.00     0.004 C 
HETATM    7  C   UNL     1     -43.070  54.200 -53.308  1.00  0.00     0.040 C 
ENDROOT
BRANCH   2   8
HETATM    8  C   UNL     1     -42.107  56.908 -55.925  1.00  0.00     0.295 C 
BRANCH   8   9
HETATM    9  C   UNL     1     -43.332  57.278 -56.659  1.00  0.00     0.077 A 
HETATM   10  N   UNL     1     -43.708  56.773 -57.892  1.00  0.00    -0.155 N 
HETATM   11  C   UNL     1     -44.879  57.436 -58.266  1.00  0.00     0.732 A 
HETATM   12  C   UNL     1     -43.119  55.818 -58.716  1.00  0.00     0.117 A 
HETATM   13  N   UNL     1     -45.471  57.197 -59.469  1.00  0.00    -0.074 NA
HETATM   14  N   UNL     1     -45.258  58.263 -57.316  1.00  0.00    -0.072 NA
HETATM   15  C   UNL     1     -44.914  56.299 -60.221  1.00  0.00     0.138 A 
HETATM   16  C   UNL     1     -43.680  55.531 -59.900  1.00  0.00     0.038 A 
HETATM   17  C   UNL     1     -44.353  58.139 -56.309  1.00  0.00     0.164 A 
ENDBRANCH   8   9
ENDBRANCH   2   8
BRANCH   1  18
HETATM   18  C   UNL     1     -42.528  56.648 -52.951  1.00  0.00     0.041 A 
HETATM   19  N   UNL     1     -43.337  57.720 -52.624  1.00  0.00    -0.357 N 
HETATM   20  C   UNL     1     -42.676  58.591 -51.791  1.00  0.00     0.042 A 
HETATM   21  H   UNL     1     -44.280  57.882 -52.959  1.00  0.00     0.166 HD
HETATM   22  C   UNL     1     -41.438  58.025 -51.502  1.00  0.00    -0.008 A 
HETATM   23  C   UNL     1     -43.087  59.818 -51.260  1.00  0.00     0.030 A 
HETATM   24  C   UNL     1     -40.562  58.707 -50.638  1.00  0.00     0.014 A 
HETATM   25  C   UNL     1     -41.368  56.795 -52.211  1.00  0.00     0.040 A 
HETATM   26  C   UNL     1     -40.954  59.938 -50.101  1.00  0.00     0.001 A 
HETATM   27  C   UNL     1     -42.198  60.483 -50.410  1.00  0.00     0.002 A 
ENDBRANCH   1  18
TORSDOF 3
ENDMDL
MODEL 10
REMARK VINA RESULT:      -7.8      2.547      7.213
REMARK  3 active torsions:
REMARK  status: ('A' for Active; 'I' for Inactive)
REMARK    1  A    between atoms: C_7  and  C_8 
REMARK    2  A    between atoms: N_9  and  C_11 
REMARK    3  A    between atoms: C_11  and  C_12 
ROOT
HETATM    1  C   UNL     1     -40.998  55.748 -54.314  1.00  0.00     0.238 C 
HETATM    2  N   UNL     1     -41.640  55.169 -53.061  1.00  0.00    -0.056 N 
HETATM    3  H   UNL     1     -40.887  55.150 -52.364  1.00  0.00     0.281 HD
HETATM    4  C   UNL     1     -42.109  53.742 -53.192  1.00  0.00     0.236 C 
HETATM    5  C   UNL     1     -40.970  52.853 -53.659  1.00  0.00     0.028 C 
HETATM    6  C   UNL     1     -40.359  53.348 -54.960  1.00  0.00     0.004 C 
HETATM    7  C   UNL     1     -39.908  54.798 -54.831  1.00  0.00     0.040 C 
ENDROOT
BRANCH   2   8
HETATM    8  C   UNL     1     -42.723  56.043 -52.456  1.00  0.00     0.295 C 
BRANCH   8   9
HETATM    9  C   UNL     1     -42.179  57.174 -51.681  1.00  0.00     0.077 A 
HETATM   10  N   UNL     1     -42.700  58.458 -51.669  1.00  0.00    -0.155 N 
HETATM   11  C   UNL     1     -41.851  59.235 -50.878  1.00  0.00     0.732 A 
HETATM   12  C   UNL     1     -43.817  59.006 -52.293  1.00  0.00     0.117 A 
HETATM   13  N   UNL     1     -42.067  60.570 -50.715  1.00  0.00    -0.074 NA
HETATM   14  N   UNL     1     -40.891  58.493 -50.373  1.00  0.00    -0.072 NA
HETATM   15  C   UNL     1     -43.116  61.063 -51.297  1.00  0.00     0.138 A 
HETATM   16  C   UNL     1     -44.084  60.311 -52.142  1.00  0.00     0.038 A 
HETATM   17  C   UNL     1     -41.108  57.224 -50.812  1.00  0.00     0.164 A 
ENDBRANCH   8   9
ENDBRANCH   2   8
BRANCH   1  18
HETATM   18  C   UNL     1     -41.969  56.166 -55.373  1.00  0.00     0.041 A 
HETATM   19  N   UNL     1     -42.159  55.389 -56.500  1.00  0.00    -0.357 N 
HETATM   20  C   UNL     1     -43.026  56.002 -57.373  1.00  0.00     0.042 A 
HETATM   21  H   UNL     1     -41.714  54.499 -56.695  1.00  0.00     0.166 HD
HETATM   22  C   UNL     1     -43.475  57.167 -56.756  1.00  0.00    -0.008 A 
HETATM   23  C   UNL     1     -43.458  55.606 -58.643  1.00  0.00     0.030 A 
HETATM   24  C   UNL     1     -44.405  57.979 -57.431  1.00  0.00     0.014 A 
HETATM   25  C   UNL     1     -42.828  57.244 -55.493  1.00  0.00     0.040 A 
HETATM   26  C   UNL     1     -44.844  57.601 -58.704  1.00  0.00     0.001 A 
HETATM   27  C   UNL     1     -44.375  56.432 -59.299  1.00  0.00     0.002 A 
ENDBRANCH   1  18
TORSDOF 3
ENDMDL
