MODEL 1
REMARK VINA RESULT:      -8.5      0.000      0.000
REMARK  8 active torsions:
REMARK  status: ('A' for Active; 'I' for Inactive)
REMARK    1  A    between atoms: C_5  and  C_6 
REMARK    2  A    between atoms: C_6  and  N_7 
REMARK       I    between atoms: N_7  and  C_8 
REMARK    3  A    between atoms: C_8  and  C_9 
REMARK    4  A    between atoms: N_12  and  C_13 
REMARK    5  A    between atoms: C_13  and  C_14 
REMARK       I    between atoms: C_14  and  N_15 
REMARK    6  A    between atoms: N_15  and  C_16 
REMARK    7  A    between atoms: C_20  and  O_21 
REMARK    8  A    between atoms: C_26  and  N_27 
ROOT
HETATM    1  C   UNL     1     -42.023  56.909 -50.621  1.00  0.00     0.186 A 
HETATM    2  N   UNL     1     -41.372  58.115 -50.790  1.00  0.00    -0.150 NA
HETATM    3  N   UNL     1     -42.220  58.976 -51.332  1.00  0.00     0.007 NA
HETATM    4  N   UNL     1     -43.396  58.332 -51.500  1.00  0.00    -0.248 N 
HETATM    5  C   UNL     1     -43.324  57.028 -51.083  1.00  0.00     0.151 A 
ENDROOT
BRANCH   4   6
HETATM    6  C   UNL     1     -44.559  59.094 -51.887  1.00  0.00     0.251 C 
BRANCH   6   7
HETATM    7  C   UNL     1     -45.342  59.514 -50.659  1.00  0.00     0.241 C 
HETATM    8  N   UNL     1     -44.970  60.757 -50.166  1.00  0.00    -0.326 N 
HETATM    9  H   UNL     1     -44.203  61.223 -50.649  1.00  0.00     0.169 HD
HETATM   10  O   UNL     1     -46.237  58.798 -50.220  1.00  0.00    -0.271 OA
BRANCH   8  11
HETATM   11  C   UNL     1     -45.450  61.414 -49.015  1.00  0.00     0.036 A 
HETATM   12  C   UNL     1     -46.514  62.312 -49.008  1.00  0.00     0.056 A 
HETATM   13  C   UNL     1     -46.927  62.902 -47.806  1.00  0.00     0.069 A 
HETATM   14 CL   UNL     1     -48.265  64.001 -47.864  1.00  0.00    -0.081 Cl
HETATM   15  C   UNL     1     -46.277  62.617 -46.595  1.00  0.00     0.090 A 
HETATM   16  C   UNL     1     -45.215  61.711 -46.608  1.00  0.00     0.041 A 
HETATM   17  C   UNL     1     -44.808  61.116 -47.807  1.00  0.00     0.032 A 
BRANCH  15  18
HETATM   18  O   UNL     1     -46.746  63.241 -45.470  1.00  0.00    -0.354 OA
HETATM   19  C   UNL     1     -45.951  64.280 -44.914  1.00  0.00     0.210 C 
ENDBRANCH  15  18
ENDBRANCH   8  11
ENDBRANCH   6   7
ENDBRANCH   4   6
BRANCH   5  20
HETATM   20  N   UNL     1     -44.360  56.160 -51.125  1.00  0.00    -0.382 N 
HETATM   21  H   UNL     1     -44.611  55.604 -51.940  1.00  0.00     0.157 HD
HETATM   22  H   UNL     1     -45.148  56.306 -50.487  1.00  0.00     0.157 HD
ENDBRANCH   5  20
BRANCH   1  23
HETATM   23  C   UNL     1     -41.406  55.756 -49.979  1.00  0.00     0.275 C 
HETATM   24  N   UNL     1     -41.040  54.765 -50.863  1.00  0.00    -0.351 N 
HETATM   25  H   UNL     1     -41.172  54.947 -51.851  1.00  0.00     0.163 HD
HETATM   26  O   UNL     1     -41.197  55.697 -48.771  1.00  0.00    -0.266 OA
BRANCH  24  27
HETATM   27  C   UNL     1     -40.246  53.629 -50.466  1.00  0.00     0.161 C 
BRANCH  27  28
HETATM   28  C   UNL     1     -40.100  52.642 -51.598  1.00  0.00    -0.041 A 
HETATM   29  C   UNL     1     -39.673  51.329 -51.351  1.00  0.00     0.009 A 
HETATM   30  C   UNL     1     -39.550  50.410 -52.395  1.00  0.00     0.007 A 
HETATM   31  C   UNL     1     -39.853  50.784 -53.708  1.00  0.00    -0.062 A 
HETATM   32  C   UNL     1     -39.761  49.793 -54.830  1.00  0.00     0.048 C 
HETATM   33  C   UNL     1     -40.296  52.088 -53.957  1.00  0.00     0.007 A 
HETATM   34  C   UNL     1     -40.415  53.009 -52.912  1.00  0.00     0.009 A 
ENDBRANCH  27  28
ENDBRANCH  24  27
ENDBRANCH   1  23
TORSDOF 8
ENDMDL
MODEL 2
REMARK VINA RESULT:      -8.5      5.258      7.915
REMARK  8 active torsions:
REMARK  status: ('A' for Active; 'I' for Inactive)
REMARK    1  A    between atoms: C_5  and  C_6 
REMARK    2  A    between atoms: C_6  and  N_7 
REMARK       I    between atoms: N_7  and  C_8 
REMARK    3  A    between atoms: C_8  and  C_9 
REMARK    4  A    between atoms: N_12  and  C_13 
REMARK    5  A    between atoms: C_13  and  C_14 
REMARK       I    between atoms: C_14  and  N_15 
REMARK    6  A    between atoms: N_15  and  C_16 
REMARK    7  A    between atoms: C_20  and  O_21 
REMARK    8  A    between atoms: C_26  and  N_27 
ROOT
HETATM    1  C   UNL     1     -41.948  57.307 -51.433  1.00  0.00     0.186 A 
HETATM    2  N   UNL     1     -43.263  57.319 -51.853  1.00  0.00    -0.150 NA
HETATM    3  N   UNL     1     -43.442  58.372 -52.637  1.00  0.00     0.007 NA
HETATM    4  N   UNL     1     -42.258  59.018 -52.721  1.00  0.00    -0.248 N 
HETATM    5  C   UNL     1     -41.290  58.401 -51.973  1.00  0.00     0.151 A 
ENDROOT
BRANCH   4   6
HETATM    6  C   UNL     1     -42.116  60.092 -53.676  1.00  0.00     0.251 C 
BRANCH   6   7
HETATM    7  C   UNL     1     -42.681  59.676 -55.019  1.00  0.00     0.241 C 
HETATM    8  N   UNL     1     -42.146  58.489 -55.500  1.00  0.00    -0.326 N 
HETATM    9  H   UNL     1     -41.421  58.056 -54.929  1.00  0.00     0.169 HD
HETATM   10  O   UNL     1     -43.558  60.346 -55.556  1.00  0.00    -0.271 OA
BRANCH   8  11
HETATM   11  C   UNL     1     -42.404  57.855 -56.732  1.00  0.00     0.036 A 
HETATM   12  C   UNL     1     -42.138  58.418 -57.977  1.00  0.00     0.056 A 
HETATM   13  C   UNL     1     -42.416  57.700 -59.147  1.00  0.00     0.069 A 
HETATM   14 CL   UNL     1     -42.050  58.452 -60.664  1.00  0.00    -0.081 Cl
HETATM   15  C   UNL     1     -42.977  56.414 -59.094  1.00  0.00     0.090 A 
HETATM   16  C   UNL     1     -43.236  55.852 -57.843  1.00  0.00     0.041 A 
HETATM   17  C   UNL     1     -42.951  56.568 -56.674  1.00  0.00     0.032 A 
BRANCH  15  18
HETATM   18  O   UNL     1     -43.219  55.786 -60.287  1.00  0.00    -0.354 OA
HETATM   19  C   UNL     1     -44.571  55.678 -60.712  1.00  0.00     0.210 C 
ENDBRANCH  15  18
ENDBRANCH   8  11
ENDBRANCH   6   7
ENDBRANCH   4   6
BRANCH   5  20
HETATM   20  N   UNL     1     -40.010  58.829 -51.888  1.00  0.00    -0.382 N 
HETATM   21  H   UNL     1     -39.728  59.722 -51.491  1.00  0.00     0.157 HD
HETATM   22  H   UNL     1     -39.323  58.454 -52.549  1.00  0.00     0.157 HD
ENDBRANCH   5  20
BRANCH   1  23
HETATM   23  C   UNL     1     -41.385  56.243 -50.614  1.00  0.00     0.275 C 
HETATM   24  N   UNL     1     -41.206  55.059 -51.296  1.00  0.00    -0.351 N 
HETATM   25  H   UNL     1     -41.417  55.054 -52.287  1.00  0.00     0.163 HD
HETATM   26  O   UNL     1     -41.062  56.403 -49.440  1.00  0.00    -0.266 OA
BRANCH  24  27
HETATM   27  C   UNL     1     -40.490  53.942 -50.732  1.00  0.00     0.161 C 
BRANCH  27  28
HETATM   28  C   UNL     1     -40.271  52.859 -51.760  1.00  0.00    -0.041 A 
HETATM   29  C   UNL     1     -40.608  53.070 -53.105  1.00  0.00     0.009 A 
HETATM   30  C   UNL     1     -40.394  52.073 -54.059  1.00  0.00     0.007 A 
HETATM   31  C   UNL     1     -39.839  50.844 -53.689  1.00  0.00    -0.062 A 
HETATM   32  C   UNL     1     -39.571  49.782 -54.713  1.00  0.00     0.048 C 
HETATM   33  C   UNL     1     -39.486  50.635 -52.350  1.00  0.00     0.007 A 
HETATM   34  C   UNL     1     -39.704  51.631 -51.394  1.00  0.00     0.009 A 
ENDBRANCH  27  28
ENDBRANCH  24  27
ENDBRANCH   1  23
TORSDOF 8
ENDMDL
MODEL 3
REMARK VINA RESULT:      -8.4      4.877      7.387
REMARK  8 active torsions:
REMARK  status: ('A' for Active; 'I' for Inactive)
REMARK    1  A    between atoms: C_5  and  C_6 
REMARK    2  A    between atoms: C_6  and  N_7 
REMARK       I    between atoms: N_7  and  C_8 
REMARK    3  A    between atoms: C_8  and  C_9 
REMARK    4  A    between atoms: N_12  and  C_13 
REMARK    5  A    between atoms: C_13  and  C_14 
REMARK       I    between atoms: C_14  and  N_15 
REMARK    6  A    between atoms: N_15  and  C_16 
REMARK    7  A    between atoms: C_20  and  O_21 
REMARK    8  A    between atoms: C_26  and  N_27 
ROOT
HETATM    1  C   UNL     1     -42.062  56.617 -50.554  1.00  0.00     0.186 A 
HETATM    2  N   UNL     1     -43.336  56.519 -51.077  1.00  0.00    -0.150 NA
HETATM    3  N   UNL     1     -43.627  57.658 -51.686  1.00  0.00     0.007 NA
HETATM    4  N   UNL     1     -42.552  58.468 -51.561  1.00  0.00    -0.248 N 
HETATM    5  C   UNL     1     -41.547  57.870 -50.847  1.00  0.00     0.151 A 
ENDROOT
BRANCH   4   6
HETATM    6  C   UNL     1     -42.519  59.703 -52.308  1.00  0.00     0.251 C 
BRANCH   6   7
HETATM    7  C   UNL     1     -41.904  59.472 -53.674  1.00  0.00     0.241 C 
HETATM    8  N   UNL     1     -42.842  59.232 -54.669  1.00  0.00    -0.326 N 
HETATM    9  H   UNL     1     -43.816  59.200 -54.372  1.00  0.00     0.169 HD
HETATM   10  O   UNL     1     -40.688  59.548 -53.827  1.00  0.00    -0.271 OA
BRANCH   8  11
HETATM   11  C   UNL     1     -42.611  58.923 -56.024  1.00  0.00     0.036 A 
HETATM   12  C   UNL     1     -42.848  57.677 -56.599  1.00  0.00     0.056 A 
HETATM   13  C   UNL     1     -42.601  57.474 -57.963  1.00  0.00     0.069 A 
HETATM   14 CL   UNL     1     -42.929  55.904 -58.619  1.00  0.00    -0.081 Cl
HETATM   15  C   UNL     1     -42.102  58.506 -58.773  1.00  0.00     0.090 A 
HETATM   16  C   UNL     1     -41.872  59.755 -58.192  1.00  0.00     0.041 A 
HETATM   17  C   UNL     1     -42.125  59.959 -56.831  1.00  0.00     0.032 A 
BRANCH  15  18
HETATM   18  O   UNL     1     -41.888  58.218 -60.094  1.00  0.00    -0.354 OA
HETATM   19  C   UNL     1     -41.838  59.308 -61.005  1.00  0.00     0.210 C 
ENDBRANCH  15  18
ENDBRANCH   8  11
ENDBRANCH   6   7
ENDBRANCH   4   6
BRANCH   5  20
HETATM   20  N   UNL     1     -40.354  58.451 -50.584  1.00  0.00    -0.382 N 
HETATM   21  H   UNL     1     -39.503  57.940 -50.362  1.00  0.00     0.157 HD
HETATM   22  H   UNL     1     -40.345  59.412 -50.229  1.00  0.00     0.157 HD
ENDBRANCH   5  20
BRANCH   1  23
HETATM   23  C   UNL     1     -41.392  55.514 -49.879  1.00  0.00     0.275 C 
HETATM   24  N   UNL     1     -41.218  54.404 -50.677  1.00  0.00    -0.351 N 
HETATM   25  H   UNL     1     -41.507  54.475 -51.646  1.00  0.00     0.163 HD
HETATM   26  O   UNL     1     -40.985  55.587 -48.723  1.00  0.00    -0.266 OA
BRANCH  24  27
HETATM   27  C   UNL     1     -40.414  53.279 -50.272  1.00  0.00     0.161 C 
BRANCH  27  28
HETATM   28  C   UNL     1     -40.162  52.342 -51.428  1.00  0.00    -0.041 A 
HETATM   29  C   UNL     1     -39.806  51.005 -51.201  1.00  0.00     0.009 A 
HETATM   30  C   UNL     1     -39.586  50.133 -52.270  1.00  0.00     0.007 A 
HETATM   31  C   UNL     1     -39.719  50.580 -53.589  1.00  0.00    -0.062 A 
HETATM   32  C   UNL     1     -39.522  49.643 -54.742  1.00  0.00     0.048 C 
HETATM   33  C   UNL     1     -40.091  51.910 -53.820  1.00  0.00     0.007 A 
HETATM   34  C   UNL     1     -40.307  52.784 -52.750  1.00  0.00     0.009 A 
ENDBRANCH  27  28
ENDBRANCH  24  27
ENDBRANCH   1  23
TORSDOF 8
ENDMDL
MODEL 4
REMARK VINA RESULT:      -8.2      5.455      7.909
REMARK  8 active torsions:
REMARK  status: ('A' for Active; 'I' for Inactive)
REMARK    1  A    between atoms: C_5  and  C_6 
REMARK    2  A    between atoms: C_6  and  N_7 
REMARK       I    between atoms: N_7  and  C_8 
REMARK    3  A    between atoms: C_8  and  C_9 
REMARK    4  A    between atoms: N_12  and  C_13 
REMARK    5  A    between atoms: C_13  and  C_14 
REMARK       I    between atoms: C_14  and  N_15 
REMARK    6  A    between atoms: N_15  and  C_16 
REMARK    7  A    between atoms: C_20  and  O_21 
REMARK    8  A    between atoms: C_26  and  N_27 
ROOT
HETATM    1  C   UNL     1     -41.533  57.911 -52.508  1.00  0.00     0.186 A 
HETATM    2  N   UNL     1     -40.546  58.669 -53.106  1.00  0.00    -0.150 NA
HETATM    3  N   UNL     1     -41.121  59.532 -53.929  1.00  0.00     0.007 NA
HETATM    4  N   UNL     1     -42.456  59.333 -53.853  1.00  0.00    -0.248 N 
HETATM    5  C   UNL     1     -42.769  58.318 -52.987  1.00  0.00     0.151 A 
ENDROOT
BRANCH   4   6
HETATM    6  C   UNL     1     -43.340  60.276 -54.497  1.00  0.00     0.251 C 
BRANCH   6   7
HETATM    7  C   UNL     1     -43.601  59.853 -55.929  1.00  0.00     0.241 C 
HETATM    8  N   UNL     1     -44.454  58.763 -56.037  1.00  0.00    -0.326 N 
HETATM    9  H   UNL     1     -44.773  58.352 -55.161  1.00  0.00     0.169 HD
HETATM   10  O   UNL     1     -43.110  60.484 -56.861  1.00  0.00    -0.271 OA
BRANCH   8  11
HETATM   11  C   UNL     1     -44.854  58.085 -57.205  1.00  0.00     0.036 A 
HETATM   12  C   UNL     1     -44.049  57.200 -57.918  1.00  0.00     0.056 A 
HETATM   13  C   UNL     1     -44.545  56.562 -59.061  1.00  0.00     0.069 A 
HETATM   14 CL   UNL     1     -43.496  55.465 -59.895  1.00  0.00    -0.081 Cl
HETATM   15  C   UNL     1     -45.849  56.806 -59.521  1.00  0.00     0.090 A 
HETATM   16  C   UNL     1     -46.655  57.688 -58.799  1.00  0.00     0.041 A 
HETATM   17  C   UNL     1     -46.160  58.320 -57.652  1.00  0.00     0.032 A 
BRANCH  15  18
HETATM   18  O   UNL     1     -46.251  56.140 -60.648  1.00  0.00    -0.354 OA
HETATM   19  C   UNL     1     -47.494  56.518 -61.227  1.00  0.00     0.210 C 
ENDBRANCH  15  18
ENDBRANCH   8  11
ENDBRANCH   6   7
ENDBRANCH   4   6
BRANCH   5  20
HETATM   20  N   UNL     1     -44.031  57.919 -52.711  1.00  0.00    -0.382 N 
HETATM   21  H   UNL     1     -44.300  57.401 -51.877  1.00  0.00     0.157 HD
HETATM   22  H   UNL     1     -44.684  57.786 -53.489  1.00  0.00     0.157 HD
ENDBRANCH   5  20
BRANCH   1  23
HETATM   23  C   UNL     1     -41.258  56.911 -51.487  1.00  0.00     0.275 C 
HETATM   24  N   UNL     1     -41.274  55.618 -51.962  1.00  0.00    -0.351 N 
HETATM   25  H   UNL     1     -41.410  55.489 -52.958  1.00  0.00     0.163 HD
HETATM   26  O   UNL     1     -40.995  57.200 -50.323  1.00  0.00    -0.266 OA
BRANCH  24  27
HETATM   27  C   UNL     1     -40.842  54.496 -51.168  1.00  0.00     0.161 C 
BRANCH  27  28
HETATM   28  C   UNL     1     -40.499  53.311 -52.038  1.00  0.00    -0.041 A 
HETATM   29  C   UNL     1     -39.794  52.218 -51.512  1.00  0.00     0.009 A 
HETATM   30  C   UNL     1     -39.488  51.114 -52.311  1.00  0.00     0.007 A 
HETATM   31  C   UNL     1     -39.881  51.080 -53.653  1.00  0.00    -0.062 A 
HETATM   32  C   UNL     1     -39.590  49.884 -54.509  1.00  0.00     0.048 C 
HETATM   33  C   UNL     1     -40.599  52.161 -54.177  1.00  0.00     0.007 A 
HETATM   34  C   UNL     1     -40.902  53.268 -53.378  1.00  0.00     0.009 A 
ENDBRANCH  27  28
ENDBRANCH  24  27
ENDBRANCH   1  23
TORSDOF 8
ENDMDL
MODEL 5
REMARK VINA RESULT:      -8.0      5.493      9.602
REMARK  8 active torsions:
REMARK  status: ('A' for Active; 'I' for Inactive)
REMARK    1  A    between atoms: C_5  and  C_6 
REMARK    2  A    between atoms: C_6  and  N_7 
REMARK       I    between atoms: N_7  and  C_8 
REMARK    3  A    between atoms: C_8  and  C_9 
REMARK    4  A    between atoms: N_12  and  C_13 
REMARK    5  A    between atoms: C_13  and  C_14 
REMARK       I    between atoms: C_14  and  N_15 
REMARK    6  A    between atoms: N_15  and  C_16 
REMARK    7  A    between atoms: C_20  and  O_21 
REMARK    8  A    between atoms: C_26  and  N_27 
ROOT
HETATM    1  C   UNL     1     -41.908  59.296 -54.090  1.00  0.00     0.186 A 
HETATM    2  N   UNL     1     -40.647  59.250 -53.529  1.00  0.00    -0.150 NA
HETATM    3  N   UNL     1     -40.726  58.601 -52.377  1.00  0.00     0.007 NA
HETATM    4  N   UNL     1     -42.015  58.233 -52.208  1.00  0.00    -0.248 N 
HETATM    5  C   UNL     1     -42.803  58.656 -53.247  1.00  0.00     0.151 A 
ENDROOT
BRANCH   4   6
HETATM    6  C   UNL     1     -42.348  57.334 -51.129  1.00  0.00     0.251 C 
BRANCH   6   7
HETATM    7  C   UNL     1     -42.312  55.899 -51.613  1.00  0.00     0.241 C 
HETATM    8  N   UNL     1     -41.065  55.302 -51.480  1.00  0.00    -0.326 N 
HETATM    9  H   UNL     1     -40.319  55.892 -51.114  1.00  0.00     0.169 HD
HETATM   10  O   UNL     1     -43.332  55.360 -52.032  1.00  0.00    -0.271 OA
BRANCH   8  11
HETATM   11  C   UNL     1     -40.673  54.010 -51.882  1.00  0.00     0.036 A 
HETATM   12  C   UNL     1     -40.477  52.940 -51.012  1.00  0.00     0.056 A 
HETATM   13  C   UNL     1     -40.102  51.687 -51.513  1.00  0.00     0.069 A 
HETATM   14 CL   UNL     1     -39.886  50.395 -50.379  1.00  0.00    -0.081 Cl
HETATM   15  C   UNL     1     -39.903  51.483 -52.887  1.00  0.00     0.090 A 
HETATM   16  C   UNL     1     -40.108  52.558 -53.755  1.00  0.00     0.041 A 
HETATM   17  C   UNL     1     -40.489  53.807 -53.255  1.00  0.00     0.032 A 
BRANCH  15  18
HETATM   18  O   UNL     1     -39.535  50.226 -53.288  1.00  0.00    -0.354 OA
HETATM   19  C   UNL     1     -39.757  49.879 -54.649  1.00  0.00     0.210 C 
ENDBRANCH  15  18
ENDBRANCH   8  11
ENDBRANCH   6   7
ENDBRANCH   4   6
BRANCH   5  20
HETATM   20  N   UNL     1     -44.130  58.413 -53.340  1.00  0.00    -0.382 N 
HETATM   21  H   UNL     1     -44.669  57.895 -52.649  1.00  0.00     0.157 HD
HETATM   22  H   UNL     1     -44.563  58.404 -54.268  1.00  0.00     0.157 HD
ENDBRANCH   5  20
BRANCH   1  23
HETATM   23  C   UNL     1     -42.174  59.874 -55.400  1.00  0.00     0.275 C 
HETATM   24  N   UNL     1     -41.866  59.032 -56.446  1.00  0.00    -0.351 N 
HETATM   25  H   UNL     1     -41.550  58.097 -56.216  1.00  0.00     0.163 HD
HETATM   26  O   UNL     1     -42.667  60.988 -55.550  1.00  0.00    -0.266 OA
BRANCH  24  27
HETATM   27  C   UNL     1     -42.228  59.328 -57.809  1.00  0.00     0.161 C 
BRANCH  27  28
HETATM   28  C   UNL     1     -42.886  58.141 -58.470  1.00  0.00    -0.041 A 
HETATM   29  C   UNL     1     -43.589  58.292 -59.674  1.00  0.00     0.009 A 
HETATM   30  C   UNL     1     -44.187  57.192 -60.294  1.00  0.00     0.007 A 
HETATM   31  C   UNL     1     -44.095  55.919 -59.723  1.00  0.00    -0.062 A 
HETATM   32  C   UNL     1     -44.701  54.727 -60.400  1.00  0.00     0.048 C 
HETATM   33  C   UNL     1     -43.380  55.761 -58.530  1.00  0.00     0.007 A 
HETATM   34  C   UNL     1     -42.785  56.863 -57.907  1.00  0.00     0.009 A 
ENDBRANCH  27  28
ENDBRANCH  24  27
ENDBRANCH   1  23
TORSDOF 8
ENDMDL
MODEL 6
REMARK VINA RESULT:      -7.9      3.683     10.398
REMARK  8 active torsions:
REMARK  status: ('A' for Active; 'I' for Inactive)
REMARK    1  A    between atoms: C_5  and  C_6 
REMARK    2  A    between atoms: C_6  and  N_7 
REMARK       I    between atoms: N_7  and  C_8 
REMARK    3  A    between atoms: C_8  and  C_9 
REMARK    4  A    between atoms: N_12  and  C_13 
REMARK    5  A    between atoms: C_13  and  C_14 
REMARK       I    between atoms: C_14  and  N_15 
REMARK    6  A    between atoms: N_15  and  C_16 
REMARK    7  A    between atoms: C_20  and  O_21 
REMARK    8  A    between atoms: C_26  and  N_27 
ROOT
HETATM    1  C   UNL     1     -44.230  60.829 -50.227  1.00  0.00     0.186 A 
HETATM    2  N   UNL     1     -42.928  60.920 -49.776  1.00  0.00    -0.150 NA
HETATM    3  N   UNL     1     -42.115  60.664 -50.790  1.00  0.00     0.007 NA
HETATM    4  N   UNL     1     -42.886  60.419 -51.873  1.00  0.00    -0.248 N 
HETATM    5  C   UNL     1     -44.221  60.496 -51.572  1.00  0.00     0.151 A 
ENDROOT
BRANCH   4   6
HETATM    6  C   UNL     1     -42.257  60.308 -53.167  1.00  0.00     0.251 C 
BRANCH   6   7
HETATM    7  C   UNL     1     -41.393  59.064 -53.224  1.00  0.00     0.241 C 
HETATM    8  N   UNL     1     -42.084  57.897 -52.927  1.00  0.00    -0.326 N 
HETATM    9  H   UNL     1     -43.065  58.006 -52.673  1.00  0.00     0.169 HD
HETATM   10  O   UNL     1     -40.212  59.145 -53.550  1.00  0.00    -0.271 OA
BRANCH   8  11
HETATM   11  C   UNL     1     -41.575  56.587 -52.832  1.00  0.00     0.036 A 
HETATM   12  C   UNL     1     -41.168  55.820 -53.920  1.00  0.00     0.056 A 
HETATM   13  C   UNL     1     -40.660  54.530 -53.721  1.00  0.00     0.069 A 
HETATM   14 CL   UNL     1     -40.160  53.633 -55.116  1.00  0.00    -0.081 Cl
HETATM   15  C   UNL     1     -40.562  53.979 -52.433  1.00  0.00     0.090 A 
HETATM   16  C   UNL     1     -40.966  54.755 -51.345  1.00  0.00     0.041 A 
HETATM   17  C   UNL     1     -41.467  56.046 -51.545  1.00  0.00     0.032 A 
BRANCH  15  18
HETATM   18  O   UNL     1     -40.056  52.710 -52.331  1.00  0.00    -0.354 OA
HETATM   19  C   UNL     1     -40.085  52.092 -51.051  1.00  0.00     0.210 C 
ENDBRANCH  15  18
ENDBRANCH   8  11
ENDBRANCH   6   7
ENDBRANCH   4   6
BRANCH   5  20
HETATM   20  N   UNL     1     -45.213  60.309 -52.472  1.00  0.00    -0.382 N 
HETATM   21  H   UNL     1     -46.204  60.289 -52.239  1.00  0.00     0.157 HD
HETATM   22  H   UNL     1     -45.000  59.809 -53.340  1.00  0.00     0.157 HD
ENDBRANCH   5  20
BRANCH   1  23
HETATM   23  C   UNL     1     -45.383  61.125 -49.388  1.00  0.00     0.275 C 
HETATM   24  N   UNL     1     -45.138  60.978 -48.041  1.00  0.00    -0.351 N 
HETATM   25  H   UNL     1     -44.192  60.744 -47.761  1.00  0.00     0.163 HD
HETATM   26  O   UNL     1     -46.457  61.509 -49.843  1.00  0.00    -0.266 OA
BRANCH  24  27
HETATM   27  C   UNL     1     -46.076  61.401 -47.032  1.00  0.00     0.161 C 
BRANCH  27  28
HETATM   28  C   UNL     1     -45.365  61.878 -45.790  1.00  0.00    -0.041 A 
HETATM   29  C   UNL     1     -44.527  61.015 -45.069  1.00  0.00     0.009 A 
HETATM   30  C   UNL     1     -43.858  61.459 -43.927  1.00  0.00     0.007 A 
HETATM   31  C   UNL     1     -44.012  62.776 -43.481  1.00  0.00    -0.062 A 
HETATM   32  C   UNL     1     -43.268  63.272 -42.277  1.00  0.00     0.048 C 
HETATM   33  C   UNL     1     -44.834  63.645 -44.207  1.00  0.00     0.007 A 
HETATM   34  C   UNL     1     -45.508  63.200 -45.348  1.00  0.00     0.009 A 
ENDBRANCH  27  28
ENDBRANCH  24  27
ENDBRANCH   1  23
TORSDOF 8
ENDMDL
MODEL 7
REMARK VINA RESULT:      -7.7      6.787      8.798
REMARK  8 active torsions:
REMARK  status: ('A' for Active; 'I' for Inactive)
REMARK    1  A    between atoms: C_5  and  C_6 
REMARK    2  A    between atoms: C_6  and  N_7 
REMARK       I    between atoms: N_7  and  C_8 
REMARK    3  A    between atoms: C_8  and  C_9 
REMARK    4  A    between atoms: N_12  and  C_13 
REMARK    5  A    between atoms: C_13  and  C_14 
REMARK       I    between atoms: C_14  and  N_15 
REMARK    6  A    between atoms: N_15  and  C_16 
REMARK    7  A    between atoms: C_20  and  O_21 
REMARK    8  A    between atoms: C_26  and  N_27 
ROOT
HETATM    1  C   UNL     1     -42.458  57.290 -54.509  1.00  0.00     0.186 A 
HETATM    2  N   UNL     1     -43.307  58.374 -54.398  1.00  0.00    -0.150 NA
HETATM    3  N   UNL     1     -43.918  58.547 -55.560  1.00  0.00     0.007 NA
HETATM    4  N   UNL     1     -43.472  57.584 -56.398  1.00  0.00    -0.248 N 
HETATM    5  C   UNL     1     -42.543  56.777 -55.793  1.00  0.00     0.151 A 
ENDROOT
BRANCH   4   6
HETATM    6  C   UNL     1     -44.124  57.413 -57.674  1.00  0.00     0.251 C 
BRANCH   6   7
HETATM    7  C   UNL     1     -43.878  58.623 -58.553  1.00  0.00     0.241 C 
HETATM    8  N   UNL     1     -42.549  59.022 -58.586  1.00  0.00    -0.326 N 
HETATM    9  H   UNL     1     -41.905  58.494 -57.999  1.00  0.00     0.169 HD
HETATM   10  O   UNL     1     -44.802  59.128 -59.184  1.00  0.00    -0.271 OA
BRANCH   8  11
HETATM   11  C   UNL     1     -41.991  60.133 -59.249  1.00  0.00     0.036 A 
HETATM   12  C   UNL     1     -41.402  61.219 -58.607  1.00  0.00     0.056 A 
HETATM   13  C   UNL     1     -40.860  62.270 -59.358  1.00  0.00     0.069 A 
HETATM   14 CL   UNL     1     -40.132  63.586 -58.498  1.00  0.00    -0.081 Cl
HETATM   15  C   UNL     1     -40.907  62.261 -60.761  1.00  0.00     0.090 A 
HETATM   16  C   UNL     1     -41.493  61.166 -61.399  1.00  0.00     0.041 A 
HETATM   17  C   UNL     1     -42.028  60.113 -60.649  1.00  0.00     0.032 A 
BRANCH  15  18
HETATM   18  O   UNL     1     -40.355  63.331 -61.414  1.00  0.00    -0.354 OA
HETATM   19  C   UNL     1     -39.418  63.057 -62.447  1.00  0.00     0.210 C 
ENDBRANCH  15  18
ENDBRANCH   8  11
ENDBRANCH   6   7
ENDBRANCH   4   6
BRANCH   5  20
HETATM   20  N   UNL     1     -41.944  55.727 -56.398  1.00  0.00    -0.382 N 
HETATM   21  H   UNL     1     -41.690  55.699 -57.383  1.00  0.00     0.157 HD
HETATM   22  H   UNL     1     -42.065  54.794 -55.994  1.00  0.00     0.157 HD
ENDBRANCH   5  20
BRANCH   1  23
HETATM   23  C   UNL     1     -41.681  56.772 -53.391  1.00  0.00     0.275 C 
HETATM   24  N   UNL     1     -42.175  55.595 -52.875  1.00  0.00    -0.351 N 
HETATM   25  H   UNL     1     -42.972  55.178 -53.342  1.00  0.00     0.163 HD
HETATM   26  O   UNL     1     -40.659  57.315 -52.981  1.00  0.00    -0.266 OA
BRANCH  24  27
HETATM   27  C   UNL     1     -41.456  54.816 -51.899  1.00  0.00     0.161 C 
BRANCH  27  28
HETATM   28  C   UNL     1     -40.899  53.553 -52.509  1.00  0.00    -0.041 A 
HETATM   29  C   UNL     1     -40.020  52.735 -51.784  1.00  0.00     0.009 A 
HETATM   30  C   UNL     1     -39.515  51.559 -52.343  1.00  0.00     0.007 A 
HETATM   31  C   UNL     1     -39.877  51.176 -53.638  1.00  0.00    -0.062 A 
HETATM   32  C   UNL     1     -39.369  49.896 -54.231  1.00  0.00     0.048 C 
HETATM   33  C   UNL     1     -40.767  51.980 -54.359  1.00  0.00     0.007 A 
HETATM   34  C   UNL     1     -41.271  53.160 -53.801  1.00  0.00     0.009 A 
ENDBRANCH  27  28
ENDBRANCH  24  27
ENDBRANCH   1  23
TORSDOF 8
ENDMDL
MODEL 8
REMARK VINA RESULT:      -7.7      5.428      9.104
REMARK  8 active torsions:
REMARK  status: ('A' for Active; 'I' for Inactive)
REMARK    1  A    between atoms: C_5  and  C_6 
REMARK    2  A    between atoms: C_6  and  N_7 
REMARK       I    between atoms: N_7  and  C_8 
REMARK    3  A    between atoms: C_8  and  C_9 
REMARK    4  A    between atoms: N_12  and  C_13 
REMARK    5  A    between atoms: C_13  and  C_14 
REMARK       I    between atoms: C_14  and  N_15 
REMARK    6  A    between atoms: N_15  and  C_16 
REMARK    7  A    between atoms: C_20  and  O_21 
REMARK    8  A    between atoms: C_26  and  N_27 
ROOT
HETATM    1  C   UNL     1     -42.443  59.691 -54.672  1.00  0.00     0.186 A 
HETATM    2  N   UNL     1     -41.114  59.748 -54.303  1.00  0.00    -0.150 NA
HETATM    3  N   UNL     1     -41.023  59.428 -53.021  1.00  0.00     0.007 NA
HETATM    4  N   UNL     1     -42.273  59.164 -52.581  1.00  0.00    -0.248 N 
HETATM    5  C   UNL     1     -43.204  59.327 -53.573  1.00  0.00     0.151 A 
ENDROOT
BRANCH   4   6
HETATM    6  C   UNL     1     -42.444  58.593 -51.266  1.00  0.00     0.251 C 
BRANCH   6   7
HETATM    7  C   UNL     1     -41.513  57.410 -51.084  1.00  0.00     0.241 C 
HETATM    8  N   UNL     1     -41.878  56.299 -51.832  1.00  0.00    -0.326 N 
HETATM    9  H   UNL     1     -42.734  56.385 -52.380  1.00  0.00     0.169 HD
HETATM   10  O   UNL     1     -40.523  57.506 -50.365  1.00  0.00    -0.271 OA
BRANCH   8  11
HETATM   11  C   UNL     1     -41.272  55.028 -51.853  1.00  0.00     0.036 A 
HETATM   12  C   UNL     1     -41.004  54.301 -53.010  1.00  0.00     0.056 A 
HETATM   13  C   UNL     1     -40.382  53.049 -52.926  1.00  0.00     0.069 A 
HETATM   14 CL   UNL     1     -40.067  52.203 -54.405  1.00  0.00    -0.081 Cl
HETATM   15  C   UNL     1     -40.028  52.495 -51.686  1.00  0.00     0.090 A 
HETATM   16  C   UNL     1     -40.292  53.231 -50.530  1.00  0.00     0.041 A 
HETATM   17  C   UNL     1     -40.908  54.485 -50.614  1.00  0.00     0.032 A 
BRANCH  15  18
HETATM   18  O   UNL     1     -39.425  51.266 -51.698  1.00  0.00    -0.354 OA
HETATM   19  C   UNL     1     -39.846  50.317 -50.726  1.00  0.00     0.210 C 
ENDBRANCH  15  18
ENDBRANCH   8  11
ENDBRANCH   6   7
ENDBRANCH   4   6
BRANCH   5  20
HETATM   20  N   UNL     1     -44.530  59.116 -53.410  1.00  0.00    -0.382 N 
HETATM   21  H   UNL     1     -45.052  58.367 -53.860  1.00  0.00     0.157 HD
HETATM   22  H   UNL     1     -45.123  59.907 -53.142  1.00  0.00     0.157 HD
ENDBRANCH   5  20
BRANCH   1  23
HETATM   23  C   UNL     1     -42.898  59.913 -56.038  1.00  0.00     0.275 C 
HETATM   24  N   UNL     1     -42.004  59.484 -56.994  1.00  0.00    -0.351 N 
HETATM   25  H   UNL     1     -41.166  59.014 -56.672  1.00  0.00     0.163 HD
HETATM   26  O   UNL     1     -43.995  60.397 -56.305  1.00  0.00    -0.266 OA
BRANCH  24  27
HETATM   27  C   UNL     1     -42.335  59.434 -58.396  1.00  0.00     0.161 C 
BRANCH  27  28
HETATM   28  C   UNL     1     -42.941  58.102 -58.767  1.00  0.00    -0.041 A 
HETATM   29  C   UNL     1     -43.674  57.956 -59.954  1.00  0.00     0.009 A 
HETATM   30  C   UNL     1     -44.224  56.722 -60.306  1.00  0.00     0.007 A 
HETATM   31  C   UNL     1     -44.053  55.607 -59.478  1.00  0.00    -0.062 A 
HETATM   32  C   UNL     1     -44.607  54.269 -59.866  1.00  0.00     0.048 C 
HETATM   33  C   UNL     1     -43.308  55.745 -58.301  1.00  0.00     0.007 A 
HETATM   34  C   UNL     1     -42.760  56.982 -57.947  1.00  0.00     0.009 A 
ENDBRANCH  27  28
ENDBRANCH  24  27
ENDBRANCH   1  23
TORSDOF 8
ENDMDL
MODEL 9
REMARK VINA RESULT:      -7.7      1.958      2.184
REMARK  8 active torsions:
REMARK  status: ('A' for Active; 'I' for Inactive)
REMARK    1  A    between atoms: C_5  and  C_6 
REMARK    2  A    between atoms: C_6  and  N_7 
REMARK       I    between atoms: N_7  and  C_8 
REMARK    3  A    between atoms: C_8  and  C_9 
REMARK    4  A    between atoms: N_12  and  C_13 
REMARK    5  A    between atoms: C_13  and  C_14 
REMARK       I    between atoms: C_14  and  N_15 
REMARK    6  A    between atoms: N_15  and  C_16 
REMARK    7  A    between atoms: C_20  and  O_21 
REMARK    8  A    between atoms: C_26  and  N_27 
ROOT
HETATM    1  C   UNL     1     -41.489  57.711 -51.835  1.00  0.00     0.186 A 
HETATM    2  N   UNL     1     -40.455  58.587 -52.099  1.00  0.00    -0.150 NA
HETATM    3  N   UNL     1     -40.922  59.569 -52.855  1.00  0.00     0.007 NA
HETATM    4  N   UNL     1     -42.236  59.327 -53.064  1.00  0.00    -0.248 N 
HETATM    5  C   UNL     1     -42.640  58.166 -52.458  1.00  0.00     0.151 A 
ENDROOT
BRANCH   4   6
HETATM    6  C   UNL     1     -43.042  60.348 -53.691  1.00  0.00     0.251 C 
BRANCH   6   7
HETATM    7  C   UNL     1     -43.882  61.062 -52.651  1.00  0.00     0.241 C 
HETATM    8  N   UNL     1     -43.182  61.374 -51.493  1.00  0.00    -0.326 N 
HETATM    9  H   UNL     1     -42.212  61.062 -51.455  1.00  0.00     0.169 HD
HETATM   10  O   UNL     1     -45.052  61.347 -52.889  1.00  0.00    -0.271 OA
BRANCH   8  11
HETATM   11  C   UNL     1     -43.670  61.979 -50.319  1.00  0.00     0.036 A 
HETATM   12  C   UNL     1     -44.182  61.280 -49.228  1.00  0.00     0.056 A 
HETATM   13  C   UNL     1     -44.630  61.974 -48.096  1.00  0.00     0.069 A 
HETATM   14 CL   UNL     1     -45.244  61.045 -46.769  1.00  0.00    -0.081 Cl
HETATM   15  C   UNL     1     -44.586  63.376 -48.039  1.00  0.00     0.090 A 
HETATM   16  C   UNL     1     -44.066  64.070 -49.132  1.00  0.00     0.041 A 
HETATM   17  C   UNL     1     -43.612  63.376 -50.259  1.00  0.00     0.032 A 
BRANCH  15  18
HETATM   18  O   UNL     1     -45.047  63.971 -46.894  1.00  0.00    -0.354 OA
HETATM   19  C   UNL     1     -46.346  64.546 -46.929  1.00  0.00     0.210 C 
ENDBRANCH  15  18
ENDBRANCH   8  11
ENDBRANCH   6   7
ENDBRANCH   4   6
BRANCH   5  20
HETATM   20  N   UNL     1     -43.906  57.693 -52.495  1.00  0.00    -0.382 N 
HETATM   21  H   UNL     1     -44.342  57.160 -51.745  1.00  0.00     0.157 HD
HETATM   22  H   UNL     1     -44.340  57.522 -53.407  1.00  0.00     0.157 HD
ENDBRANCH   5  20
BRANCH   1  23
HETATM   23  C   UNL     1     -41.345  56.550 -50.966  1.00  0.00     0.275 C 
HETATM   24  N   UNL     1     -41.036  55.391 -51.642  1.00  0.00    -0.351 N 
HETATM   25  H   UNL     1     -40.882  55.460 -52.641  1.00  0.00     0.163 HD
HETATM   26  O   UNL     1     -41.448  56.615 -49.744  1.00  0.00    -0.266 OA
BRANCH  24  27
HETATM   27  C   UNL     1     -40.663  54.175 -50.963  1.00  0.00     0.161 C 
BRANCH  27  28
HETATM   28  C   UNL     1     -40.389  53.063 -51.946  1.00  0.00    -0.041 A 
HETATM   29  C   UNL     1     -39.751  51.884 -51.531  1.00  0.00     0.009 A 
HETATM   30  C   UNL     1     -39.509  50.848 -52.436  1.00  0.00     0.007 A 
HETATM   31  C   UNL     1     -39.900  50.968 -53.773  1.00  0.00    -0.062 A 
HETATM   32  C   UNL     1     -39.679  49.846 -54.743  1.00  0.00     0.048 C 
HETATM   33  C   UNL     1     -40.552  52.136 -54.187  1.00  0.00     0.007 A 
HETATM   34  C   UNL     1     -40.791  53.175 -53.282  1.00  0.00     0.009 A 
ENDBRANCH  27  28
ENDBRANCH  24  27
ENDBRANCH   1  23
TORSDOF 8
ENDMDL
MODEL 10
REMARK VINA RESULT:      -7.5      3.523     10.723
REMARK  8 active torsions:
REMARK  status: ('A' for Active; 'I' for Inactive)
REMARK    1  A    between atoms: C_5  and  C_6 
REMARK    2  A    between atoms: C_6  and  N_7 
REMARK       I    between atoms: N_7  and  C_8 
REMARK    3  A    between atoms: C_8  and  C_9 
REMARK    4  A    between atoms: N_12  and  C_13 
REMARK    5  A    between atoms: C_13  and  C_14 
REMARK       I    between atoms: C_14  and  N_15 
REMARK    6  A    between atoms: N_15  and  C_16 
REMARK    7  A    between atoms: C_20  and  O_21 
REMARK    8  A    between atoms: C_26  and  N_27 
ROOT
HETATM    1  C   UNL     1     -43.626  60.681 -50.566  1.00  0.00     0.186 A 
HETATM    2  N   UNL     1     -42.327  60.401 -50.192  1.00  0.00    -0.150 NA
HETATM    3  N   UNL     1     -41.823  59.529 -51.052  1.00  0.00     0.007 NA
HETATM    4  N   UNL     1     -42.783  59.262 -51.965  1.00  0.00    -0.248 N 
HETATM    5  C   UNL     1     -43.939  59.948 -51.699  1.00  0.00     0.151 A 
ENDROOT
BRANCH   4   6
HETATM    6  C   UNL     1     -42.437  58.494 -53.137  1.00  0.00     0.251 C 
BRANCH   6   7
HETATM    7  C   UNL     1     -42.332  57.023 -52.786  1.00  0.00     0.241 C 
HETATM    8  N   UNL     1     -41.222  56.400 -53.340  1.00  0.00    -0.326 N 
HETATM    9  H   UNL     1     -40.633  56.977 -53.939  1.00  0.00     0.169 HD
HETATM   10  O   UNL     1     -43.159  56.503 -52.042  1.00  0.00    -0.271 OA
BRANCH   8  11
HETATM   11  C   UNL     1     -40.859  55.041 -53.263  1.00  0.00     0.036 A 
HETATM   12  C   UNL     1     -40.758  54.319 -52.077  1.00  0.00     0.056 A 
HETATM   13  C   UNL     1     -40.405  52.964 -52.106  1.00  0.00     0.069 A 
HETATM   14 CL   UNL     1     -40.308  52.121 -50.596  1.00  0.00    -0.081 Cl
HETATM   15  C   UNL     1     -40.135  52.309 -53.318  1.00  0.00     0.090 A 
HETATM   16  C   UNL     1     -40.245  53.036 -54.505  1.00  0.00     0.041 A 
HETATM   17  C   UNL     1     -40.605  54.388 -54.475  1.00  0.00     0.032 A 
BRANCH  15  18
HETATM   18  O   UNL     1     -39.796  50.984 -53.253  1.00  0.00    -0.354 OA
HETATM   19  C   UNL     1     -40.178  50.153 -54.341  1.00  0.00     0.210 C 
ENDBRANCH  15  18
ENDBRANCH   8  11
ENDBRANCH   6   7
ENDBRANCH   4   6
BRANCH   5  20
HETATM   20  N   UNL     1     -45.055  59.877 -52.461  1.00  0.00    -0.382 N 
HETATM   21  H   UNL     1     -45.147  60.294 -53.385  1.00  0.00     0.157 HD
HETATM   22  H   UNL     1     -45.957  59.737 -51.997  1.00  0.00     0.157 HD
ENDBRANCH   5  20
BRANCH   1  23
HETATM   23  C   UNL     1     -44.456  61.662 -49.880  1.00  0.00     0.275 C 
HETATM   24  N   UNL     1     -45.449  61.101 -49.109  1.00  0.00    -0.351 N 
HETATM   25  H   UNL     1     -45.473  60.090 -49.042  1.00  0.00     0.163 HD
HETATM   26  O   UNL     1     -44.258  62.872 -49.953  1.00  0.00    -0.266 OA
BRANCH  24  27
HETATM   27  C   UNL     1     -46.257  61.877 -48.202  1.00  0.00     0.161 C 
BRANCH  27  28
HETATM   28  C   UNL     1     -45.592  62.009 -46.854  1.00  0.00    -0.041 A 
HETATM   29  C   UNL     1     -45.008  60.896 -46.232  1.00  0.00     0.009 A 
HETATM   30  C   UNL     1     -44.380  61.020 -44.990  1.00  0.00     0.007 A 
HETATM   31  C   UNL     1     -44.321  62.259 -44.346  1.00  0.00    -0.062 A 
HETATM   32  C   UNL     1     -43.617  62.409 -43.031  1.00  0.00     0.048 C 
HETATM   33  C   UNL     1     -44.888  63.376 -44.971  1.00  0.00     0.007 A 
HETATM   34  C   UNL     1     -45.520  63.252 -46.212  1.00  0.00     0.009 A 
ENDBRANCH  27  28
ENDBRANCH  24  27
ENDBRANCH   1  23
TORSDOF 8
ENDMDL
