MODEL 1
REMARK VINA RESULT:      -8.9      0.000      0.000
REMARK  7 active torsions:
REMARK  status: ('A' for Active; 'I' for Inactive)
REMARK    1  A    between atoms: C_3  and  C_4 
REMARK       I    between atoms: C_4  and  N_5 
REMARK    2  A    between atoms: N_8  and  C_9 
REMARK    3  A    between atoms: C_12  and  N_13 
REMARK    4  A    between atoms: N_13  and  C_14 
REMARK    5  A    between atoms: C_14  and  N_15 
REMARK       I    between atoms: N_15  and  C_16 
REMARK    6  A    between atoms: C_16  and  C_17 
REMARK    7  A    between atoms: C_19  and  O_20 
ROOT
HETATM    1  C   UNL     1     -43.707  57.077 -53.574  1.00  0.00     0.030 A 
HETATM    2  C   UNL     1     -43.406  58.432 -53.379  1.00  0.00     0.031 A 
HETATM    3  C   UNL     1     -44.113  59.443 -54.039  1.00  0.00     0.026 A 
HETATM    4  C   UNL     1     -45.151  59.119 -54.915  1.00  0.00     0.014 A 
HETATM    5  C   UNL     1     -45.526  57.784 -55.052  1.00  0.00     0.026 A 
HETATM    6  C   UNL     1     -44.800  56.775 -54.396  1.00  0.00     0.031 A 
ENDROOT
BRANCH   4   7
HETATM    7  N   UNL     1     -45.701  60.175 -55.708  1.00  0.00    -0.236 NA
HETATM    8  H   UNL     1     -45.279  61.054 -55.417  1.00  0.00     0.136 HD
BRANCH   7   9
HETATM    9  C   UNL     1     -45.748  60.069 -57.070  1.00  0.00     0.157 C 
HETATM   10  S   UNL     1     -47.151  59.628 -57.862  1.00  0.00    -0.047 SA
BRANCH   9  11
HETATM   11  N   UNL     1     -44.592  60.247 -57.790  1.00  0.00    -0.304 N 
HETATM   12  C   UNL     1     -43.364  59.624 -57.659  1.00  0.00     0.257 C 
HETATM   13  O   UNL     1     -42.368  60.281 -57.366  1.00  0.00    -0.267 OA
HETATM   14  H   UNL     1     -44.495  61.221 -58.052  1.00  0.00     0.171 HD
BRANCH  12  15
HETATM   15  C   UNL     1     -43.245  58.190 -58.086  1.00  0.00     0.035 A 
HETATM   16  C   UNL     1     -43.700  57.860 -59.376  1.00  0.00     0.053 A 
HETATM   17  C   UNL     1     -43.734  56.528 -59.799  1.00  0.00     0.069 A 
HETATM   18  C   UNL     1     -43.252  55.525 -58.960  1.00  0.00     0.037 A 
HETATM   19  C   UNL     1     -42.800  55.838 -57.680  1.00  0.00     0.004 A 
HETATM   20  C   UNL     1     -42.819  57.161 -57.237  1.00  0.00     0.017 A 
BRANCH  17  21
HETATM   21  O   UNL     1     -44.206  56.096 -61.009  1.00  0.00    -0.356 OA
HETATM   22  C   UNL     1     -44.985  54.905 -60.970  1.00  0.00     0.210 C 
ENDBRANCH  17  21
ENDBRANCH  12  15
ENDBRANCH   9  11
ENDBRANCH   7   9
ENDBRANCH   4   7
BRANCH   1  23
HETATM   23  N   UNL     1     -42.873  56.114 -53.001  1.00  0.00    -0.378 N 
HETATM   24  C   UNL     1     -41.717  56.573 -52.204  1.00  0.00     0.143 C 
HETATM   25  C   UNL     1     -41.200  55.419 -51.330  1.00  0.00     0.146 C 
HETATM   26  N   UNL     1     -40.935  54.191 -52.090  1.00  0.00    -0.345 N 
HETATM   27  C   UNL     1     -40.024  53.292 -51.534  1.00  0.00     0.254 C 
HETATM   28  C   UNL     1     -41.984  53.802 -53.049  1.00  0.00     0.146 C 
HETATM   29  O   UNL     1     -39.309  53.551 -50.569  1.00  0.00    -0.267 OA
HETATM   30  C   UNL     1     -42.532  54.979 -53.883  1.00  0.00     0.143 C 
BRANCH  27  31
HETATM   31  C   UNL     1     -39.875  51.960 -52.156  1.00  0.00     0.038 A 
HETATM   32  C   UNL     1     -39.959  50.772 -51.408  1.00  0.00    -0.046 A 
HETATM   33  C   UNL     1     -40.243  50.758 -49.933  1.00  0.00     0.049 C 
HETATM   34  C   UNL     1     -39.805  49.552 -52.083  1.00  0.00     0.007 A 
HETATM   35  C   UNL     1     -39.531  49.522 -53.454  1.00  0.00     0.001 A 
HETATM   36  C   UNL     1     -39.412  50.709 -54.173  1.00  0.00     0.001 A 
HETATM   37  C   UNL     1     -39.584  51.931 -53.526  1.00  0.00     0.017 A 
ENDBRANCH  27  31
ENDBRANCH   1  23
TORSDOF 7
ENDMDL
MODEL 2
REMARK VINA RESULT:      -8.8      3.603      5.029
REMARK  7 active torsions:
REMARK  status: ('A' for Active; 'I' for Inactive)
REMARK    1  A    between atoms: C_3  and  C_4 
REMARK       I    between atoms: C_4  and  N_5 
REMARK    2  A    between atoms: N_8  and  C_9 
REMARK    3  A    between atoms: C_12  and  N_13 
REMARK    4  A    between atoms: N_13  and  C_14 
REMARK    5  A    between atoms: C_14  and  N_15 
REMARK       I    between atoms: N_15  and  C_16 
REMARK    6  A    between atoms: C_16  and  C_17 
REMARK    7  A    between atoms: C_19  and  O_20 
ROOT
HETATM    1  C   UNL     1     -43.962  57.031 -52.433  1.00  0.00     0.030 A 
HETATM    2  C   UNL     1     -44.363  57.204 -51.100  1.00  0.00     0.031 A 
HETATM    3  C   UNL     1     -45.234  58.234 -50.725  1.00  0.00     0.026 A 
HETATM    4  C   UNL     1     -45.732  59.119 -51.682  1.00  0.00     0.014 A 
HETATM    5  C   UNL     1     -45.418  58.907 -53.024  1.00  0.00     0.026 A 
HETATM    6  C   UNL     1     -44.532  57.880 -53.389  1.00  0.00     0.031 A 
ENDROOT
BRANCH   4   7
HETATM    7  N   UNL     1     -46.452  60.263 -51.215  1.00  0.00    -0.236 NA
HETATM    8  H   UNL     1     -47.183  59.950 -50.581  1.00  0.00     0.136 HD
BRANCH   7   9
HETATM    9  C   UNL     1     -45.786  61.347 -50.716  1.00  0.00     0.157 C 
HETATM   10  S   UNL     1     -46.048  61.889 -49.158  1.00  0.00    -0.047 SA
BRANCH   9  11
HETATM   11  N   UNL     1     -44.946  62.050 -51.544  1.00  0.00    -0.304 N 
HETATM   12  C   UNL     1     -43.595  62.318 -51.412  1.00  0.00     0.257 C 
HETATM   13  O   UNL     1     -43.205  63.479 -51.307  1.00  0.00    -0.267 OA
HETATM   14  H   UNL     1     -45.444  62.824 -51.966  1.00  0.00     0.171 HD
BRANCH  12  15
HETATM   15  C   UNL     1     -42.623  61.192 -51.611  1.00  0.00     0.035 A 
HETATM   16  C   UNL     1     -42.314  60.833 -52.935  1.00  0.00     0.053 A 
HETATM   17  C   UNL     1     -41.513  59.718 -53.201  1.00  0.00     0.069 A 
HETATM   18  C   UNL     1     -40.963  58.995 -52.143  1.00  0.00     0.037 A 
HETATM   19  C   UNL     1     -41.262  59.341 -50.827  1.00  0.00     0.004 A 
HETATM   20  C   UNL     1     -42.108  60.419 -50.563  1.00  0.00     0.017 A 
BRANCH  17  21
HETATM   21  O   UNL     1     -41.197  59.253 -54.448  1.00  0.00    -0.356 OA
HETATM   22  C   UNL     1     -42.078  59.656 -55.492  1.00  0.00     0.210 C 
ENDBRANCH  17  21
ENDBRANCH  12  15
ENDBRANCH   9  11
ENDBRANCH   7   9
ENDBRANCH   4   7
BRANCH   1  23
HETATM   23  N   UNL     1     -42.981  56.079 -52.720  1.00  0.00    -0.378 N 
HETATM   24  C   UNL     1     -42.637  55.831 -54.134  1.00  0.00     0.143 C 
HETATM   25  C   UNL     1     -41.285  55.103 -54.219  1.00  0.00     0.146 C 
HETATM   26  N   UNL     1     -41.224  53.898 -53.382  1.00  0.00    -0.345 N 
HETATM   27  C   UNL     1     -40.296  52.924 -53.752  1.00  0.00     0.254 C 
HETATM   28  C   UNL     1     -41.745  54.051 -52.013  1.00  0.00     0.146 C 
HETATM   29  O   UNL     1     -39.681  52.933 -54.816  1.00  0.00    -0.267 OA
HETATM   30  C   UNL     1     -43.076  54.830 -51.937  1.00  0.00     0.143 C 
BRANCH  27  31
HETATM   31  C   UNL     1     -40.056  51.791 -52.834  1.00  0.00     0.038 A 
HETATM   32  C   UNL     1     -39.926  50.470 -53.297  1.00  0.00    -0.046 A 
HETATM   33  C   UNL     1     -39.983  50.108 -54.753  1.00  0.00     0.049 C 
HETATM   34  C   UNL     1     -39.699  49.456 -52.352  1.00  0.00     0.007 A 
HETATM   35  C   UNL     1     -39.649  49.750 -50.987  1.00  0.00     0.001 A 
HETATM   36  C   UNL     1     -39.818  51.059 -50.541  1.00  0.00     0.001 A 
HETATM   37  C   UNL     1     -40.021  52.083 -51.465  1.00  0.00     0.017 A 
ENDBRANCH  27  31
ENDBRANCH   1  23
TORSDOF 7
ENDMDL
MODEL 3
REMARK VINA RESULT:      -8.8      3.105      4.167
REMARK  7 active torsions:
REMARK  status: ('A' for Active; 'I' for Inactive)
REMARK    1  A    between atoms: C_3  and  C_4 
REMARK       I    between atoms: C_4  and  N_5 
REMARK    2  A    between atoms: N_8  and  C_9 
REMARK    3  A    between atoms: C_12  and  N_13 
REMARK    4  A    between atoms: N_13  and  C_14 
REMARK    5  A    between atoms: C_14  and  N_15 
REMARK       I    between atoms: N_15  and  C_16 
REMARK    6  A    between atoms: C_16  and  C_17 
REMARK    7  A    between atoms: C_19  and  O_20 
ROOT
HETATM    1  C   UNL     1     -44.051  56.985 -52.059  1.00  0.00     0.030 A 
HETATM    2  C   UNL     1     -44.694  57.552 -50.950  1.00  0.00     0.031 A 
HETATM    3  C   UNL     1     -45.544  58.656 -51.080  1.00  0.00     0.026 A 
HETATM    4  C   UNL     1     -45.776  59.222 -52.335  1.00  0.00     0.014 A 
HETATM    5  C   UNL     1     -45.220  58.616 -53.461  1.00  0.00     0.026 A 
HETATM    6  C   UNL     1     -44.357  57.517 -53.318  1.00  0.00     0.031 A 
ENDROOT
BRANCH   4   7
HETATM    7  N   UNL     1     -46.489  60.460 -52.381  1.00  0.00    -0.236 NA
HETATM    8  H   UNL     1     -47.437  60.302 -52.048  1.00  0.00     0.136 HD
BRANCH   7   9
HETATM    9  C   UNL     1     -45.950  61.592 -51.837  1.00  0.00     0.157 C 
HETATM   10  S   UNL     1     -46.391  62.124 -50.316  1.00  0.00    -0.047 SA
BRANCH   9  11
HETATM   11  N   UNL     1     -45.091  62.349 -52.595  1.00  0.00    -0.304 N 
HETATM   12  C   UNL     1     -43.732  62.557 -52.447  1.00  0.00     0.257 C 
HETATM   13  O   UNL     1     -43.301  63.687 -52.226  1.00  0.00    -0.267 OA
HETATM   14  H   UNL     1     -45.565  63.179 -52.931  1.00  0.00     0.171 HD
BRANCH  12  15
HETATM   15  C   UNL     1     -42.799  61.426 -52.770  1.00  0.00     0.035 A 
HETATM   16  C   UNL     1     -42.609  61.113 -54.128  1.00  0.00     0.053 A 
HETATM   17  C   UNL     1     -41.853  59.998 -54.502  1.00  0.00     0.069 A 
HETATM   18  C   UNL     1     -41.228  59.228 -53.522  1.00  0.00     0.037 A 
HETATM   19  C   UNL     1     -41.409  59.527 -52.174  1.00  0.00     0.004 A 
HETATM   20  C   UNL     1     -42.210  60.606 -51.799  1.00  0.00     0.017 A 
BRANCH  17  21
HETATM   21  O   UNL     1     -41.652  59.576 -55.788  1.00  0.00    -0.356 OA
HETATM   22  C   UNL     1     -42.539  60.126 -56.757  1.00  0.00     0.210 C 
ENDBRANCH  17  21
ENDBRANCH  12  15
ENDBRANCH   9  11
ENDBRANCH   7   9
ENDBRANCH   4   7
BRANCH   1  23
HETATM   23  N   UNL     1     -43.104  55.980 -51.846  1.00  0.00    -0.378 N 
HETATM   24  C   UNL     1     -41.846  56.337 -51.159  1.00  0.00     0.143 C 
HETATM   25  C   UNL     1     -41.156  55.062 -50.647  1.00  0.00     0.146 C 
HETATM   26  N   UNL     1     -40.986  54.039 -51.686  1.00  0.00    -0.345 N 
HETATM   27  C   UNL     1     -39.969  53.105 -51.487  1.00  0.00     0.254 C 
HETATM   28  C   UNL     1     -42.167  53.791 -52.530  1.00  0.00     0.146 C 
HETATM   29  O   UNL     1     -39.111  53.203 -50.613  1.00  0.00    -0.267 OA
HETATM   30  C   UNL     1     -42.882  55.079 -52.994  1.00  0.00     0.143 C 
BRANCH  27  31
HETATM   31  C   UNL     1     -39.885  51.943 -52.397  1.00  0.00     0.038 A 
HETATM   32  C   UNL     1     -39.839  50.622 -51.920  1.00  0.00    -0.046 A 
HETATM   33  C   UNL     1     -39.909  50.281 -50.459  1.00  0.00     0.049 C 
HETATM   34  C   UNL     1     -39.761  49.581 -52.859  1.00  0.00     0.007 A 
HETATM   35  C   UNL     1     -39.686  49.856 -54.227  1.00  0.00     0.001 A 
HETATM   36  C   UNL     1     -39.693  51.173 -54.682  1.00  0.00     0.001 A 
HETATM   37  C   UNL     1     -39.793  52.220 -53.767  1.00  0.00     0.017 A 
ENDBRANCH  27  31
ENDBRANCH   1  23
TORSDOF 7
ENDMDL
MODEL 4
REMARK VINA RESULT:      -8.5      2.489      3.803
REMARK  7 active torsions:
REMARK  status: ('A' for Active; 'I' for Inactive)
REMARK    1  A    between atoms: C_3  and  C_4 
REMARK       I    between atoms: C_4  and  N_5 
REMARK    2  A    between atoms: N_8  and  C_9 
REMARK    3  A    between atoms: C_12  and  N_13 
REMARK    4  A    between atoms: N_13  and  C_14 
REMARK    5  A    between atoms: C_14  and  N_15 
REMARK       I    between atoms: N_15  and  C_16 
REMARK    6  A    between atoms: C_16  and  C_17 
REMARK    7  A    between atoms: C_19  and  O_20 
ROOT
HETATM    1  C   UNL     1     -43.168  58.540 -56.037  1.00  0.00     0.030 A 
HETATM    2  C   UNL     1     -44.431  58.903 -56.526  1.00  0.00     0.031 A 
HETATM    3  C   UNL     1     -44.611  60.043 -57.318  1.00  0.00     0.026 A 
HETATM    4  C   UNL     1     -43.521  60.851 -57.647  1.00  0.00     0.014 A 
HETATM    5  C   UNL     1     -42.245  60.457 -57.248  1.00  0.00     0.026 A 
HETATM    6  C   UNL     1     -42.077  59.320 -56.441  1.00  0.00     0.031 A 
ENDROOT
BRANCH   4   7
HETATM    7  N   UNL     1     -43.793  62.101 -58.287  1.00  0.00    -0.236 NA
HETATM    8  H   UNL     1     -43.364  62.845 -57.742  1.00  0.00     0.136 HD
BRANCH   7   9
HETATM    9  C   UNL     1     -43.560  62.262 -59.624  1.00  0.00     0.157 C 
HETATM   10  S   UNL     1     -42.509  63.429 -60.191  1.00  0.00    -0.047 SA
BRANCH   9  11
HETATM   11  N   UNL     1     -44.272  61.501 -60.518  1.00  0.00    -0.304 N 
HETATM   12  C   UNL     1     -43.831  60.529 -61.399  1.00  0.00     0.257 C 
HETATM   13  O   UNL     1     -43.965  60.688 -62.610  1.00  0.00    -0.267 OA
HETATM   14  H   UNL     1     -45.033  62.044 -60.907  1.00  0.00     0.171 HD
BRANCH  12  15
HETATM   15  C   UNL     1     -43.388  59.209 -60.838  1.00  0.00     0.035 A 
HETATM   16  C   UNL     1     -44.391  58.292 -60.475  1.00  0.00     0.053 A 
HETATM   17  C   UNL     1     -44.062  57.094 -59.835  1.00  0.00     0.069 A 
HETATM   18  C   UNL     1     -42.723  56.774 -59.614  1.00  0.00     0.037 A 
HETATM   19  C   UNL     1     -41.720  57.673 -59.969  1.00  0.00     0.004 A 
HETATM   20  C   UNL     1     -42.053  58.895 -60.556  1.00  0.00     0.017 A 
BRANCH  17  21
HETATM   21  O   UNL     1     -44.962  56.162 -59.393  1.00  0.00    -0.356 OA
HETATM   22  C   UNL     1     -44.831  54.866 -59.970  1.00  0.00     0.210 C 
ENDBRANCH  17  21
ENDBRANCH  12  15
ENDBRANCH   9  11
ENDBRANCH   7   9
ENDBRANCH   4   7
BRANCH   1  23
HETATM   23  N   UNL     1     -43.077  57.479 -55.134  1.00  0.00    -0.378 N 
HETATM   24  C   UNL     1     -44.328  56.855 -54.657  1.00  0.00     0.143 C 
HETATM   25  C   UNL     1     -44.020  55.480 -54.042  1.00  0.00     0.146 C 
HETATM   26  N   UNL     1     -42.964  55.526 -53.023  1.00  0.00    -0.345 N 
HETATM   27  C   UNL     1     -42.958  54.499 -52.078  1.00  0.00     0.254 C 
HETATM   28  C   UNL     1     -41.770  56.310 -53.384  1.00  0.00     0.146 C 
HETATM   29  O   UNL     1     -43.873  53.691 -51.940  1.00  0.00    -0.267 OA
HETATM   30  C   UNL     1     -42.093  57.665 -54.049  1.00  0.00     0.143 C 
BRANCH  27  31
HETATM   31  C   UNL     1     -41.806  54.389 -51.159  1.00  0.00     0.038 A 
HETATM   32  C   UNL     1     -40.671  53.621 -51.471  1.00  0.00    -0.046 A 
HETATM   33  C   UNL     1     -40.521  52.884 -52.771  1.00  0.00     0.049 C 
HETATM   34  C   UNL     1     -39.625  53.574 -50.538  1.00  0.00     0.007 A 
HETATM   35  C   UNL     1     -39.729  54.239 -49.313  1.00  0.00     0.001 A 
HETATM   36  C   UNL     1     -40.877  54.965 -49.001  1.00  0.00     0.001 A 
HETATM   37  C   UNL     1     -41.918  55.042 -49.925  1.00  0.00     0.017 A 
ENDBRANCH  27  31
ENDBRANCH   1  23
TORSDOF 7
ENDMDL
MODEL 5
REMARK VINA RESULT:      -8.3      2.312      2.975
REMARK  7 active torsions:
REMARK  status: ('A' for Active; 'I' for Inactive)
REMARK    1  A    between atoms: C_3  and  C_4 
REMARK       I    between atoms: C_4  and  N_5 
REMARK    2  A    between atoms: N_8  and  C_9 
REMARK    3  A    between atoms: C_12  and  N_13 
REMARK    4  A    between atoms: N_13  and  C_14 
REMARK    5  A    between atoms: C_14  and  N_15 
REMARK       I    between atoms: N_15  and  C_16 
REMARK    6  A    between atoms: C_16  and  C_17 
REMARK    7  A    between atoms: C_19  and  O_20 
ROOT
HETATM    1  C   UNL     1     -43.267  58.784 -55.461  1.00  0.00     0.030 A 
HETATM    2  C   UNL     1     -42.117  59.538 -55.733  1.00  0.00     0.031 A 
HETATM    3  C   UNL     1     -42.162  60.679 -56.543  1.00  0.00     0.026 A 
HETATM    4  C   UNL     1     -43.371  61.098 -57.100  1.00  0.00     0.014 A 
HETATM    5  C   UNL     1     -44.540  60.416 -56.767  1.00  0.00     0.026 A 
HETATM    6  C   UNL     1     -44.482  59.264 -55.965  1.00  0.00     0.031 A 
ENDROOT
BRANCH   4   7
HETATM    7  N   UNL     1     -43.323  62.146 -58.073  1.00  0.00    -0.236 NA
HETATM    8  H   UNL     1     -43.283  63.039 -57.587  1.00  0.00     0.136 HD
BRANCH   7   9
HETATM    9  C   UNL     1     -42.427  62.096 -59.103  1.00  0.00     0.157 C 
HETATM   10  S   UNL     1     -40.966  62.903 -59.028  1.00  0.00    -0.047 SA
BRANCH   9  11
HETATM   11  N   UNL     1     -42.775  61.435 -60.256  1.00  0.00    -0.304 N 
HETATM   12  C   UNL     1     -42.367  60.199 -60.723  1.00  0.00     0.257 C 
HETATM   13  O   UNL     1     -41.746  60.113 -61.780  1.00  0.00    -0.267 OA
HETATM   14  H   UNL     1     -42.905  62.099 -61.010  1.00  0.00     0.171 HD
BRANCH  12  15
HETATM   15  C   UNL     1     -42.880  58.971 -60.028  1.00  0.00     0.035 A 
HETATM   16  C   UNL     1     -44.267  58.741 -60.063  1.00  0.00     0.053 A 
HETATM   17  C   UNL     1     -44.832  57.688 -59.338  1.00  0.00     0.069 A 
HETATM   18  C   UNL     1     -44.006  56.818 -58.627  1.00  0.00     0.037 A 
HETATM   19  C   UNL     1     -42.631  57.035 -58.584  1.00  0.00     0.004 A 
HETATM   20  C   UNL     1     -42.073  58.120 -59.261  1.00  0.00     0.017 A 
BRANCH  17  21
HETATM   21  O   UNL     1     -46.170  57.410 -59.261  1.00  0.00    -0.356 OA
HETATM   22  C   UNL     1     -46.623  56.352 -60.100  1.00  0.00     0.210 C 
ENDBRANCH  17  21
ENDBRANCH  12  15
ENDBRANCH   9  11
ENDBRANCH   7   9
ENDBRANCH   4   7
BRANCH   1  23
HETATM   23  N   UNL     1     -43.131  57.579 -54.769  1.00  0.00    -0.378 N 
HETATM   24  C   UNL     1     -43.628  57.508 -53.379  1.00  0.00     0.143 C 
HETATM   25  C   UNL     1     -43.782  56.037 -52.959  1.00  0.00     0.146 C 
HETATM   26  N   UNL     1     -42.570  55.239 -53.188  1.00  0.00    -0.345 N 
HETATM   27  C   UNL     1     -42.420  54.089 -52.413  1.00  0.00     0.254 C 
HETATM   28  C   UNL     1     -41.926  55.431 -54.499  1.00  0.00     0.146 C 
HETATM   29  O   UNL     1     -43.127  53.818 -51.446  1.00  0.00    -0.267 OA
HETATM   30  C   UNL     1     -41.825  56.909 -54.933  1.00  0.00     0.143 C 
BRANCH  27  31
HETATM   31  C   UNL     1     -41.326  53.152 -52.742  1.00  0.00     0.038 A 
HETATM   32  C   UNL     1     -40.225  52.960 -51.890  1.00  0.00    -0.046 A 
HETATM   33  C   UNL     1     -40.089  53.657 -50.567  1.00  0.00     0.049 C 
HETATM   34  C   UNL     1     -39.233  52.049 -52.285  1.00  0.00     0.007 A 
HETATM   35  C   UNL     1     -39.318  51.385 -53.512  1.00  0.00     0.001 A 
HETATM   36  C   UNL     1     -40.397  51.616 -54.364  1.00  0.00     0.001 A 
HETATM   37  C   UNL     1     -41.403  52.500 -53.980  1.00  0.00     0.017 A 
ENDBRANCH  27  31
ENDBRANCH   1  23
TORSDOF 7
ENDMDL
MODEL 6
REMARK VINA RESULT:      -8.3      3.547      9.540
REMARK  7 active torsions:
REMARK  status: ('A' for Active; 'I' for Inactive)
REMARK    1  A    between atoms: C_3  and  C_4 
REMARK       I    between atoms: C_4  and  N_5 
REMARK    2  A    between atoms: N_8  and  C_9 
REMARK    3  A    between atoms: C_12  and  N_13 
REMARK    4  A    between atoms: N_13  and  C_14 
REMARK    5  A    between atoms: C_14  and  N_15 
REMARK       I    between atoms: N_15  and  C_16 
REMARK    6  A    between atoms: C_16  and  C_17 
REMARK    7  A    between atoms: C_19  and  O_20 
ROOT
HETATM    1  C   UNL     1     -42.450  56.657 -55.058  1.00  0.00     0.030 A 
HETATM    2  C   UNL     1     -41.212  56.174 -54.613  1.00  0.00     0.031 A 
HETATM    3  C   UNL     1     -41.113  55.014 -53.835  1.00  0.00     0.026 A 
HETATM    4  C   UNL     1     -42.262  54.302 -53.484  1.00  0.00     0.014 A 
HETATM    5  C   UNL     1     -43.492  54.714 -53.993  1.00  0.00     0.026 A 
HETATM    6  C   UNL     1     -43.582  55.887 -54.761  1.00  0.00     0.031 A 
ENDROOT
BRANCH   4   7
HETATM    7  N   UNL     1     -42.120  53.247 -52.529  1.00  0.00    -0.236 NA
HETATM    8  H   UNL     1     -41.827  52.404 -53.017  1.00  0.00     0.136 HD
BRANCH   7   9
HETATM    9  C   UNL     1     -41.398  53.439 -51.385  1.00  0.00     0.157 C 
HETATM   10  S   UNL     1     -39.903  52.728 -51.168  1.00  0.00    -0.047 SA
BRANCH   9  11
HETATM   11  N   UNL     1     -41.957  54.165 -50.361  1.00  0.00    -0.304 N 
HETATM   12  C   UNL     1     -41.557  55.369 -49.812  1.00  0.00     0.257 C 
HETATM   13  O   UNL     1     -41.215  55.426 -48.632  1.00  0.00    -0.267 OA
HETATM   14  H   UNL     1     -42.338  53.540 -49.661  1.00  0.00     0.171 HD
BRANCH  12  15
HETATM   15  C   UNL     1     -41.751  56.619 -50.620  1.00  0.00     0.035 A 
HETATM   16  C   UNL     1     -40.637  57.461 -50.786  1.00  0.00     0.053 A 
HETATM   17  C   UNL     1     -40.769  58.700 -51.421  1.00  0.00     0.069 A 
HETATM   18  C   UNL     1     -42.002  59.075 -51.952  1.00  0.00     0.037 A 
HETATM   19  C   UNL     1     -43.114  58.251 -51.794  1.00  0.00     0.004 A 
HETATM   20  C   UNL     1     -42.994  57.040 -51.110  1.00  0.00     0.017 A 
BRANCH  17  21
HETATM   21  O   UNL     1     -39.764  59.613 -51.586  1.00  0.00    -0.356 OA
HETATM   22  C   UNL     1     -38.775  59.626 -50.561  1.00  0.00     0.210 C 
ENDBRANCH  17  21
ENDBRANCH  12  15
ENDBRANCH   9  11
ENDBRANCH   7   9
ENDBRANCH   4   7
BRANCH   1  23
HETATM   23  N   UNL     1     -42.495  57.894 -55.705  1.00  0.00    -0.378 N 
HETATM   24  C   UNL     1     -43.624  58.799 -55.409  1.00  0.00     0.143 C 
HETATM   25  C   UNL     1     -43.276  60.227 -55.862  1.00  0.00     0.146 C 
HETATM   26  N   UNL     1     -42.821  60.296 -57.257  1.00  0.00    -0.345 N 
HETATM   27  C   UNL     1     -42.966  61.523 -57.904  1.00  0.00     0.254 C 
HETATM   28  C   UNL     1     -41.833  59.277 -57.651  1.00  0.00     0.146 C 
HETATM   29  O   UNL     1     -43.610  62.465 -57.448  1.00  0.00    -0.267 OA
HETATM   30  C   UNL     1     -42.167  57.857 -57.145  1.00  0.00     0.143 C 
BRANCH  27  31
HETATM   31  C   UNL     1     -42.345  61.701 -59.233  1.00  0.00     0.038 A 
HETATM   32  C   UNL     1     -42.936  61.203 -60.407  1.00  0.00    -0.046 A 
HETATM   33  C   UNL     1     -44.257  60.488 -60.412  1.00  0.00     0.049 C 
HETATM   34  C   UNL     1     -42.274  61.418 -61.625  1.00  0.00     0.007 A 
HETATM   35  C   UNL     1     -41.039  62.072 -61.662  1.00  0.00     0.001 A 
HETATM   36  C   UNL     1     -40.447  62.525 -60.485  1.00  0.00     0.001 A 
HETATM   37  C   UNL     1     -41.099  62.340 -59.268  1.00  0.00     0.017 A 
ENDBRANCH  27  31
ENDBRANCH   1  23
TORSDOF 7
ENDMDL
MODEL 7
REMARK VINA RESULT:      -8.2      2.941      8.518
REMARK  7 active torsions:
REMARK  status: ('A' for Active; 'I' for Inactive)
REMARK    1  A    between atoms: C_3  and  C_4 
REMARK       I    between atoms: C_4  and  N_5 
REMARK    2  A    between atoms: N_8  and  C_9 
REMARK    3  A    between atoms: C_12  and  N_13 
REMARK    4  A    between atoms: N_13  and  C_14 
REMARK    5  A    between atoms: C_14  and  N_15 
REMARK       I    between atoms: N_15  and  C_16 
REMARK    6  A    between atoms: C_16  and  C_17 
REMARK    7  A    between atoms: C_19  and  O_20 
ROOT
HETATM    1  C   UNL     1     -42.187  57.787 -53.708  1.00  0.00     0.030 A 
HETATM    2  C   UNL     1     -43.120  57.996 -52.682  1.00  0.00     0.031 A 
HETATM    3  C   UNL     1     -42.840  57.653 -51.354  1.00  0.00     0.026 A 
HETATM    4  C   UNL     1     -41.607  57.092 -51.018  1.00  0.00     0.014 A 
HETATM    5  C   UNL     1     -40.633  56.961 -52.006  1.00  0.00     0.026 A 
HETATM    6  C   UNL     1     -40.929  57.295 -53.339  1.00  0.00     0.031 A 
ENDROOT
BRANCH   4   7
HETATM    7  N   UNL     1     -41.452  56.581 -49.691  1.00  0.00    -0.236 NA
HETATM    8  H   UNL     1     -42.207  56.944 -49.113  1.00  0.00     0.136 HD
BRANCH   7   9
HETATM    9  C   UNL     1     -41.258  55.245 -49.479  1.00  0.00     0.157 C 
HETATM   10  S   UNL     1     -39.772  54.644 -49.009  1.00  0.00    -0.047 SA
BRANCH   9  11
HETATM   11  N   UNL     1     -42.288  54.375 -49.741  1.00  0.00    -0.304 N 
HETATM   12  C   UNL     1     -43.166  54.341 -50.809  1.00  0.00     0.257 C 
HETATM   13  O   UNL     1     -44.371  54.494 -50.621  1.00  0.00    -0.267 OA
HETATM   14  H   UNL     1     -42.735  54.097 -48.876  1.00  0.00     0.171 HD
BRANCH  12  15
HETATM   15  C   UNL     1     -42.643  53.909 -52.148  1.00  0.00     0.035 A 
HETATM   16  C   UNL     1     -41.455  53.157 -52.165  1.00  0.00     0.053 A 
HETATM   17  C   UNL     1     -40.842  52.822 -53.376  1.00  0.00     0.069 A 
HETATM   18  C   UNL     1     -41.449  53.180 -54.579  1.00  0.00     0.037 A 
HETATM   19  C   UNL     1     -42.626  53.925 -54.576  1.00  0.00     0.004 A 
HETATM   20  C   UNL     1     -43.207  54.309 -53.366  1.00  0.00     0.017 A 
BRANCH  17  21
HETATM   21  O   UNL     1     -39.661  52.143 -53.501  1.00  0.00    -0.356 OA
HETATM   22  C   UNL     1     -39.777  50.793 -53.940  1.00  0.00     0.210 C 
ENDBRANCH  17  21
ENDBRANCH  12  15
ENDBRANCH   9  11
ENDBRANCH   7   9
ENDBRANCH   4   7
BRANCH   1  23
HETATM   23  N   UNL     1     -42.580  58.013 -55.029  1.00  0.00    -0.378 N 
HETATM   24  C   UNL     1     -42.710  59.409 -55.492  1.00  0.00     0.143 C 
HETATM   25  C   UNL     1     -42.721  59.446 -57.029  1.00  0.00     0.146 C 
HETATM   26  N   UNL     1     -43.711  58.539 -57.623  1.00  0.00    -0.345 N 
HETATM   27  C   UNL     1     -44.153  58.846 -58.910  1.00  0.00     0.254 C 
HETATM   28  C   UNL     1     -43.751  57.183 -57.048  1.00  0.00     0.146 C 
HETATM   29  O   UNL     1     -43.912  59.907 -59.481  1.00  0.00    -0.267 OA
HETATM   30  C   UNL     1     -43.686  57.158 -55.506  1.00  0.00     0.143 C 
BRANCH  27  31
HETATM   31  C   UNL     1     -44.992  57.862 -59.624  1.00  0.00     0.038 A 
HETATM   32  C   UNL     1     -46.396  57.902 -59.576  1.00  0.00    -0.046 A 
HETATM   33  C   UNL     1     -47.154  58.963 -58.831  1.00  0.00     0.049 C 
HETATM   34  C   UNL     1     -47.112  56.926 -60.286  1.00  0.00     0.007 A 
HETATM   35  C   UNL     1     -46.444  55.916 -60.985  1.00  0.00     0.001 A 
HETATM   36  C   UNL     1     -45.052  55.867 -60.991  1.00  0.00     0.001 A 
HETATM   37  C   UNL     1     -44.323  56.841 -60.311  1.00  0.00     0.017 A 
ENDBRANCH  27  31
ENDBRANCH   1  23
TORSDOF 7
ENDMDL
MODEL 8
REMARK VINA RESULT:      -8.2      2.625      4.117
REMARK  7 active torsions:
REMARK  status: ('A' for Active; 'I' for Inactive)
REMARK    1  A    between atoms: C_3  and  C_4 
REMARK       I    between atoms: C_4  and  N_5 
REMARK    2  A    between atoms: N_8  and  C_9 
REMARK    3  A    between atoms: C_12  and  N_13 
REMARK    4  A    between atoms: N_13  and  C_14 
REMARK    5  A    between atoms: C_14  and  N_15 
REMARK       I    between atoms: N_15  and  C_16 
REMARK    6  A    between atoms: C_16  and  C_17 
REMARK    7  A    between atoms: C_19  and  O_20 
ROOT
HETATM    1  C   UNL     1     -42.528  57.700 -56.601  1.00  0.00     0.030 A 
HETATM    2  C   UNL     1     -42.281  59.052 -56.323  1.00  0.00     0.031 A 
HETATM    3  C   UNL     1     -42.084  59.987 -57.346  1.00  0.00     0.026 A 
HETATM    4  C   UNL     1     -42.133  59.589 -58.683  1.00  0.00     0.014 A 
HETATM    5  C   UNL     1     -42.469  58.269 -58.982  1.00  0.00     0.026 A 
HETATM    6  C   UNL     1     -42.651  57.335 -57.948  1.00  0.00     0.031 A 
ENDROOT
BRANCH   4   7
HETATM    7  N   UNL     1     -41.729  60.539 -59.672  1.00  0.00    -0.236 NA
HETATM    8  H   UNL     1     -40.905  60.182 -60.149  1.00  0.00     0.136 HD
BRANCH   7   9
HETATM    9  C   UNL     1     -42.637  61.048 -60.558  1.00  0.00     0.157 C 
HETATM   10  S   UNL     1     -42.375  60.987 -62.207  1.00  0.00    -0.047 SA
BRANCH   9  11
HETATM   11  N   UNL     1     -43.747  61.696 -60.074  1.00  0.00    -0.304 N 
HETATM   12  C   UNL     1     -45.080  61.331 -60.133  1.00  0.00     0.257 C 
HETATM   13  O   UNL     1     -45.886  62.035 -60.737  1.00  0.00    -0.267 OA
HETATM   14  H   UNL     1     -43.627  62.698 -60.157  1.00  0.00     0.171 HD
BRANCH  12  15
HETATM   15  C   UNL     1     -45.543  60.188 -59.276  1.00  0.00     0.035 A 
HETATM   16  C   UNL     1     -45.974  59.022 -59.933  1.00  0.00     0.053 A 
HETATM   17  C   UNL     1     -46.533  57.963 -59.211  1.00  0.00     0.069 A 
HETATM   18  C   UNL     1     -46.602  58.038 -57.820  1.00  0.00     0.037 A 
HETATM   19  C   UNL     1     -46.179  59.187 -57.157  1.00  0.00     0.004 A 
HETATM   20  C   UNL     1     -45.675  60.267 -57.884  1.00  0.00     0.017 A 
BRANCH  17  21
HETATM   21  O   UNL     1     -47.031  56.811 -59.755  1.00  0.00    -0.356 OA
HETATM   22  C   UNL     1     -46.059  55.926 -60.304  1.00  0.00     0.210 C 
ENDBRANCH  17  21
ENDBRANCH  12  15
ENDBRANCH   9  11
ENDBRANCH   7   9
ENDBRANCH   4   7
BRANCH   1  23
HETATM   23  N   UNL     1     -42.571  56.793 -55.540  1.00  0.00    -0.378 N 
HETATM   24  C   UNL     1     -43.892  56.366 -55.036  1.00  0.00     0.143 C 
HETATM   25  C   UNL     1     -43.737  55.086 -54.197  1.00  0.00     0.146 C 
HETATM   26  N   UNL     1     -42.719  55.203 -53.145  1.00  0.00    -0.345 N 
HETATM   27  C   UNL     1     -42.845  54.345 -52.053  1.00  0.00     0.254 C 
HETATM   28  C   UNL     1     -41.445  55.812 -53.563  1.00  0.00     0.146 C 
HETATM   29  O   UNL     1     -43.836  53.652 -51.837  1.00  0.00    -0.267 OA
HETATM   30  C   UNL     1     -41.614  57.066 -54.448  1.00  0.00     0.143 C 
BRANCH  27  31
HETATM   31  C   UNL     1     -41.743  54.285 -51.070  1.00  0.00     0.038 A 
HETATM   32  C   UNL     1     -40.621  53.458 -51.255  1.00  0.00    -0.046 A 
HETATM   33  C   UNL     1     -40.432  52.604 -52.475  1.00  0.00     0.049 C 
HETATM   34  C   UNL     1     -39.623  53.466 -50.268  1.00  0.00     0.007 A 
HETATM   35  C   UNL     1     -39.764  54.241 -49.114  1.00  0.00     0.001 A 
HETATM   36  C   UNL     1     -40.900  55.025 -48.927  1.00  0.00     0.001 A 
HETATM   37  C   UNL     1     -41.892  55.049 -49.905  1.00  0.00     0.017 A 
ENDBRANCH  27  31
ENDBRANCH   1  23
TORSDOF 7
ENDMDL
MODEL 9
REMARK VINA RESULT:      -7.9      2.665      4.431
REMARK  7 active torsions:
REMARK  status: ('A' for Active; 'I' for Inactive)
REMARK    1  A    between atoms: C_3  and  C_4 
REMARK       I    between atoms: C_4  and  N_5 
REMARK    2  A    between atoms: N_8  and  C_9 
REMARK    3  A    between atoms: C_12  and  N_13 
REMARK    4  A    between atoms: N_13  and  C_14 
REMARK    5  A    between atoms: C_14  and  N_15 
REMARK       I    between atoms: N_15  and  C_16 
REMARK    6  A    between atoms: C_16  and  C_17 
REMARK    7  A    between atoms: C_19  and  O_20 
ROOT
HETATM    1  C   UNL     1     -45.128  58.711 -57.225  1.00  0.00     0.030 A 
HETATM    2  C   UNL     1     -45.174  60.106 -57.358  1.00  0.00     0.031 A 
HETATM    3  C   UNL     1     -45.855  60.720 -58.416  1.00  0.00     0.026 A 
HETATM    4  C   UNL     1     -46.515  59.946 -59.372  1.00  0.00     0.014 A 
HETATM    5  C   UNL     1     -46.558  58.563 -59.207  1.00  0.00     0.026 A 
HETATM    6  C   UNL     1     -45.860  57.955 -58.150  1.00  0.00     0.031 A 
ENDROOT
BRANCH   4   7
HETATM    7  N   UNL     1     -47.020  60.615 -60.531  1.00  0.00    -0.236 NA
HETATM    8  H   UNL     1     -47.815  61.186 -60.256  1.00  0.00     0.136 HD
BRANCH   7   9
HETATM    9  C   UNL     1     -46.176  61.298 -61.361  1.00  0.00     0.157 C 
HETATM   10  S   UNL     1     -46.296  62.953 -61.557  1.00  0.00    -0.047 SA
BRANCH   9  11
HETATM   11  N   UNL     1     -45.267  60.593 -62.111  1.00  0.00    -0.304 N 
HETATM   12  C   UNL     1     -43.884  60.609 -62.069  1.00  0.00     0.257 C 
HETATM   13  O   UNL     1     -43.242  60.980 -63.050  1.00  0.00    -0.267 OA
HETATM   14  H   UNL     1     -45.614  60.475 -63.056  1.00  0.00     0.171 HD
BRANCH  12  15
HETATM   15  C   UNL     1     -43.201  59.973 -60.894  1.00  0.00     0.035 A 
HETATM   16  C   UNL     1     -42.521  60.824 -60.004  1.00  0.00     0.053 A 
HETATM   17  C   UNL     1     -41.760  60.297 -58.956  1.00  0.00     0.069 A 
HETATM   18  C   UNL     1     -41.728  58.918 -58.753  1.00  0.00     0.037 A 
HETATM   19  C   UNL     1     -42.396  58.064 -59.628  1.00  0.00     0.004 A 
HETATM   20  C   UNL     1     -43.109  58.588 -60.707  1.00  0.00     0.017 A 
BRANCH  17  21
HETATM   21  O   UNL     1     -41.021  61.032 -58.070  1.00  0.00    -0.356 OA
HETATM   22  C   UNL     1     -40.595  62.307 -58.540  1.00  0.00     0.210 C 
ENDBRANCH  17  21
ENDBRANCH  12  15
ENDBRANCH   9  11
ENDBRANCH   7   9
ENDBRANCH   4   7
BRANCH   1  23
HETATM   23  N   UNL     1     -44.313  58.158 -56.235  1.00  0.00    -0.378 N 
HETATM   24  C   UNL     1     -43.353  59.041 -55.542  1.00  0.00     0.143 C 
HETATM   25  C   UNL     1     -42.882  58.373 -54.240  1.00  0.00     0.146 C 
HETATM   26  N   UNL     1     -42.381  57.007 -54.439  1.00  0.00    -0.345 N 
HETATM   27  C   UNL     1     -41.495  56.517 -53.479  1.00  0.00     0.254 C 
HETATM   28  C   UNL     1     -43.216  56.146 -55.294  1.00  0.00     0.146 C 
HETATM   29  O   UNL     1     -40.977  57.212 -52.608  1.00  0.00    -0.267 OA
HETATM   30  C   UNL     1     -43.726  56.845 -56.572  1.00  0.00     0.143 C 
BRANCH  27  31
HETATM   31  C   UNL     1     -41.121  55.089 -53.524  1.00  0.00     0.038 A 
HETATM   32  C   UNL     1     -41.474  54.191 -52.502  1.00  0.00    -0.046 A 
HETATM   33  C   UNL     1     -42.289  54.598 -51.308  1.00  0.00     0.049 C 
HETATM   34  C   UNL     1     -41.076  52.851 -52.630  1.00  0.00     0.007 A 
HETATM   35  C   UNL     1     -40.311  52.433 -53.722  1.00  0.00     0.001 A 
HETATM   36  C   UNL     1     -39.935  53.344 -54.707  1.00  0.00     0.001 A 
HETATM   37  C   UNL     1     -40.340  54.674 -54.610  1.00  0.00     0.017 A 
ENDBRANCH  27  31
ENDBRANCH   1  23
TORSDOF 7
ENDMDL
MODEL 10
REMARK VINA RESULT:      -7.9      2.792      4.567
REMARK  7 active torsions:
REMARK  status: ('A' for Active; 'I' for Inactive)
REMARK    1  A    between atoms: C_3  and  C_4 
REMARK       I    between atoms: C_4  and  N_5 
REMARK    2  A    between atoms: N_8  and  C_9 
REMARK    3  A    between atoms: C_12  and  N_13 
REMARK    4  A    between atoms: N_13  and  C_14 
REMARK    5  A    between atoms: C_14  and  N_15 
REMARK       I    between atoms: N_15  and  C_16 
REMARK    6  A    between atoms: C_16  and  C_17 
REMARK    7  A    between atoms: C_19  and  O_20 
ROOT
HETATM    1  C   UNL     1     -42.509  57.813 -56.627  1.00  0.00     0.030 A 
HETATM    2  C   UNL     1     -42.158  59.140 -56.345  1.00  0.00     0.031 A 
HETATM    3  C   UNL     1     -41.953  60.077 -57.364  1.00  0.00     0.026 A 
HETATM    4  C   UNL     1     -42.100  59.705 -58.702  1.00  0.00     0.014 A 
HETATM    5  C   UNL     1     -42.538  58.416 -58.999  1.00  0.00     0.026 A 
HETATM    6  C   UNL     1     -42.727  57.479 -57.969  1.00  0.00     0.031 A 
ENDROOT
BRANCH   4   7
HETATM    7  N   UNL     1     -41.686  60.643 -59.699  1.00  0.00    -0.236 NA
HETATM    8  H   UNL     1     -40.888  60.257 -60.197  1.00  0.00     0.136 HD
BRANCH   7   9
HETATM    9  C   UNL     1     -42.597  61.189 -60.560  1.00  0.00     0.157 C 
HETATM   10  S   UNL     1     -42.420  61.055 -62.215  1.00  0.00    -0.047 SA
BRANCH   9  11
HETATM   11  N   UNL     1     -43.632  61.932 -60.048  1.00  0.00    -0.304 N 
HETATM   12  C   UNL     1     -44.991  61.675 -60.052  1.00  0.00     0.257 C 
HETATM   13  O   UNL     1     -45.761  62.432 -60.641  1.00  0.00    -0.267 OA
HETATM   14  H   UNL     1     -43.436  62.920 -60.156  1.00  0.00     0.171 HD
BRANCH  12  15
HETATM   15  C   UNL     1     -45.513  60.588 -59.158  1.00  0.00     0.035 A 
HETATM   16  C   UNL     1     -45.430  60.799 -57.769  1.00  0.00     0.053 A 
HETATM   17  C   UNL     1     -45.782  59.785 -56.873  1.00  0.00     0.069 A 
HETATM   18  C   UNL     1     -46.281  58.578 -57.359  1.00  0.00     0.037 A 
HETATM   19  C   UNL     1     -46.368  58.356 -58.732  1.00  0.00     0.004 A 
HETATM   20  C   UNL     1     -45.962  59.347 -59.627  1.00  0.00     0.017 A 
BRANCH  17  21
HETATM   21  O   UNL     1     -45.688  59.868 -55.511  1.00  0.00    -0.356 OA
HETATM   22  C   UNL     1     -45.033  61.031 -55.014  1.00  0.00     0.210 C 
ENDBRANCH  17  21
ENDBRANCH  12  15
ENDBRANCH   9  11
ENDBRANCH   7   9
ENDBRANCH   4   7
BRANCH   1  23
HETATM   23  N   UNL     1     -42.557  56.893 -55.576  1.00  0.00    -0.378 N 
HETATM   24  C   UNL     1     -43.879  56.465 -55.078  1.00  0.00     0.143 C 
HETATM   25  C   UNL     1     -43.730  55.175 -54.255  1.00  0.00     0.146 C 
HETATM   26  N   UNL     1     -42.713  55.275 -53.201  1.00  0.00    -0.345 N 
HETATM   27  C   UNL     1     -42.842  54.404 -52.119  1.00  0.00     0.254 C 
HETATM   28  C   UNL     1     -41.435  55.884 -53.611  1.00  0.00     0.146 C 
HETATM   29  O   UNL     1     -43.836  53.713 -51.912  1.00  0.00    -0.267 OA
HETATM   30  C   UNL     1     -41.599  57.149 -54.481  1.00  0.00     0.143 C 
BRANCH  27  31
HETATM   31  C   UNL     1     -41.741  54.327 -51.137  1.00  0.00     0.038 A 
HETATM   32  C   UNL     1     -40.620  53.502 -51.333  1.00  0.00    -0.046 A 
HETATM   33  C   UNL     1     -40.432  52.665 -52.566  1.00  0.00     0.049 C 
HETATM   34  C   UNL     1     -39.622  53.493 -50.346  1.00  0.00     0.007 A 
HETATM   35  C   UNL     1     -39.763  54.251 -49.180  1.00  0.00     0.001 A 
HETATM   36  C   UNL     1     -40.898  55.033 -48.982  1.00  0.00     0.001 A 
HETATM   37  C   UNL     1     -41.890  55.073 -49.961  1.00  0.00     0.017 A 
ENDBRANCH  27  31
ENDBRANCH   1  23
TORSDOF 7
ENDMDL
