MODEL 1
REMARK VINA RESULT:      -8.9      0.000      0.000
REMARK  7 active torsions:
REMARK  status: ('A' for Active; 'I' for Inactive)
REMARK    1  A    between atoms: C_5  and  C_6 
REMARK    2  A    between atoms: C_6  and  N_7 
REMARK       I    between atoms: N_7  and  C_8 
REMARK    3  A    between atoms: C_8  and  C_9 
REMARK    4  A    between atoms: C_14  and  C_15 
REMARK    5  A    between atoms: C_15  and  S_16 
REMARK    6  A    between atoms: S_16  and  C_17 
REMARK    7  A    between atoms: C_17  and  C_18 
ROOT
HETATM    1  C   UNL     1     -42.589  58.364 -54.557  1.00  0.00     0.034 A 
HETATM    2  C   UNL     1     -43.342  57.387 -53.894  1.00  0.00     0.048 A 
HETATM    3  C   UNL     1     -42.854  56.835 -52.705  1.00  0.00     0.057 A 
HETATM    4  C   UNL     1     -41.622  57.242 -52.165  1.00  0.00     0.036 A 
HETATM    5  N   UNL     1     -41.075  56.653 -51.011  1.00  0.00    -0.277 NA
HETATM    6  C   UNL     1     -42.072  56.020 -50.115  1.00  0.00     0.162 C 
HETATM    7  C   UNL     1     -43.187  55.271 -50.872  1.00  0.00     0.240 C 
HETATM    8  O   UNL     1     -43.791  54.305 -50.407  1.00  0.00    -0.271 OA
HETATM    9  N   UNL     1     -43.578  55.817 -52.071  1.00  0.00    -0.324 N 
HETATM   10  C   UNL     1     -40.851  58.166 -52.870  1.00  0.00     0.027 A 
HETATM   11  C   UNL     1     -41.335  58.733 -54.050  1.00  0.00     0.019 A 
HETATM   12  H   UNL     1     -40.343  55.992 -51.280  1.00  0.00     0.128 HD
HETATM   13  H   UNL     1     -44.383  55.397 -52.515  1.00  0.00     0.169 HD
ENDROOT
BRANCH   1  14
HETATM   14  C   UNL     1     -43.046  59.032 -55.808  1.00  0.00     0.252 C 
HETATM   15  N   UNL     1     -42.213  58.962 -56.903  1.00  0.00    -0.353 N 
HETATM   16  H   UNL     1     -41.383  58.388 -56.885  1.00  0.00     0.163 HD
HETATM   17  O   UNL     1     -44.144  59.578 -55.834  1.00  0.00    -0.268 OA
BRANCH  15  18
HETATM   18  C   UNL     1     -42.650  59.434 -58.202  1.00  0.00     0.161 C 
BRANCH  18  19
HETATM   19  C   UNL     1     -43.249  58.335 -59.039  1.00  0.00    -0.041 A 
HETATM   20  C   UNL     1     -42.495  57.201 -59.369  1.00  0.00     0.009 A 
HETATM   21  C   UNL     1     -43.073  56.136 -60.066  1.00  0.00     0.007 A 
HETATM   22  C   UNL     1     -44.418  56.186 -60.447  1.00  0.00    -0.062 A 
HETATM   23  C   UNL     1     -45.062  55.032 -61.157  1.00  0.00     0.048 C 
HETATM   24  C   UNL     1     -45.175  57.316 -60.120  1.00  0.00     0.007 A 
HETATM   25  C   UNL     1     -44.598  58.377 -59.418  1.00  0.00     0.009 A 
ENDBRANCH  18  19
ENDBRANCH  15  18
ENDBRANCH   1  14
BRANCH   6  26
HETATM   26  C   UNL     1     -41.399  55.072 -49.105  1.00  0.00     0.103 C 
BRANCH  26  27
HETATM   27  S   UNL     1     -39.796  54.347 -49.638  1.00  0.00    -0.162 SA
BRANCH  27  28
HETATM   28  C   UNL     1     -40.356  52.681 -50.111  1.00  0.00     0.114 C 
BRANCH  28  29
HETATM   29  C   UNL     1     -40.208  52.440 -51.594  1.00  0.00    -0.027 A 
HETATM   30  C   UNL     1     -39.756  51.225 -52.131  1.00  0.00     0.041 A 
HETATM   31 CL   UNL     1     -39.317  49.887 -51.130  1.00  0.00    -0.084 Cl
HETATM   32  C   UNL     1     -39.638  51.061 -53.516  1.00  0.00     0.024 A 
HETATM   33  C   UNL     1     -39.973  52.101 -54.380  1.00  0.00     0.002 A 
HETATM   34  C   UNL     1     -40.434  53.308 -53.864  1.00  0.00     0.001 A 
HETATM   35  C   UNL     1     -40.555  53.475 -52.483  1.00  0.00     0.009 A 
ENDBRANCH  28  29
ENDBRANCH  27  28
ENDBRANCH  26  27
ENDBRANCH   6  26
TORSDOF 7
ENDMDL
MODEL 2
REMARK VINA RESULT:      -8.8      5.297      8.925
REMARK  7 active torsions:
REMARK  status: ('A' for Active; 'I' for Inactive)
REMARK    1  A    between atoms: C_5  and  C_6 
REMARK    2  A    between atoms: C_6  and  N_7 
REMARK       I    between atoms: N_7  and  C_8 
REMARK    3  A    between atoms: C_8  and  C_9 
REMARK    4  A    between atoms: C_14  and  C_15 
REMARK    5  A    between atoms: C_15  and  S_16 
REMARK    6  A    between atoms: S_16  and  C_17 
REMARK    7  A    between atoms: C_17  and  C_18 
ROOT
HETATM    1  C   UNL     1     -45.018  59.975 -50.398  1.00  0.00     0.034 A 
HETATM    2  C   UNL     1     -43.764  60.278 -50.942  1.00  0.00     0.048 A 
HETATM    3  C   UNL     1     -43.087  59.308 -51.689  1.00  0.00     0.057 A 
HETATM    4  C   UNL     1     -43.644  58.034 -51.902  1.00  0.00     0.036 A 
HETATM    5  N   UNL     1     -42.955  57.017 -52.588  1.00  0.00    -0.277 NA
HETATM    6  C   UNL     1     -41.913  57.506 -53.523  1.00  0.00     0.162 C 
HETATM    7  C   UNL     1     -41.112  58.705 -52.975  1.00  0.00     0.240 C 
HETATM    8  O   UNL     1     -39.950  58.947 -53.296  1.00  0.00    -0.271 OA
HETATM    9  N   UNL     1     -41.808  59.589 -52.186  1.00  0.00    -0.324 N 
HETATM   10  C   UNL     1     -44.861  57.723 -51.299  1.00  0.00     0.027 A 
HETATM   11  C   UNL     1     -45.550  58.688 -50.562  1.00  0.00     0.019 A 
HETATM   12  H   UNL     1     -42.568  56.353 -51.914  1.00  0.00     0.128 HD
HETATM   13  H   UNL     1     -41.321  60.433 -51.919  1.00  0.00     0.169 HD
ENDROOT
BRANCH   1  14
HETATM   14  C   UNL     1     -45.825  60.956 -49.620  1.00  0.00     0.252 C 
HETATM   15  N   UNL     1     -45.637  60.989 -48.256  1.00  0.00    -0.353 N 
HETATM   16  H   UNL     1     -44.905  60.448 -47.822  1.00  0.00     0.163 HD
HETATM   17  O   UNL     1     -46.586  61.715 -50.212  1.00  0.00    -0.268 OA
BRANCH  15  18
HETATM   18  C   UNL     1     -46.251  62.023 -47.445  1.00  0.00     0.161 C 
BRANCH  18  19
HETATM   19  C   UNL     1     -45.547  62.212 -46.127  1.00  0.00    -0.041 A 
HETATM   20  C   UNL     1     -44.854  61.148 -45.533  1.00  0.00     0.009 A 
HETATM   21  C   UNL     1     -44.122  61.341 -44.359  1.00  0.00     0.007 A 
HETATM   22  C   UNL     1     -44.069  62.602 -43.756  1.00  0.00    -0.062 A 
HETATM   23  C   UNL     1     -43.252  62.832 -42.518  1.00  0.00     0.048 C 
HETATM   24  C   UNL     1     -44.760  63.667 -44.345  1.00  0.00     0.007 A 
HETATM   25  C   UNL     1     -45.486  63.475 -45.522  1.00  0.00     0.009 A 
ENDBRANCH  18  19
ENDBRANCH  15  18
ENDBRANCH   1  14
BRANCH   6  26
HETATM   26  C   UNL     1     -40.949  56.377 -53.931  1.00  0.00     0.103 C 
BRANCH  26  27
HETATM   27  S   UNL     1     -41.422  54.688 -53.381  1.00  0.00    -0.162 SA
BRANCH  27  28
HETATM   28  C   UNL     1     -40.085  53.727 -54.158  1.00  0.00     0.114 C 
BRANCH  28  29
HETATM   29  C   UNL     1     -39.970  52.344 -53.564  1.00  0.00    -0.027 A 
HETATM   30  C   UNL     1     -39.738  52.115 -52.198  1.00  0.00     0.041 A 
HETATM   31 CL   UNL     1     -39.557  53.410 -51.068  1.00  0.00    -0.084 Cl
HETATM   32  C   UNL     1     -39.639  50.809 -51.704  1.00  0.00     0.024 A 
HETATM   33  C   UNL     1     -39.773  49.719 -52.562  1.00  0.00     0.002 A 
HETATM   34  C   UNL     1     -40.014  49.929 -53.916  1.00  0.00     0.001 A 
HETATM   35  C   UNL     1     -40.116  51.231 -54.412  1.00  0.00     0.009 A 
ENDBRANCH  28  29
ENDBRANCH  27  28
ENDBRANCH  26  27
ENDBRANCH   6  26
TORSDOF 7
ENDMDL
MODEL 3
REMARK VINA RESULT:      -8.8      2.888      4.424
REMARK  7 active torsions:
REMARK  status: ('A' for Active; 'I' for Inactive)
REMARK    1  A    between atoms: C_5  and  C_6 
REMARK    2  A    between atoms: C_6  and  N_7 
REMARK       I    between atoms: N_7  and  C_8 
REMARK    3  A    between atoms: C_8  and  C_9 
REMARK    4  A    between atoms: C_14  and  C_15 
REMARK    5  A    between atoms: C_15  and  S_16 
REMARK    6  A    between atoms: S_16  and  C_17 
REMARK    7  A    between atoms: C_17  and  C_18 
ROOT
HETATM    1  C   UNL     1     -42.559  57.169 -57.762  1.00  0.00     0.034 A 
HETATM    2  C   UNL     1     -42.407  57.838 -56.542  1.00  0.00     0.048 A 
HETATM    3  C   UNL     1     -42.530  57.123 -55.346  1.00  0.00     0.057 A 
HETATM    4  C   UNL     1     -42.806  55.744 -55.348  1.00  0.00     0.036 A 
HETATM    5  N   UNL     1     -43.006  55.015 -54.162  1.00  0.00    -0.277 NA
HETATM    6  C   UNL     1     -42.377  55.615 -52.960  1.00  0.00     0.162 C 
HETATM    7  C   UNL     1     -42.489  57.152 -52.913  1.00  0.00     0.240 C 
HETATM    8  O   UNL     1     -42.512  57.798 -51.867  1.00  0.00    -0.271 OA
HETATM    9  N   UNL     1     -42.434  57.801 -54.124  1.00  0.00    -0.324 N 
HETATM   10  C   UNL     1     -43.022  55.104 -56.567  1.00  0.00     0.027 A 
HETATM   11  C   UNL     1     -42.888  55.806 -57.766  1.00  0.00     0.019 A 
HETATM   12  H   UNL     1     -44.007  54.862 -54.020  1.00  0.00     0.128 HD
HETATM   13  H   UNL     1     -42.393  58.810 -54.092  1.00  0.00     0.169 HD
ENDROOT
BRANCH   1  14
HETATM   14  C   UNL     1     -42.409  57.842 -59.082  1.00  0.00     0.252 C 
HETATM   15  N   UNL     1     -42.989  59.083 -59.229  1.00  0.00    -0.353 N 
HETATM   16  H   UNL     1     -43.400  59.558 -58.439  1.00  0.00     0.163 HD
HETATM   17  O   UNL     1     -41.755  57.298 -59.965  1.00  0.00    -0.268 OA
BRANCH  15  18
HETATM   18  C   UNL     1     -42.750  59.880 -60.416  1.00  0.00     0.161 C 
BRANCH  18  19
HETATM   19  C   UNL     1     -41.771  60.998 -60.168  1.00  0.00    -0.041 A 
HETATM   20  C   UNL     1     -41.239  61.206 -58.889  1.00  0.00     0.009 A 
HETATM   21  C   UNL     1     -40.262  62.181 -58.672  1.00  0.00     0.007 A 
HETATM   22  C   UNL     1     -39.797  62.966 -59.732  1.00  0.00    -0.062 A 
HETATM   23  C   UNL     1     -38.717  63.987 -59.522  1.00  0.00     0.048 C 
HETATM   24  C   UNL     1     -40.326  62.762 -61.012  1.00  0.00     0.007 A 
HETATM   25  C   UNL     1     -41.298  61.784 -61.228  1.00  0.00     0.009 A 
ENDBRANCH  18  19
ENDBRANCH  15  18
ENDBRANCH   1  14
BRANCH   6  26
HETATM   26  C   UNL     1     -42.948  55.010 -51.665  1.00  0.00     0.103 C 
BRANCH  26  27
HETATM   27  S   UNL     1     -41.786  53.970 -50.691  1.00  0.00    -0.162 SA
BRANCH  27  28
HETATM   28  C   UNL     1     -40.399  53.877 -51.866  1.00  0.00     0.114 C 
BRANCH  28  29
HETATM   29  C   UNL     1     -40.105  52.455 -52.275  1.00  0.00    -0.027 A 
HETATM   30  C   UNL     1     -40.027  52.044 -53.616  1.00  0.00     0.041 A 
HETATM   31 CL   UNL     1     -40.269  53.143 -54.927  1.00  0.00    -0.084 Cl
HETATM   32  C   UNL     1     -39.752  50.710 -53.935  1.00  0.00     0.024 A 
HETATM   33  C   UNL     1     -39.548  49.771 -52.925  1.00  0.00     0.002 A 
HETATM   34  C   UNL     1     -39.611  50.164 -51.592  1.00  0.00     0.001 A 
HETATM   35  C   UNL     1     -39.883  51.495 -51.269  1.00  0.00     0.009 A 
ENDBRANCH  28  29
ENDBRANCH  27  28
ENDBRANCH  26  27
ENDBRANCH   6  26
TORSDOF 7
ENDMDL
MODEL 4
REMARK VINA RESULT:      -8.7      1.678      2.947
REMARK  7 active torsions:
REMARK  status: ('A' for Active; 'I' for Inactive)
REMARK    1  A    between atoms: C_5  and  C_6 
REMARK    2  A    between atoms: C_6  and  N_7 
REMARK       I    between atoms: N_7  and  C_8 
REMARK    3  A    between atoms: C_8  and  C_9 
REMARK    4  A    between atoms: C_14  and  C_15 
REMARK    5  A    between atoms: C_15  and  S_16 
REMARK    6  A    between atoms: S_16  and  C_17 
REMARK    7  A    between atoms: C_17  and  C_18 
ROOT
HETATM    1  C   UNL     1     -42.786  58.144 -54.743  1.00  0.00     0.034 A 
HETATM    2  C   UNL     1     -43.525  57.225 -53.988  1.00  0.00     0.048 A 
HETATM    3  C   UNL     1     -42.987  56.724 -52.798  1.00  0.00     0.057 A 
HETATM    4  C   UNL     1     -41.717  57.125 -52.348  1.00  0.00     0.036 A 
HETATM    5  N   UNL     1     -41.122  56.584 -51.193  1.00  0.00    -0.277 NA
HETATM    6  C   UNL     1     -42.084  56.028 -50.212  1.00  0.00     0.162 C 
HETATM    7  C   UNL     1     -43.258  55.271 -50.865  1.00  0.00     0.240 C 
HETATM    8  O   UNL     1     -43.858  54.348 -50.317  1.00  0.00    -0.271 OA
HETATM    9  N   UNL     1     -43.700  55.762 -52.070  1.00  0.00    -0.324 N 
HETATM   10  C   UNL     1     -40.964  57.988 -53.142  1.00  0.00     0.027 A 
HETATM   11  C   UNL     1     -41.497  58.504 -54.325  1.00  0.00     0.019 A 
HETATM   12  H   UNL     1     -40.423  55.889 -51.464  1.00  0.00     0.128 HD
HETATM   13  H   UNL     1     -44.538  55.342 -52.447  1.00  0.00     0.169 HD
ENDROOT
BRANCH   1  14
HETATM   14  C   UNL     1     -43.294  58.756 -56.002  1.00  0.00     0.252 C 
HETATM   15  N   UNL     1     -42.418  58.842 -57.062  1.00  0.00    -0.353 N 
HETATM   16  H   UNL     1     -41.509  58.407 -57.017  1.00  0.00     0.163 HD
HETATM   17  O   UNL     1     -44.464  59.120 -56.066  1.00  0.00    -0.268 OA
BRANCH  15  18
HETATM   18  C   UNL     1     -42.874  59.264 -58.372  1.00  0.00     0.161 C 
BRANCH  18  19
HETATM   19  C   UNL     1     -42.065  60.412 -58.917  1.00  0.00    -0.041 A 
HETATM   20  C   UNL     1     -41.230  61.157 -58.074  1.00  0.00     0.009 A 
HETATM   21  C   UNL     1     -40.408  62.162 -58.590  1.00  0.00     0.007 A 
HETATM   22  C   UNL     1     -40.406  62.441 -59.961  1.00  0.00    -0.062 A 
HETATM   23  C   UNL     1     -39.496  63.488 -60.534  1.00  0.00     0.048 C 
HETATM   24  C   UNL     1     -41.238  61.700 -60.807  1.00  0.00     0.007 A 
HETATM   25  C   UNL     1     -42.055  60.692 -60.291  1.00  0.00     0.009 A 
ENDBRANCH  18  19
ENDBRANCH  15  18
ENDBRANCH   1  14
BRANCH   6  26
HETATM   26  C   UNL     1     -41.380  55.118 -49.188  1.00  0.00     0.103 C 
BRANCH  26  27
HETATM   27  S   UNL     1     -39.787  54.384 -49.738  1.00  0.00    -0.162 SA
BRANCH  27  28
HETATM   28  C   UNL     1     -40.348  52.698 -50.136  1.00  0.00     0.114 C 
BRANCH  28  29
HETATM   29  C   UNL     1     -40.220  52.399 -51.610  1.00  0.00    -0.027 A 
HETATM   30  C   UNL     1     -39.759  51.168 -52.104  1.00  0.00     0.041 A 
HETATM   31 CL   UNL     1     -39.286  49.878 -51.056  1.00  0.00    -0.084 Cl
HETATM   32  C   UNL     1     -39.659  50.949 -53.483  1.00  0.00     0.024 A 
HETATM   33  C   UNL     1     -40.022  51.949 -54.384  1.00  0.00     0.002 A 
HETATM   34  C   UNL     1     -40.492  53.170 -53.910  1.00  0.00     0.001 A 
HETATM   35  C   UNL     1     -40.594  53.391 -52.535  1.00  0.00     0.009 A 
ENDBRANCH  28  29
ENDBRANCH  27  28
ENDBRANCH  26  27
ENDBRANCH   6  26
TORSDOF 7
ENDMDL
MODEL 5
REMARK VINA RESULT:      -8.5      3.864      8.547
REMARK  7 active torsions:
REMARK  status: ('A' for Active; 'I' for Inactive)
REMARK    1  A    between atoms: C_5  and  C_6 
REMARK    2  A    between atoms: C_6  and  N_7 
REMARK       I    between atoms: N_7  and  C_8 
REMARK    3  A    between atoms: C_8  and  C_9 
REMARK    4  A    between atoms: C_14  and  C_15 
REMARK    5  A    between atoms: C_15  and  S_16 
REMARK    6  A    between atoms: S_16  and  C_17 
REMARK    7  A    between atoms: C_17  and  C_18 
ROOT
HETATM    1  C   UNL     1     -42.841  57.301 -53.870  1.00  0.00     0.034 A 
HETATM    2  C   UNL     1     -42.575  58.382 -54.719  1.00  0.00     0.048 A 
HETATM    3  C   UNL     1     -43.605  58.906 -55.507  1.00  0.00     0.057 A 
HETATM    4  C   UNL     1     -44.903  58.367 -55.462  1.00  0.00     0.036 A 
HETATM    5  N   UNL     1     -45.938  58.828 -56.294  1.00  0.00    -0.277 NA
HETATM    6  C   UNL     1     -45.760  60.216 -56.783  1.00  0.00     0.162 C 
HETATM    7  C   UNL     1     -44.302  60.550 -57.160  1.00  0.00     0.240 C 
HETATM    8  O   UNL     1     -43.997  61.385 -58.009  1.00  0.00    -0.271 OA
HETATM    9  N   UNL     1     -43.328  59.951 -56.399  1.00  0.00    -0.324 N 
HETATM   10  C   UNL     1     -45.138  57.249 -54.663  1.00  0.00     0.027 A 
HETATM   11  C   UNL     1     -44.121  56.726 -53.864  1.00  0.00     0.019 A 
HETATM   12  H   UNL     1     -46.069  58.174 -57.069  1.00  0.00     0.128 HD
HETATM   13  H   UNL     1     -42.378  60.252 -56.566  1.00  0.00     0.169 HD
ENDROOT
BRANCH   1  14
HETATM   14  C   UNL     1     -41.816  56.702 -52.971  1.00  0.00     0.252 C 
HETATM   15  N   UNL     1     -42.118  55.493 -52.384  1.00  0.00    -0.353 N 
HETATM   16  H   UNL     1     -42.952  54.987 -52.642  1.00  0.00     0.163 HD
HETATM   17  O   UNL     1     -40.742  57.274 -52.816  1.00  0.00    -0.268 OA
BRANCH  15  18
HETATM   18  C   UNL     1     -41.118  54.760 -51.634  1.00  0.00     0.161 C 
BRANCH  18  19
HETATM   19  C   UNL     1     -40.630  53.539 -52.370  1.00  0.00    -0.041 A 
HETATM   20  C   UNL     1     -39.865  52.569 -51.709  1.00  0.00     0.009 A 
HETATM   21  C   UNL     1     -39.488  51.392 -52.360  1.00  0.00     0.007 A 
HETATM   22  C   UNL     1     -39.870  51.162 -53.686  1.00  0.00    -0.062 A 
HETATM   23  C   UNL     1     -39.509  49.883 -54.383  1.00  0.00     0.048 C 
HETATM   24  C   UNL     1     -40.634  52.128 -54.350  1.00  0.00     0.007 A 
HETATM   25  C   UNL     1     -41.015  53.302 -53.697  1.00  0.00     0.009 A 
ENDBRANCH  18  19
ENDBRANCH  15  18
ENDBRANCH   1  14
BRANCH   6  26
HETATM   26  C   UNL     1     -46.689  60.517 -57.974  1.00  0.00     0.103 C 
BRANCH  26  27
HETATM   27  S   UNL     1     -47.312  59.050 -58.889  1.00  0.00    -0.162 SA
BRANCH  27  28
HETATM   28  C   UNL     1     -45.901  58.762 -60.003  1.00  0.00     0.114 C 
BRANCH  28  29
HETATM   29  C   UNL     1     -45.305  57.389 -59.810  1.00  0.00    -0.027 A 
HETATM   30  C   UNL     1     -45.856  56.228 -60.376  1.00  0.00     0.041 A 
HETATM   31 CL   UNL     1     -47.283  56.271 -61.349  1.00  0.00    -0.084 Cl
HETATM   32  C   UNL     1     -45.259  54.981 -60.160  1.00  0.00     0.024 A 
HETATM   33  C   UNL     1     -44.107  54.876 -59.383  1.00  0.00     0.002 A 
HETATM   34  C   UNL     1     -43.542  56.018 -58.824  1.00  0.00     0.001 A 
HETATM   35  C   UNL     1     -44.133  57.265 -59.040  1.00  0.00     0.009 A 
ENDBRANCH  28  29
ENDBRANCH  27  28
ENDBRANCH  26  27
ENDBRANCH   6  26
TORSDOF 7
ENDMDL
MODEL 6
REMARK VINA RESULT:      -8.2      3.559      8.630
REMARK  7 active torsions:
REMARK  status: ('A' for Active; 'I' for Inactive)
REMARK    1  A    between atoms: C_5  and  C_6 
REMARK    2  A    between atoms: C_6  and  N_7 
REMARK       I    between atoms: N_7  and  C_8 
REMARK    3  A    between atoms: C_8  and  C_9 
REMARK    4  A    between atoms: C_14  and  C_15 
REMARK    5  A    between atoms: C_15  and  S_16 
REMARK    6  A    between atoms: S_16  and  C_17 
REMARK    7  A    between atoms: C_17  and  C_18 
ROOT
HETATM    1  C   UNL     1     -43.391  57.154 -54.170  1.00  0.00     0.034 A 
HETATM    2  C   UNL     1     -42.509  57.935 -54.926  1.00  0.00     0.048 A 
HETATM    3  C   UNL     1     -43.017  58.788 -55.911  1.00  0.00     0.057 A 
HETATM    4  C   UNL     1     -44.399  58.875 -56.156  1.00  0.00     0.036 A 
HETATM    5  N   UNL     1     -44.932  59.671 -57.186  1.00  0.00    -0.277 NA
HETATM    6  C   UNL     1     -44.061  60.796 -57.605  1.00  0.00     0.162 C 
HETATM    7  C   UNL     1     -42.564  60.427 -57.652  1.00  0.00     0.240 C 
HETATM    8  O   UNL     1     -41.756  60.970 -58.403  1.00  0.00    -0.271 OA
HETATM    9  N   UNL     1     -42.132  59.527 -56.707  1.00  0.00    -0.324 N 
HETATM   10  C   UNL     1     -45.262  58.044 -55.442  1.00  0.00     0.027 A 
HETATM   11  C   UNL     1     -44.765  57.198 -54.449  1.00  0.00     0.019 A 
HETATM   12  H   UNL     1     -45.181  59.078 -57.980  1.00  0.00     0.128 HD
HETATM   13  H   UNL     1     -41.135  59.368 -56.660  1.00  0.00     0.169 HD
ENDROOT
BRANCH   1  14
HETATM   14  C   UNL     1     -42.942  56.245 -53.079  1.00  0.00     0.252 C 
HETATM   15  N   UNL     1     -41.744  55.589 -53.256  1.00  0.00    -0.353 N 
HETATM   16  H   UNL     1     -41.148  55.804 -54.041  1.00  0.00     0.163 HD
HETATM   17  O   UNL     1     -43.621  56.143 -52.062  1.00  0.00    -0.268 OA
BRANCH  15  18
HETATM   18  C   UNL     1     -41.150  54.821 -52.178  1.00  0.00     0.161 C 
BRANCH  18  19
HETATM   19  C   UNL     1     -40.736  53.442 -52.618  1.00  0.00    -0.041 A 
HETATM   20  C   UNL     1     -41.018  52.995 -53.916  1.00  0.00     0.009 A 
HETATM   21  C   UNL     1     -40.556  51.753 -54.360  1.00  0.00     0.007 A 
HETATM   22  C   UNL     1     -39.801  50.935 -53.513  1.00  0.00    -0.062 A 
HETATM   23  C   UNL     1     -39.261  49.619 -53.992  1.00  0.00     0.048 C 
HETATM   24  C   UNL     1     -39.516  51.377 -52.217  1.00  0.00     0.007 A 
HETATM   25  C   UNL     1     -39.973  52.620 -51.776  1.00  0.00     0.009 A 
ENDBRANCH  18  19
ENDBRANCH  15  18
ENDBRANCH   1  14
BRANCH   6  26
HETATM   26  C   UNL     1     -44.500  61.371 -58.964  1.00  0.00     0.103 C 
BRANCH  26  27
HETATM   27  S   UNL     1     -45.513  60.252 -60.013  1.00  0.00    -0.162 SA
BRANCH  27  28
HETATM   28  C   UNL     1     -44.188  59.267 -60.778  1.00  0.00     0.114 C 
BRANCH  28  29
HETATM   29  C   UNL     1     -44.266  57.814 -60.376  1.00  0.00    -0.027 A 
HETATM   30  C   UNL     1     -43.136  57.048 -60.049  1.00  0.00     0.041 A 
HETATM   31 CL   UNL     1     -41.539  57.708 -60.087  1.00  0.00    -0.084 Cl
HETATM   32  C   UNL     1     -43.270  55.704 -59.685  1.00  0.00     0.024 A 
HETATM   33  C   UNL     1     -44.529  55.109 -59.636  1.00  0.00     0.002 A 
HETATM   34  C   UNL     1     -45.661  55.857 -59.946  1.00  0.00     0.001 A 
HETATM   35  C   UNL     1     -45.531  57.199 -60.307  1.00  0.00     0.009 A 
ENDBRANCH  28  29
ENDBRANCH  27  28
ENDBRANCH  26  27
ENDBRANCH   6  26
TORSDOF 7
ENDMDL
MODEL 7
REMARK VINA RESULT:      -8.2      5.450      8.887
REMARK  7 active torsions:
REMARK  status: ('A' for Active; 'I' for Inactive)
REMARK    1  A    between atoms: C_5  and  C_6 
REMARK    2  A    between atoms: C_6  and  N_7 
REMARK       I    between atoms: N_7  and  C_8 
REMARK    3  A    between atoms: C_8  and  C_9 
REMARK    4  A    between atoms: C_14  and  C_15 
REMARK    5  A    between atoms: C_15  and  S_16 
REMARK    6  A    between atoms: S_16  and  C_17 
REMARK    7  A    between atoms: C_17  and  C_18 
ROOT
HETATM    1  C   UNL     1     -43.112  56.635 -54.601  1.00  0.00     0.034 A 
HETATM    2  C   UNL     1     -43.702  56.604 -53.332  1.00  0.00     0.048 A 
HETATM    3  C   UNL     1     -44.349  57.746 -52.848  1.00  0.00     0.057 A 
HETATM    4  C   UNL     1     -44.415  58.924 -53.612  1.00  0.00     0.036 A 
HETATM    5  N   UNL     1     -44.996  60.108 -53.122  1.00  0.00    -0.277 NA
HETATM    6  C   UNL     1     -45.992  59.900 -52.043  1.00  0.00     0.162 C 
HETATM    7  C   UNL     1     -45.588  58.801 -51.039  1.00  0.00     0.240 C 
HETATM    8  O   UNL     1     -45.949  58.792 -49.864  1.00  0.00    -0.271 OA
HETATM    9  N   UNL     1     -44.890  57.736 -51.556  1.00  0.00    -0.324 N 
HETATM   10  C   UNL     1     -43.766  58.963 -54.845  1.00  0.00     0.027 A 
HETATM   11  C   UNL     1     -43.129  57.825 -55.343  1.00  0.00     0.019 A 
HETATM   12  H   UNL     1     -44.260  60.753 -52.829  1.00  0.00     0.128 HD
HETATM   13  H   UNL     1     -44.722  56.962 -50.928  1.00  0.00     0.169 HD
ENDROOT
BRANCH   1  14
HETATM   14  C   UNL     1     -42.434  55.457 -55.211  1.00  0.00     0.252 C 
HETATM   15  N   UNL     1     -41.152  55.178 -54.792  1.00  0.00    -0.353 N 
HETATM   16  H   UNL     1     -40.737  55.686 -54.025  1.00  0.00     0.163 HD
HETATM   17  O   UNL     1     -43.042  54.765 -56.022  1.00  0.00    -0.268 OA
BRANCH  15  18
HETATM   18  C   UNL     1     -40.483  53.959 -55.204  1.00  0.00     0.161 C 
BRANCH  18  19
HETATM   19  C   UNL     1     -40.203  53.039 -54.044  1.00  0.00    -0.041 A 
HETATM   20  C   UNL     1     -40.393  53.478 -52.727  1.00  0.00     0.009 A 
HETATM   21  C   UNL     1     -40.224  52.603 -51.651  1.00  0.00     0.007 A 
HETATM   22  C   UNL     1     -39.862  51.270 -51.873  1.00  0.00    -0.062 A 
HETATM   23  C   UNL     1     -39.720  50.308 -50.730  1.00  0.00     0.048 C 
HETATM   24  C   UNL     1     -39.672  50.827 -53.187  1.00  0.00     0.007 A 
HETATM   25  C   UNL     1     -39.846  51.701 -54.261  1.00  0.00     0.009 A 
ENDBRANCH  18  19
ENDBRANCH  15  18
ENDBRANCH   1  14
BRANCH   6  26
HETATM   26  C   UNL     1     -46.289  61.211 -51.291  1.00  0.00     0.103 C 
BRANCH  26  27
HETATM   27  S   UNL     1     -44.867  62.360 -51.101  1.00  0.00    -0.162 SA
BRANCH  27  28
HETATM   28  C   UNL     1     -45.500  63.410 -49.755  1.00  0.00     0.114 C 
BRANCH  28  29
HETATM   29  C   UNL     1     -45.725  62.622 -48.488  1.00  0.00    -0.027 A 
HETATM   30  C   UNL     1     -46.931  62.654 -47.771  1.00  0.00     0.041 A 
HETATM   31 CL   UNL     1     -48.276  63.613 -48.280  1.00  0.00    -0.084 Cl
HETATM   32  C   UNL     1     -47.081  61.903 -46.600  1.00  0.00     0.024 A 
HETATM   33  C   UNL     1     -46.035  61.109 -46.132  1.00  0.00     0.002 A 
HETATM   34  C   UNL     1     -44.837  61.058 -46.837  1.00  0.00     0.001 A 
HETATM   35  C   UNL     1     -44.684  61.804 -48.008  1.00  0.00     0.009 A 
ENDBRANCH  28  29
ENDBRANCH  27  28
ENDBRANCH  26  27
ENDBRANCH   6  26
TORSDOF 7
ENDMDL
MODEL 8
REMARK VINA RESULT:      -8.0      5.640      6.903
REMARK  7 active torsions:
REMARK  status: ('A' for Active; 'I' for Inactive)
REMARK    1  A    between atoms: C_5  and  C_6 
REMARK    2  A    between atoms: C_6  and  N_7 
REMARK       I    between atoms: N_7  and  C_8 
REMARK    3  A    between atoms: C_8  and  C_9 
REMARK    4  A    between atoms: C_14  and  C_15 
REMARK    5  A    between atoms: C_15  and  S_16 
REMARK    6  A    between atoms: S_16  and  C_17 
REMARK    7  A    between atoms: C_17  and  C_18 
ROOT
HETATM    1  C   UNL     1     -46.138  60.381 -52.357  1.00  0.00     0.034 A 
HETATM    2  C   UNL     1     -45.666  60.056 -53.635  1.00  0.00     0.048 A 
HETATM    3  C   UNL     1     -44.987  58.849 -53.830  1.00  0.00     0.057 A 
HETATM    4  C   UNL     1     -44.767  57.958 -52.765  1.00  0.00     0.036 A 
HETATM    5  N   UNL     1     -44.026  56.772 -52.917  1.00  0.00    -0.277 NA
HETATM    6  C   UNL     1     -43.982  56.251 -54.305  1.00  0.00     0.162 C 
HETATM    7  C   UNL     1     -43.838  57.357 -55.370  1.00  0.00     0.240 C 
HETATM    8  O   UNL     1     -43.299  57.181 -56.461  1.00  0.00    -0.271 OA
HETATM    9  N   UNL     1     -44.465  58.548 -55.095  1.00  0.00    -0.324 N 
HETATM   10  C   UNL     1     -45.182  58.323 -51.485  1.00  0.00     0.027 A 
HETATM   11  C   UNL     1     -45.872  59.519 -51.283  1.00  0.00     0.019 A 
HETATM   12  H   UNL     1     -43.086  56.907 -52.540  1.00  0.00     0.128 HD
HETATM   13  H   UNL     1     -44.471  59.235 -55.835  1.00  0.00     0.169 HD
ENDROOT
BRANCH   1  14
HETATM   14  C   UNL     1     -46.901  61.627 -52.064  1.00  0.00     0.252 C 
HETATM   15  N   UNL     1     -48.114  61.789 -52.699  1.00  0.00    -0.353 N 
HETATM   16  H   UNL     1     -48.512  61.043 -53.249  1.00  0.00     0.163 HD
HETATM   17  O   UNL     1     -46.453  62.432 -51.255  1.00  0.00    -0.268 OA
BRANCH  15  18
HETATM   18  C   UNL     1     -48.997  62.882 -52.346  1.00  0.00     0.161 C 
BRANCH  18  19
HETATM   19  C   UNL     1     -50.381  62.708 -52.915  1.00  0.00    -0.041 A 
HETATM   20  C   UNL     1     -51.502  63.164 -52.209  1.00  0.00     0.009 A 
HETATM   21  C   UNL     1     -52.779  63.089 -52.773  1.00  0.00     0.007 A 
HETATM   22  C   UNL     1     -52.958  62.557 -54.054  1.00  0.00    -0.062 A 
HETATM   23  C   UNL     1     -54.317  62.511 -54.687  1.00  0.00     0.048 C 
HETATM   24  C   UNL     1     -51.841  62.101 -54.762  1.00  0.00     0.007 A 
HETATM   25  C   UNL     1     -50.565  62.181 -54.201  1.00  0.00     0.009 A 
ENDBRANCH  18  19
ENDBRANCH  15  18
ENDBRANCH   1  14
BRANCH   6  26
HETATM   26  C   UNL     1     -42.861  55.209 -54.479  1.00  0.00     0.103 C 
BRANCH  26  27
HETATM   27  S   UNL     1     -42.506  54.168 -53.006  1.00  0.00    -0.162 SA
BRANCH  27  28
HETATM   28  C   UNL     1     -40.709  53.954 -53.209  1.00  0.00     0.114 C 
BRANCH  28  29
HETATM   29  C   UNL     1     -40.296  52.510 -53.062  1.00  0.00    -0.027 A 
HETATM   30  C   UNL     1     -39.962  51.931 -51.827  1.00  0.00     0.041 A 
HETATM   31 CL   UNL     1     -39.990  52.834 -50.354  1.00  0.00    -0.084 Cl
HETATM   32  C   UNL     1     -39.584  50.586 -51.752  1.00  0.00     0.024 A 
HETATM   33  C   UNL     1     -39.539  49.801 -52.904  1.00  0.00     0.002 A 
HETATM   34  C   UNL     1     -39.878  50.357 -54.133  1.00  0.00     0.001 A 
HETATM   35  C   UNL     1     -40.258  51.698 -54.211  1.00  0.00     0.009 A 
ENDBRANCH  28  29
ENDBRANCH  27  28
ENDBRANCH  26  27
ENDBRANCH   6  26
TORSDOF 7
ENDMDL
MODEL 9
REMARK VINA RESULT:      -7.9      5.234      8.776
REMARK  7 active torsions:
REMARK  status: ('A' for Active; 'I' for Inactive)
REMARK    1  A    between atoms: C_5  and  C_6 
REMARK    2  A    between atoms: C_6  and  N_7 
REMARK       I    between atoms: N_7  and  C_8 
REMARK    3  A    between atoms: C_8  and  C_9 
REMARK    4  A    between atoms: C_14  and  C_15 
REMARK    5  A    between atoms: C_15  and  S_16 
REMARK    6  A    between atoms: S_16  and  C_17 
REMARK    7  A    between atoms: C_17  and  C_18 
ROOT
HETATM    1  C   UNL     1     -45.485  60.475 -51.418  1.00  0.00     0.034 A 
HETATM    2  C   UNL     1     -45.794  60.289 -52.770  1.00  0.00     0.048 A 
HETATM    3  C   UNL     1     -45.203  59.232 -53.471  1.00  0.00     0.057 A 
HETATM    4  C   UNL     1     -44.304  58.354 -52.840  1.00  0.00     0.036 A 
HETATM    5  N   UNL     1     -43.642  57.327 -53.537  1.00  0.00    -0.277 NA
HETATM    6  C   UNL     1     -44.335  56.877 -54.769  1.00  0.00     0.162 C 
HETATM    7  C   UNL     1     -44.966  58.031 -55.573  1.00  0.00     0.240 C 
HETATM    8  O   UNL     1     -45.131  57.997 -56.791  1.00  0.00    -0.271 OA
HETATM    9  N   UNL     1     -45.466  59.079 -54.838  1.00  0.00    -0.324 N 
HETATM   10  C   UNL     1     -43.954  58.590 -51.512  1.00  0.00     0.027 A 
HETATM   11  C   UNL     1     -44.548  59.634 -50.801  1.00  0.00     0.019 A 
HETATM   12  H   UNL     1     -42.681  57.614 -53.735  1.00  0.00     0.128 HD
HETATM   13  H   UNL     1     -45.981  59.782 -55.350  1.00  0.00     0.169 HD
ENDROOT
BRANCH   1  14
HETATM   14  C   UNL     1     -46.093  61.551 -50.585  1.00  0.00     0.252 C 
HETATM   15  N   UNL     1     -46.025  61.406 -49.217  1.00  0.00    -0.353 N 
HETATM   16  H   UNL     1     -45.488  60.660 -48.802  1.00  0.00     0.163 HD
HETATM   17  O   UNL     1     -46.590  62.529 -51.134  1.00  0.00    -0.268 OA
BRANCH  15  18
HETATM   18  C   UNL     1     -46.436  62.481 -48.334  1.00  0.00     0.161 C 
BRANCH  18  19
HETATM   19  C   UNL     1     -45.686  62.469 -47.028  1.00  0.00    -0.041 A 
HETATM   20  C   UNL     1     -45.548  63.644 -46.278  1.00  0.00     0.009 A 
HETATM   21  C   UNL     1     -44.934  63.621 -45.022  1.00  0.00     0.007 A 
HETATM   22  C   UNL     1     -44.447  62.421 -44.494  1.00  0.00    -0.062 A 
HETATM   23  C   UNL     1     -43.825  62.375 -43.129  1.00  0.00     0.048 C 
HETATM   24  C   UNL     1     -44.583  61.245 -45.239  1.00  0.00     0.007 A 
HETATM   25  C   UNL     1     -45.202  61.268 -46.491  1.00  0.00     0.009 A 
ENDBRANCH  18  19
ENDBRANCH  15  18
ENDBRANCH   1  14
BRANCH   6  26
HETATM   26  C   UNL     1     -43.395  56.061 -55.676  1.00  0.00     0.103 C 
BRANCH  26  27
HETATM   27  S   UNL     1     -42.923  54.400 -55.045  1.00  0.00    -0.162 SA
BRANCH  27  28
HETATM   28  C   UNL     1     -41.183  54.719 -54.613  1.00  0.00     0.114 C 
BRANCH  28  29
HETATM   29  C   UNL     1     -40.618  53.638 -53.725  1.00  0.00    -0.027 A 
HETATM   30  C   UNL     1     -40.544  53.754 -52.328  1.00  0.00     0.041 A 
HETATM   31 CL   UNL     1     -41.095  55.165 -51.495  1.00  0.00    -0.084 Cl
HETATM   32  C   UNL     1     -40.008  52.718 -51.556  1.00  0.00     0.024 A 
HETATM   33  C   UNL     1     -39.544  51.553 -52.165  1.00  0.00     0.002 A 
HETATM   34  C   UNL     1     -39.621  51.417 -53.548  1.00  0.00     0.001 A 
HETATM   35  C   UNL     1     -40.157  52.448 -54.321  1.00  0.00     0.009 A 
ENDBRANCH  28  29
ENDBRANCH  27  28
ENDBRANCH  26  27
ENDBRANCH   6  26
TORSDOF 7
ENDMDL
MODEL 10
REMARK VINA RESULT:      -7.9      4.983      7.828
REMARK  7 active torsions:
REMARK  status: ('A' for Active; 'I' for Inactive)
REMARK    1  A    between atoms: C_5  and  C_6 
REMARK    2  A    between atoms: C_6  and  N_7 
REMARK       I    between atoms: N_7  and  C_8 
REMARK    3  A    between atoms: C_8  and  C_9 
REMARK    4  A    between atoms: C_14  and  C_15 
REMARK    5  A    between atoms: C_15  and  S_16 
REMARK    6  A    between atoms: S_16  and  C_17 
REMARK    7  A    between atoms: C_17  and  C_18 
ROOT
HETATM    1  C   UNL     1     -45.200  59.579 -52.363  1.00  0.00     0.034 A 
HETATM    2  C   UNL     1     -44.854  59.132 -53.644  1.00  0.00     0.048 A 
HETATM    3  C   UNL     1     -44.307  57.853 -53.800  1.00  0.00     0.057 A 
HETATM    4  C   UNL     1     -44.098  57.011 -52.694  1.00  0.00     0.036 A 
HETATM    5  N   UNL     1     -43.485  55.751 -52.813  1.00  0.00    -0.277 NA
HETATM    6  C   UNL     1     -43.589  55.144 -54.162  1.00  0.00     0.162 C 
HETATM    7  C   UNL     1     -43.418  56.162 -55.307  1.00  0.00     0.240 C 
HETATM    8  O   UNL     1     -42.977  55.867 -56.416  1.00  0.00    -0.271 OA
HETATM    9  N   UNL     1     -43.908  57.425 -55.073  1.00  0.00    -0.324 N 
HETATM   10  C   UNL     1     -44.383  57.495 -51.418  1.00  0.00     0.027 A 
HETATM   11  C   UNL     1     -44.941  58.763 -51.252  1.00  0.00     0.019 A 
HETATM   12  H   UNL     1     -42.511  55.815 -52.508  1.00  0.00     0.128 HD
HETATM   13  H   UNL     1     -43.902  58.062 -55.857  1.00  0.00     0.169 HD
ENDROOT
BRANCH   1  14
HETATM   14  C   UNL     1     -45.819  60.910 -52.108  1.00  0.00     0.252 C 
HETATM   15  N   UNL     1     -46.291  61.154 -50.836  1.00  0.00    -0.353 N 
HETATM   16  H   UNL     1     -46.122  60.499 -50.088  1.00  0.00     0.163 HD
HETATM   17  O   UNL     1     -45.853  61.742 -53.008  1.00  0.00    -0.268 OA
BRANCH  15  18
HETATM   18  C   UNL     1     -46.752  62.474 -50.455  1.00  0.00     0.161 C 
BRANCH  18  19
HETATM   19  C   UNL     1     -46.596  62.731 -48.979  1.00  0.00    -0.041 A 
HETATM   20  C   UNL     1     -45.378  62.470 -48.337  1.00  0.00     0.009 A 
HETATM   21  C   UNL     1     -45.198  62.793 -46.989  1.00  0.00     0.007 A 
HETATM   22  C   UNL     1     -46.233  63.384 -46.258  1.00  0.00    -0.062 A 
HETATM   23  C   UNL     1     -46.039  63.775 -44.822  1.00  0.00     0.048 C 
HETATM   24  C   UNL     1     -47.452  63.646 -46.894  1.00  0.00     0.007 A 
HETATM   25  C   UNL     1     -47.629  63.329 -48.243  1.00  0.00     0.009 A 
ENDBRANCH  18  19
ENDBRANCH  15  18
ENDBRANCH   1  14
BRANCH   6  26
HETATM   26  C   UNL     1     -42.588  53.988 -54.337  1.00  0.00     0.103 C 
BRANCH  26  27
HETATM   27  S   UNL     1     -40.914  54.269 -53.630  1.00  0.00    -0.162 SA
BRANCH  27  28
HETATM   28  C   UNL     1     -40.075  52.766 -54.223  1.00  0.00     0.114 C 
BRANCH  28  29
HETATM   29  C   UNL     1     -39.923  51.739 -53.128  1.00  0.00    -0.027 A 
HETATM   30  C   UNL     1     -39.743  50.370 -53.381  1.00  0.00     0.041 A 
HETATM   31 CL   UNL     1     -39.684  49.735 -54.988  1.00  0.00    -0.084 Cl
HETATM   32  C   UNL     1     -39.610  49.463 -52.324  1.00  0.00     0.024 A 
HETATM   33  C   UNL     1     -39.650  49.909 -51.004  1.00  0.00     0.002 A 
HETATM   34  C   UNL     1     -39.817  51.264 -50.735  1.00  0.00     0.001 A 
HETATM   35  C   UNL     1     -39.948  52.172 -51.788  1.00  0.00     0.009 A 
ENDBRANCH  28  29
ENDBRANCH  27  28
ENDBRANCH  26  27
ENDBRANCH   6  26
TORSDOF 7
ENDMDL
