MODEL 1
REMARK VINA RESULT:      -8.1      0.000      0.000
REMARK  5 active torsions:
REMARK  status: ('A' for Active; 'I' for Inactive)
REMARK    1  A    between atoms: C_3  and  N_4 
REMARK    2  A    between atoms: N_4  and  C_5 
REMARK    3  A    between atoms: C_5  and  C_6 
REMARK    4  A    between atoms: C_8  and  N_9 
REMARK    5  A    between atoms: C_18  and  C_19 
ROOT
HETATM    1  C   UNL     1     -41.442  56.463 -53.220  1.00  0.00     0.053 C 
HETATM    2  C   UNL     1     -41.046  55.027 -53.012  1.00  0.00    -0.005 A 
HETATM    3  C   UNL     1     -40.920  54.170 -54.264  1.00  0.00     0.151 A 
HETATM    4  N   UNL     1     -40.531  52.921 -54.235  1.00  0.00    -0.146 NA
HETATM    5  N   UNL     1     -40.268  52.438 -53.000  1.00  0.00    -0.187 N 
HETATM    6  C   UNL     1     -40.361  53.107 -51.803  1.00  0.00     0.181 A 
HETATM    7  C   UNL     1     -40.766  54.470 -51.809  1.00  0.00    -0.003 A 
HETATM    8  C   UNL     1     -40.883  55.256 -50.524  1.00  0.00     0.053 C 
HETATM    9  C   UNL     1     -39.869  51.171 -52.680  1.00  0.00     0.258 A 
HETATM   10  N   UNL     1     -39.721  51.073 -51.369  1.00  0.00    -0.123 NA
HETATM   11  N   UNL     1     -40.031  52.294 -50.820  1.00  0.00    -0.128 NA
ENDROOT
BRANCH   3  12
HETATM   12  N   UNL     1     -41.216  54.704 -55.494  1.00  0.00    -0.366 N 
HETATM   13  H   UNL     1     -40.618  55.431 -55.881  1.00  0.00     0.161 HD
BRANCH  12  14
HETATM   14  C   UNL     1     -42.579  54.796 -56.013  1.00  0.00     0.201 C 
BRANCH  14  15
HETATM   15  C   UNL     1     -42.690  55.868 -57.086  1.00  0.00     0.144 A 
HETATM   16  N   UNL     1     -43.138  55.496 -58.303  1.00  0.00    -0.220 NA
HETATM   17  C   UNL     1     -43.253  56.457 -59.226  1.00  0.00     0.104 A 
HETATM   18  C   UNL     1     -42.934  57.773 -58.978  1.00  0.00     0.063 A 
HETATM   19  C   UNL     1     -42.496  58.061 -57.708  1.00  0.00     0.122 A 
HETATM   20  N   UNL     1     -42.366  57.137 -56.740  1.00  0.00    -0.244 NA
BRANCH  17  21
HETATM   21  N   UNL     1     -43.677  56.059 -60.490  1.00  0.00    -0.287 NA
HETATM   22  H   UNL     1     -43.637  55.042 -60.523  1.00  0.00     0.125 HD
HETATM   23  H   UNL     1     -44.604  56.404 -60.709  1.00  0.00     0.125 HD
ENDBRANCH  17  21
ENDBRANCH  14  15
ENDBRANCH  12  14
ENDBRANCH   3  12
BRANCH   9  24
HETATM   24  C   UNL     1     -39.667  50.152 -53.717  1.00  0.00     0.454 C 
HETATM   25  F   UNL     1     -40.803  49.883 -54.418  1.00  0.00    -0.163 F 
HETATM   26  F   UNL     1     -38.722  50.513 -54.627  1.00  0.00    -0.163 F 
HETATM   27  F   UNL     1     -39.258  48.960 -53.202  1.00  0.00    -0.163 F 
ENDBRANCH   9  24
TORSDOF 5
ENDMDL
MODEL 2
REMARK VINA RESULT:      -8.0      2.812      3.503
REMARK  5 active torsions:
REMARK  status: ('A' for Active; 'I' for Inactive)
REMARK    1  A    between atoms: C_3  and  N_4 
REMARK    2  A    between atoms: N_4  and  C_5 
REMARK    3  A    between atoms: C_5  and  C_6 
REMARK    4  A    between atoms: C_8  and  N_9 
REMARK    5  A    between atoms: C_18  and  C_19 
ROOT
HETATM    1  C   UNL     1     -43.450  56.186 -50.798  1.00  0.00     0.053 C 
HETATM    2  C   UNL     1     -42.568  55.076 -51.299  1.00  0.00    -0.005 A 
HETATM    3  C   UNL     1     -42.770  54.647 -52.746  1.00  0.00     0.151 A 
HETATM    4  N   UNL     1     -42.036  53.732 -53.326  1.00  0.00    -0.146 NA
HETATM    5  N   UNL     1     -41.092  53.177 -52.534  1.00  0.00    -0.187 N 
HETATM    6  C   UNL     1     -40.827  53.469 -51.217  1.00  0.00     0.181 A 
HETATM    7  C   UNL     1     -41.601  54.470 -50.568  1.00  0.00    -0.003 A 
HETATM    8  C   UNL     1     -41.352  54.835 -49.123  1.00  0.00     0.053 C 
HETATM    9  C   UNL     1     -40.208  52.192 -52.874  1.00  0.00     0.258 A 
HETATM   10  N   UNL     1     -39.447  51.903 -51.832  1.00  0.00    -0.123 NA
HETATM   11  N   UNL     1     -39.839  52.709 -50.790  1.00  0.00    -0.128 NA
ENDROOT
BRANCH   3  12
HETATM   12  N   UNL     1     -43.756  55.231 -53.503  1.00  0.00    -0.366 N 
HETATM   13  H   UNL     1     -44.634  54.739 -53.647  1.00  0.00     0.161 HD
BRANCH  12  14
HETATM   14  C   UNL     1     -43.472  56.157 -54.598  1.00  0.00     0.201 C 
BRANCH  14  15
HETATM   15  C   UNL     1     -43.003  57.505 -54.071  1.00  0.00     0.144 A 
HETATM   16  N   UNL     1     -41.679  57.680 -53.880  1.00  0.00    -0.220 NA
HETATM   17  C   UNL     1     -41.283  58.880 -53.442  1.00  0.00     0.104 A 
HETATM   18  C   UNL     1     -42.161  59.908 -53.185  1.00  0.00     0.063 A 
HETATM   19  C   UNL     1     -43.489  59.643 -53.418  1.00  0.00     0.122 A 
HETATM   20  N   UNL     1     -43.942  58.458 -53.863  1.00  0.00    -0.244 NA
BRANCH  17  21
HETATM   21  N   UNL     1     -39.920  59.039 -53.209  1.00  0.00    -0.287 NA
HETATM   22  H   UNL     1     -39.592  58.211 -52.718  1.00  0.00     0.125 HD
HETATM   23  H   UNL     1     -39.401  59.196 -54.066  1.00  0.00     0.125 HD
ENDBRANCH  17  21
ENDBRANCH  14  15
ENDBRANCH  12  14
ENDBRANCH   3  12
BRANCH   9  24
HETATM   24  C   UNL     1     -40.197  51.612 -54.223  1.00  0.00     0.454 C 
HETATM   25  F   UNL     1     -41.372  51.004 -54.544  1.00  0.00    -0.163 F 
HETATM   26  F   UNL     1     -39.962  52.542 -55.188  1.00  0.00    -0.163 F 
HETATM   27  F   UNL     1     -39.233  50.662 -54.372  1.00  0.00    -0.163 F 
ENDBRANCH   9  24
TORSDOF 5
ENDMDL
MODEL 3
REMARK VINA RESULT:      -8.0      3.368      4.527
REMARK  5 active torsions:
REMARK  status: ('A' for Active; 'I' for Inactive)
REMARK    1  A    between atoms: C_3  and  N_4 
REMARK    2  A    between atoms: N_4  and  C_5 
REMARK    3  A    between atoms: C_5  and  C_6 
REMARK    4  A    between atoms: C_8  and  N_9 
REMARK    5  A    between atoms: C_18  and  C_19 
ROOT
HETATM    1  C   UNL     1     -41.396  56.510 -49.866  1.00  0.00     0.053 C 
HETATM    2  C   UNL     1     -41.061  55.274 -50.654  1.00  0.00    -0.005 A 
HETATM    3  C   UNL     1     -41.467  55.273 -52.122  1.00  0.00     0.151 A 
HETATM    4  N   UNL     1     -41.190  54.287 -52.936  1.00  0.00    -0.146 NA
HETATM    5  N   UNL     1     -40.530  53.253 -52.370  1.00  0.00    -0.187 N 
HETATM    6  C   UNL     1     -40.126  53.133 -51.061  1.00  0.00     0.181 A 
HETATM    7  C   UNL     1     -40.402  54.198 -50.159  1.00  0.00    -0.003 A 
HETATM    8  C   UNL     1     -39.980  54.123 -48.710  1.00  0.00     0.053 C 
HETATM    9  C   UNL     1     -40.137  52.094 -52.980  1.00  0.00     0.258 A 
HETATM   10  N   UNL     1     -39.527  51.317 -52.100  1.00  0.00    -0.123 NA
HETATM   11  N   UNL     1     -39.522  51.975 -50.893  1.00  0.00    -0.128 NA
ENDROOT
BRANCH   3  12
HETATM   12  N   UNL     1     -42.152  56.342 -52.644  1.00  0.00    -0.366 N 
HETATM   13  H   UNL     1     -41.896  57.286 -52.364  1.00  0.00     0.161 HD
BRANCH  12  14
HETATM   14  C   UNL     1     -43.553  56.264 -53.054  1.00  0.00     0.201 C 
BRANCH  14  15
HETATM   15  C   UNL     1     -44.317  57.514 -52.645  1.00  0.00     0.144 A 
HETATM   16  N   UNL     1     -44.722  57.613 -51.362  1.00  0.00    -0.220 NA
HETATM   17  C   UNL     1     -45.369  58.730 -51.015  1.00  0.00     0.104 A 
HETATM   18  C   UNL     1     -45.630  59.749 -51.903  1.00  0.00     0.063 A 
HETATM   19  C   UNL     1     -45.172  59.566 -53.185  1.00  0.00     0.122 A 
HETATM   20  N   UNL     1     -44.511  58.467 -53.588  1.00  0.00    -0.244 NA
BRANCH  17  21
HETATM   21  N   UNL     1     -45.819  58.807 -49.700  1.00  0.00    -0.287 NA
HETATM   22  H   UNL     1     -45.915  57.856 -49.351  1.00  0.00     0.125 HD
HETATM   23  H   UNL     1     -45.201  59.359 -49.116  1.00  0.00     0.125 HD
ENDBRANCH  17  21
ENDBRANCH  14  15
ENDBRANCH  12  14
ENDBRANCH   3  12
BRANCH   9  24
HETATM   24  C   UNL     1     -40.408  51.854 -54.402  1.00  0.00     0.454 C 
HETATM   25  F   UNL     1     -39.827  50.712 -54.862  1.00  0.00    -0.163 F 
HETATM   26  F   UNL     1     -41.738  51.751 -54.671  1.00  0.00    -0.163 F 
HETATM   27  F   UNL     1     -39.939  52.856 -55.196  1.00  0.00    -0.163 F 
ENDBRANCH   9  24
TORSDOF 5
ENDMDL
MODEL 4
REMARK VINA RESULT:      -7.7      1.459      2.028
REMARK  5 active torsions:
REMARK  status: ('A' for Active; 'I' for Inactive)
REMARK    1  A    between atoms: C_3  and  N_4 
REMARK    2  A    between atoms: N_4  and  C_5 
REMARK    3  A    between atoms: C_5  and  C_6 
REMARK    4  A    between atoms: C_8  and  N_9 
REMARK    5  A    between atoms: C_18  and  C_19 
ROOT
HETATM    1  C   UNL     1     -41.314  56.564 -50.146  1.00  0.00     0.053 C 
HETATM    2  C   UNL     1     -41.004  55.256 -50.821  1.00  0.00    -0.005 A 
HETATM    3  C   UNL     1     -41.234  55.197 -52.326  1.00  0.00     0.151 A 
HETATM    4  N   UNL     1     -40.955  54.142 -53.047  1.00  0.00    -0.146 NA
HETATM    5  N   UNL     1     -40.463  53.093 -52.350  1.00  0.00    -0.187 N 
HETATM    6  C   UNL     1     -40.229  53.023 -50.998  1.00  0.00     0.181 A 
HETATM    7  C   UNL     1     -40.509  54.162 -50.194  1.00  0.00    -0.003 A 
HETATM    8  C   UNL     1     -40.268  54.143 -48.702  1.00  0.00     0.053 C 
HETATM    9  C   UNL     1     -40.110  51.869 -52.846  1.00  0.00     0.258 A 
HETATM   10  N   UNL     1     -39.681  51.101 -51.859  1.00  0.00    -0.123 NA
HETATM   11  N   UNL     1     -39.757  51.830 -50.697  1.00  0.00    -0.128 NA
ENDROOT
BRANCH   3  12
HETATM   12  N   UNL     1     -41.752  56.286 -52.983  1.00  0.00    -0.366 N 
HETATM   13  H   UNL     1     -41.516  57.222 -52.664  1.00  0.00     0.161 HD
BRANCH  12  14
HETATM   14  C   UNL     1     -43.044  56.260 -53.666  1.00  0.00     0.201 C 
BRANCH  14  15
HETATM   15  C   UNL     1     -42.916  56.736 -55.105  1.00  0.00     0.144 A 
HETATM   16  N   UNL     1     -43.330  55.903 -56.083  1.00  0.00    -0.220 NA
HETATM   17  C   UNL     1     -43.234  56.349 -57.339  1.00  0.00     0.104 A 
HETATM   18  C   UNL     1     -42.738  57.594 -57.654  1.00  0.00     0.063 A 
HETATM   19  C   UNL     1     -42.351  58.378 -56.594  1.00  0.00     0.122 A 
HETATM   20  N   UNL     1     -42.430  57.983 -55.311  1.00  0.00    -0.244 NA
BRANCH  17  21
HETATM   21  N   UNL     1     -43.625  55.470 -58.344  1.00  0.00    -0.287 NA
HETATM   22  H   UNL     1     -44.613  55.629 -58.526  1.00  0.00     0.125 HD
HETATM   23  H   UNL     1     -43.068  55.576 -59.184  1.00  0.00     0.125 HD
ENDBRANCH  17  21
ENDBRANCH  14  15
ENDBRANCH  12  14
ENDBRANCH   3  12
BRANCH   9  24
HETATM   24  C   UNL     1     -40.232  51.564 -54.276  1.00  0.00     0.454 C 
HETATM   25  F   UNL     1     -39.808  52.585 -55.070  1.00  0.00    -0.163 F 
HETATM   26  F   UNL     1     -39.517  50.464 -54.638  1.00  0.00    -0.163 F 
HETATM   27  F   UNL     1     -41.518  51.314 -54.646  1.00  0.00    -0.163 F 
ENDBRANCH   9  24
TORSDOF 5
ENDMDL
MODEL 5
REMARK VINA RESULT:      -7.7      3.208      4.098
REMARK  5 active torsions:
REMARK  status: ('A' for Active; 'I' for Inactive)
REMARK    1  A    between atoms: C_3  and  N_4 
REMARK    2  A    between atoms: N_4  and  C_5 
REMARK    3  A    between atoms: C_5  and  C_6 
REMARK    4  A    between atoms: C_8  and  N_9 
REMARK    5  A    between atoms: C_18  and  C_19 
ROOT
HETATM    1  C   UNL     1     -40.455  51.426 -54.384  1.00  0.00     0.053 C 
HETATM    2  C   UNL     1     -40.517  52.518 -53.352  1.00  0.00    -0.005 A 
HETATM    3  C   UNL     1     -41.141  53.835 -53.793  1.00  0.00     0.151 A 
HETATM    4  N   UNL     1     -41.308  54.849 -52.984  1.00  0.00    -0.146 NA
HETATM    5  N   UNL     1     -40.862  54.648 -51.724  1.00  0.00    -0.187 N 
HETATM    6  C   UNL     1     -40.271  53.517 -51.216  1.00  0.00     0.181 A 
HETATM    7  C   UNL     1     -40.093  52.394 -52.071  1.00  0.00    -0.003 A 
HETATM    8  C   UNL     1     -39.452  51.122 -51.567  1.00  0.00     0.053 C 
HETATM    9  C   UNL     1     -40.892  55.540 -50.689  1.00  0.00     0.258 A 
HETATM   10  N   UNL     1     -40.358  54.986 -49.613  1.00  0.00    -0.123 NA
HETATM   11  N   UNL     1     -39.968  53.712 -49.949  1.00  0.00    -0.128 NA
ENDROOT
BRANCH   3  12
HETATM   12  N   UNL     1     -41.562  53.994 -55.091  1.00  0.00    -0.366 N 
HETATM   13  H   UNL     1     -40.878  54.184 -55.819  1.00  0.00     0.161 HD
BRANCH  12  14
HETATM   14  C   UNL     1     -42.880  54.522 -55.439  1.00  0.00     0.201 C 
BRANCH  14  15
HETATM   15  C   UNL     1     -42.777  55.599 -56.508  1.00  0.00     0.144 A 
HETATM   16  N   UNL     1     -43.041  55.247 -57.783  1.00  0.00    -0.220 NA
HETATM   17  C   UNL     1     -42.971  56.213 -58.705  1.00  0.00     0.104 A 
HETATM   18  C   UNL     1     -42.644  57.515 -58.400  1.00  0.00     0.063 A 
HETATM   19  C   UNL     1     -42.401  57.784 -57.074  1.00  0.00     0.122 A 
HETATM   20  N   UNL     1     -42.463  56.854 -56.105  1.00  0.00    -0.244 NA
BRANCH  17  21
HETATM   21  N   UNL     1     -43.205  55.834 -60.023  1.00  0.00    -0.287 NA
HETATM   22  H   UNL     1     -44.205  55.678 -60.127  1.00  0.00     0.125 HD
HETATM   23  H   UNL     1     -42.863  56.521 -60.686  1.00  0.00     0.125 HD
ENDBRANCH  17  21
ENDBRANCH  14  15
ENDBRANCH  12  14
ENDBRANCH   3  12
BRANCH   9  24
HETATM   24  C   UNL     1     -41.455  56.885 -50.859  1.00  0.00     0.454 C 
HETATM   25  F   UNL     1     -42.811  56.877 -50.977  1.00  0.00    -0.163 F 
HETATM   26  F   UNL     1     -41.158  57.710 -49.818  1.00  0.00    -0.163 F 
HETATM   27  F   UNL     1     -40.987  57.506 -51.977  1.00  0.00    -0.163 F 
ENDBRANCH   9  24
TORSDOF 5
ENDMDL
MODEL 6
REMARK VINA RESULT:      -7.5      2.879      6.701
REMARK  5 active torsions:
REMARK  status: ('A' for Active; 'I' for Inactive)
REMARK    1  A    between atoms: C_3  and  N_4 
REMARK    2  A    between atoms: N_4  and  C_5 
REMARK    3  A    between atoms: C_5  and  C_6 
REMARK    4  A    between atoms: C_8  and  N_9 
REMARK    5  A    between atoms: C_18  and  C_19 
ROOT
HETATM    1  C   UNL     1     -41.364  56.170 -49.726  1.00  0.00     0.053 C 
HETATM    2  C   UNL     1     -41.644  56.223 -51.202  1.00  0.00    -0.005 A 
HETATM    3  C   UNL     1     -41.548  54.905 -51.960  1.00  0.00     0.151 A 
HETATM    4  N   UNL     1     -41.819  54.797 -53.235  1.00  0.00    -0.146 NA
HETATM    5  N   UNL     1     -42.172  55.953 -53.840  1.00  0.00    -0.187 N 
HETATM    6  C   UNL     1     -42.278  57.198 -53.268  1.00  0.00     0.181 A 
HETATM    7  C   UNL     1     -42.004  57.340 -51.879  1.00  0.00    -0.003 A 
HETATM    8  C   UNL     1     -42.106  58.684 -51.197  1.00  0.00     0.053 C 
HETATM    9  C   UNL     1     -42.485  56.129 -55.159  1.00  0.00     0.258 A 
HETATM   10  N   UNL     1     -42.769  57.402 -55.378  1.00  0.00    -0.123 NA
HETATM   11  N   UNL     1     -42.638  58.072 -54.186  1.00  0.00    -0.128 NA
ENDROOT
BRANCH   3  12
HETATM   12  N   UNL     1     -41.168  53.762 -51.301  1.00  0.00    -0.366 N 
HETATM   13  H   UNL     1     -41.656  53.487 -50.452  1.00  0.00     0.161 HD
BRANCH  12  14
HETATM   14  C   UNL     1     -39.798  53.251 -51.323  1.00  0.00     0.201 C 
BRANCH  14  15
HETATM   15  C   UNL     1     -39.767  51.772 -51.677  1.00  0.00     0.144 A 
HETATM   16  N   UNL     1     -39.703  51.438 -52.982  1.00  0.00    -0.220 NA
HETATM   17  C   UNL     1     -39.650  50.134 -53.273  1.00  0.00     0.104 A 
HETATM   18  C   UNL     1     -39.662  49.153 -52.307  1.00  0.00     0.063 A 
HETATM   19  C   UNL     1     -39.719  49.586 -51.004  1.00  0.00     0.122 A 
HETATM   20  N   UNL     1     -39.768  50.884 -50.655  1.00  0.00    -0.244 NA
BRANCH  17  21
HETATM   21  N   UNL     1     -39.624  49.797 -54.622  1.00  0.00    -0.287 NA
HETATM   22  H   UNL     1     -39.002  48.999 -54.729  1.00  0.00     0.125 HD
HETATM   23  H   UNL     1     -40.550  49.601 -54.986  1.00  0.00     0.125 HD
ENDBRANCH  17  21
ENDBRANCH  14  15
ENDBRANCH  12  14
ENDBRANCH   3  12
BRANCH   9  24
HETATM   24  C   UNL     1     -42.472  55.004 -56.101  1.00  0.00     0.454 C 
HETATM   25  F   UNL     1     -42.712  55.390 -57.384  1.00  0.00    -0.163 F 
HETATM   26  F   UNL     1     -41.284  54.342 -56.107  1.00  0.00    -0.163 F 
HETATM   27  F   UNL     1     -43.421  54.072 -55.809  1.00  0.00    -0.163 F 
ENDBRANCH   9  24
TORSDOF 5
ENDMDL
MODEL 7
REMARK VINA RESULT:      -7.2     13.545     14.836
REMARK  5 active torsions:
REMARK  status: ('A' for Active; 'I' for Inactive)
REMARK    1  A    between atoms: C_3  and  N_4 
REMARK    2  A    between atoms: N_4  and  C_5 
REMARK    3  A    between atoms: C_5  and  C_6 
REMARK    4  A    between atoms: C_8  and  N_9 
REMARK    5  A    between atoms: C_18  and  C_19 
ROOT
HETATM    1  C   UNL     1     -37.441  40.995 -52.332  1.00  0.00     0.053 C 
HETATM    2  C   UNL     1     -36.097  40.756 -52.963  1.00  0.00    -0.005 A 
HETATM    3  C   UNL     1     -36.079  40.575 -54.476  1.00  0.00     0.151 A 
HETATM    4  N   UNL     1     -34.976  40.413 -55.159  1.00  0.00    -0.146 NA
HETATM    5  N   UNL     1     -33.847  40.398 -54.418  1.00  0.00    -0.187 N 
HETATM    6  C   UNL     1     -33.738  40.535 -53.055  1.00  0.00     0.181 A 
HETATM    7  C   UNL     1     -34.922  40.727 -52.290  1.00  0.00    -0.003 A 
HETATM    8  C   UNL     1     -34.864  40.886 -50.788  1.00  0.00     0.053 C 
HETATM    9  C   UNL     1     -32.568  40.227 -54.869  1.00  0.00     0.258 A 
HETATM   10  N   UNL     1     -31.730  40.262 -53.847  1.00  0.00    -0.123 NA
HETATM   11  N   UNL     1     -32.470  40.456 -52.705  1.00  0.00    -0.128 NA
ENDROOT
BRANCH   3  12
HETATM   12  N   UNL     1     -37.258  40.581 -55.181  1.00  0.00    -0.366 N 
HETATM   13  H   UNL     1     -37.658  39.700 -55.495  1.00  0.00     0.161 HD
BRANCH  12  14
HETATM   14  C   UNL     1     -37.664  41.692 -56.038  1.00  0.00     0.201 C 
BRANCH  14  15
HETATM   15  C   UNL     1     -37.559  41.320 -57.509  1.00  0.00     0.144 A 
HETATM   16  N   UNL     1     -37.392  42.318 -58.401  1.00  0.00    -0.220 NA
HETATM   17  C   UNL     1     -37.275  41.970 -59.687  1.00  0.00     0.104 A 
HETATM   18  C   UNL     1     -37.324  40.662 -60.113  1.00  0.00     0.063 A 
HETATM   19  C   UNL     1     -37.487  39.711 -59.135  1.00  0.00     0.122 A 
HETATM   20  N   UNL     1     -37.604  40.004 -57.827  1.00  0.00    -0.244 NA
BRANCH  17  21
HETATM   21  N   UNL     1     -37.143  43.008 -60.604  1.00  0.00    -0.287 NA
HETATM   22  H   UNL     1     -36.225  42.925 -61.034  1.00  0.00     0.125 HD
HETATM   23  H   UNL     1     -37.882  43.002 -61.298  1.00  0.00     0.125 HD
ENDBRANCH  17  21
ENDBRANCH  14  15
ENDBRANCH  12  14
ENDBRANCH   3  12
BRANCH   9  24
HETATM   24  C   UNL     1     -32.284  40.038 -56.297  1.00  0.00     0.454 C 
HETATM   25  F   UNL     1     -30.965  40.189 -56.596  1.00  0.00    -0.163 F 
HETATM   26  F   UNL     1     -32.646  38.804 -56.742  1.00  0.00    -0.163 F 
HETATM   27  F   UNL     1     -32.948  40.930 -57.082  1.00  0.00    -0.163 F 
ENDBRANCH   9  24
TORSDOF 5
ENDMDL
MODEL 8
REMARK VINA RESULT:      -7.2      4.170      5.075
REMARK  5 active torsions:
REMARK  status: ('A' for Active; 'I' for Inactive)
REMARK    1  A    between atoms: C_3  and  N_4 
REMARK    2  A    between atoms: N_4  and  C_5 
REMARK    3  A    between atoms: C_5  and  C_6 
REMARK    4  A    between atoms: C_8  and  N_9 
REMARK    5  A    between atoms: C_18  and  C_19 
ROOT
HETATM    1  C   UNL     1     -41.037  53.160 -54.483  1.00  0.00     0.053 C 
HETATM    2  C   UNL     1     -41.110  54.448 -53.712  1.00  0.00    -0.005 A 
HETATM    3  C   UNL     1     -41.464  55.698 -54.508  1.00  0.00     0.151 A 
HETATM    4  N   UNL     1     -41.615  56.874 -53.956  1.00  0.00    -0.146 NA
HETATM    5  N   UNL     1     -41.412  56.903 -52.621  1.00  0.00    -0.187 N 
HETATM    6  C   UNL     1     -41.075  55.852 -51.802  1.00  0.00     0.181 A 
HETATM    7  C   UNL     1     -40.921  54.560 -52.375  1.00  0.00    -0.003 A 
HETATM    8  C   UNL     1     -40.554  53.366 -51.523  1.00  0.00     0.053 C 
HETATM    9  C   UNL     1     -41.483  57.995 -51.801  1.00  0.00     0.258 A 
HETATM   10  N   UNL     1     -41.213  57.633 -50.558  1.00  0.00    -0.123 NA
HETATM   11  N   UNL     1     -40.956  56.283 -50.562  1.00  0.00    -0.128 NA
ENDROOT
BRANCH   3  12
HETATM   12  N   UNL     1     -41.644  55.616 -55.868  1.00  0.00    -0.366 N 
HETATM   13  H   UNL     1     -40.932  55.993 -56.490  1.00  0.00     0.161 HD
BRANCH  12  14
HETATM   14  C   UNL     1     -42.964  55.618 -56.495  1.00  0.00     0.201 C 
BRANCH  14  15
HETATM   15  C   UNL     1     -42.932  56.326 -57.841  1.00  0.00     0.144 A 
HETATM   16  N   UNL     1     -43.632  55.779 -58.857  1.00  0.00    -0.220 NA
HETATM   17  C   UNL     1     -43.614  56.429 -60.025  1.00  0.00     0.104 A 
HETATM   18  C   UNL     1     -42.921  57.603 -60.216  1.00  0.00     0.063 A 
HETATM   19  C   UNL     1     -42.246  58.092 -59.123  1.00  0.00     0.122 A 
HETATM   20  N   UNL     1     -42.234  57.484 -57.925  1.00  0.00    -0.244 NA
BRANCH  17  21
HETATM   21  N   UNL     1     -44.304  55.837 -61.078  1.00  0.00    -0.287 NA
HETATM   22  H   UNL     1     -43.618  55.540 -61.768  1.00  0.00     0.125 HD
HETATM   23  H   UNL     1     -44.883  55.064 -60.770  1.00  0.00     0.125 HD
ENDBRANCH  17  21
ENDBRANCH  14  15
ENDBRANCH  12  14
ENDBRANCH   3  12
BRANCH   9  24
HETATM   24  C   UNL     1     -41.816  59.323 -52.331  1.00  0.00     0.454 C 
HETATM   25  F   UNL     1     -41.020  59.689 -53.372  1.00  0.00    -0.163 F 
HETATM   26  F   UNL     1     -43.100  59.401 -52.775  1.00  0.00    -0.163 F 
HETATM   27  F   UNL     1     -41.682  60.304 -51.396  1.00  0.00    -0.163 F 
ENDBRANCH   9  24
TORSDOF 5
ENDMDL
MODEL 9
REMARK VINA RESULT:      -7.1      3.368      7.212
REMARK  5 active torsions:
REMARK  status: ('A' for Active; 'I' for Inactive)
REMARK    1  A    between atoms: C_3  and  N_4 
REMARK    2  A    between atoms: N_4  and  C_5 
REMARK    3  A    between atoms: C_5  and  C_6 
REMARK    4  A    between atoms: C_8  and  N_9 
REMARK    5  A    between atoms: C_18  and  C_19 
ROOT
HETATM    1  C   UNL     1     -43.346  55.108 -50.647  1.00  0.00     0.053 C 
HETATM    2  C   UNL     1     -43.446  55.719 -52.017  1.00  0.00    -0.005 A 
HETATM    3  C   UNL     1     -42.794  54.944 -53.156  1.00  0.00     0.151 A 
HETATM    4  N   UNL     1     -42.852  55.332 -54.404  1.00  0.00    -0.146 NA
HETATM    5  N   UNL     1     -43.519  56.490 -54.608  1.00  0.00    -0.187 N 
HETATM    6  C   UNL     1     -44.131  57.280 -53.665  1.00  0.00     0.181 A 
HETATM    7  C   UNL     1     -44.096  56.872 -52.302  1.00  0.00    -0.003 A 
HETATM    8  C   UNL     1     -44.754  57.700 -51.223  1.00  0.00     0.053 C 
HETATM    9  C   UNL     1     -43.711  57.129 -55.800  1.00  0.00     0.258 A 
HETATM   10  N   UNL     1     -44.403  58.238 -55.599  1.00  0.00    -0.123 NA
HETATM   11  N   UNL     1     -44.666  58.330 -54.254  1.00  0.00    -0.128 NA
ENDROOT
BRANCH   3  12
HETATM   12  N   UNL     1     -42.113  53.781 -52.892  1.00  0.00    -0.366 N 
HETATM   13  H   UNL     1     -42.471  53.140 -52.188  1.00  0.00     0.161 HD
BRANCH  12  14
HETATM   14  C   UNL     1     -40.665  53.657 -53.047  1.00  0.00     0.201 C 
BRANCH  14  15
HETATM   15  C   UNL     1     -40.245  52.199 -53.150  1.00  0.00     0.144 A 
HETATM   16  N   UNL     1     -39.879  51.568 -52.015  1.00  0.00    -0.220 NA
HETATM   17  C   UNL     1     -39.538  50.279 -52.122  1.00  0.00     0.104 A 
HETATM   18  C   UNL     1     -39.546  49.601 -53.319  1.00  0.00     0.063 A 
HETATM   19  C   UNL     1     -39.942  50.321 -54.421  1.00  0.00     0.122 A 
HETATM   20  N   UNL     1     -40.300  51.616 -54.371  1.00  0.00    -0.244 NA
BRANCH  17  21
HETATM   21  N   UNL     1     -39.123  49.646 -50.954  1.00  0.00    -0.287 NA
HETATM   22  H   UNL     1     -39.488  48.696 -50.972  1.00  0.00     0.125 HD
HETATM   23  H   UNL     1     -38.116  49.658 -50.849  1.00  0.00     0.125 HD
ENDBRANCH  17  21
ENDBRANCH  14  15
ENDBRANCH  12  14
ENDBRANCH   3  12
BRANCH   9  24
HETATM   24  C   UNL     1     -43.183  56.577 -57.054  1.00  0.00     0.454 C 
HETATM   25  F   UNL     1     -41.908  56.980 -57.310  1.00  0.00    -0.163 F 
HETATM   26  F   UNL     1     -43.172  55.216 -57.061  1.00  0.00    -0.163 F 
HETATM   27  F   UNL     1     -43.917  56.953 -58.137  1.00  0.00    -0.163 F 
ENDBRANCH   9  24
TORSDOF 5
ENDMDL
MODEL 10
REMARK VINA RESULT:      -6.9      3.719      5.314
REMARK  5 active torsions:
REMARK  status: ('A' for Active; 'I' for Inactive)
REMARK    1  A    between atoms: C_3  and  N_4 
REMARK    2  A    between atoms: N_4  and  C_5 
REMARK    3  A    between atoms: C_5  and  C_6 
REMARK    4  A    between atoms: C_8  and  N_9 
REMARK    5  A    between atoms: C_18  and  C_19 
ROOT
HETATM    1  C   UNL     1     -41.164  55.079 -49.091  1.00  0.00     0.053 C 
HETATM    2  C   UNL     1     -41.433  54.698 -50.521  1.00  0.00    -0.005 A 
HETATM    3  C   UNL     1     -42.373  55.607 -51.302  1.00  0.00     0.151 A 
HETATM    4  N   UNL     1     -42.650  55.424 -52.567  1.00  0.00    -0.146 NA
HETATM    5  N   UNL     1     -42.055  54.349 -53.129  1.00  0.00    -0.187 N 
HETATM    6  C   UNL     1     -41.205  53.452 -52.526  1.00  0.00     0.181 A 
HETATM    7  C   UNL     1     -40.875  53.638 -51.154  1.00  0.00    -0.003 A 
HETATM    8  C   UNL     1     -39.944  52.686 -50.440  1.00  0.00     0.053 C 
HETATM    9  C   UNL     1     -42.185  53.916 -54.419  1.00  0.00     0.258 A 
HETATM   10  N   UNL     1     -41.457  52.826 -54.594  1.00  0.00    -0.123 NA
HETATM   11  N   UNL     1     -40.841  52.537 -53.400  1.00  0.00    -0.128 NA
ENDROOT
BRANCH   3  12
HETATM   12  N   UNL     1     -42.966  56.677 -50.679  1.00  0.00    -0.366 N 
HETATM   13  H   UNL     1     -42.988  56.716 -49.663  1.00  0.00     0.161 HD
BRANCH  12  14
HETATM   14  C   UNL     1     -44.075  57.425 -51.270  1.00  0.00     0.201 C 
BRANCH  14  15
HETATM   15  C   UNL     1     -43.622  58.796 -51.747  1.00  0.00     0.144 A 
HETATM   16  N   UNL     1     -42.746  58.849 -52.771  1.00  0.00    -0.220 NA
HETATM   17  C   UNL     1     -42.380  60.063 -53.194  1.00  0.00     0.104 A 
HETATM   18  C   UNL     1     -42.855  61.225 -52.629  1.00  0.00     0.063 A 
HETATM   19  C   UNL     1     -43.751  61.076 -51.598  1.00  0.00     0.122 A 
HETATM   20  N   UNL     1     -44.158  59.880 -51.136  1.00  0.00    -0.244 NA
BRANCH  17  21
HETATM   21  N   UNL     1     -41.446  60.109 -54.224  1.00  0.00    -0.287 NA
HETATM   22  H   UNL     1     -41.021  59.188 -54.296  1.00  0.00     0.125 HD
HETATM   23  H   UNL     1     -41.858  60.400 -55.103  1.00  0.00     0.125 HD
ENDBRANCH  17  21
ENDBRANCH  14  15
ENDBRANCH  12  14
ENDBRANCH   3  12
BRANCH   9  24
HETATM   24  C   UNL     1     -43.035  54.630 -55.379  1.00  0.00     0.454 C 
HETATM   25  F   UNL     1     -42.397  55.679 -55.967  1.00  0.00    -0.163 F 
HETATM   26  F   UNL     1     -43.476  53.826 -56.384  1.00  0.00    -0.163 F 
HETATM   27  F   UNL     1     -44.150  55.152 -54.798  1.00  0.00    -0.163 F 
ENDBRANCH   9  24
TORSDOF 5
ENDMDL
