MODEL 1
REMARK VINA RESULT:      -8.6      0.000      0.000
REMARK  5 active torsions:
REMARK  status: ('A' for Active; 'I' for Inactive)
REMARK    1  A    between atoms: C_4  and  C_5 
REMARK    2  A    between atoms: C_5  and  C_6 
REMARK    3  A    between atoms: C_10  and  C_11 
REMARK       I    between atoms: C_11  and  N_12 
REMARK    4  A    between atoms: N_12  and  N_13 
REMARK    5  A    between atoms: N_13  and  C_14 
ROOT
HETATM    1  C   UNL     1     -41.381  54.174 -52.943  1.00  0.00     0.033 A 
HETATM    2  C   UNL     1     -42.754  54.260 -52.788  1.00  0.00     0.104 A 
HETATM    3  N   UNL     1     -43.258  55.023 -53.807  1.00  0.00    -0.360 N 
HETATM    4  H   UNL     1     -44.235  55.249 -53.955  1.00  0.00     0.165 HD
HETATM    5  C   UNL     1     -42.244  55.453 -54.634  1.00  0.00     0.102 A 
HETATM    6  C   UNL     1     -41.067  54.960 -54.094  1.00  0.00     0.052 A 
ENDROOT
BRANCH   5   7
HETATM    7  C   UNL     1     -42.516  56.248 -55.811  1.00  0.00     0.282 C 
HETATM    8  N   UNL     1     -42.413  55.586 -57.019  1.00  0.00    -0.280 N 
HETATM    9  H   UNL     1     -41.848  54.742 -57.107  1.00  0.00     0.184 HD
HETATM   10  O   UNL     1     -42.819  57.441 -55.746  1.00  0.00    -0.265 OA
BRANCH   8  11
HETATM   11  N   UNL     1     -42.484  56.374 -58.198  1.00  0.00    -0.186 NA
HETATM   12  H   UNL     1     -41.698  56.152 -58.818  1.00  0.00     0.154 HD
BRANCH  11  13
HETATM   13  C   UNL     1     -43.715  56.186 -58.876  1.00  0.00     0.122 A 
HETATM   14  N   UNL     1     -44.672  57.139 -58.801  1.00  0.00    -0.223 NA
HETATM   15  C   UNL     1     -45.802  56.929 -59.506  1.00  0.00     0.128 A 
HETATM   16 CL   UNL     1     -46.977  58.169 -59.351  1.00  0.00    -0.062 Cl
HETATM   17  C   UNL     1     -46.041  55.824 -60.305  1.00  0.00     0.044 A 
HETATM   18  C   UNL     1     -45.043  54.863 -60.388  1.00  0.00     0.007 A 
HETATM   19  C   UNL     1     -43.864  55.047 -59.669  1.00  0.00     0.046 A 
ENDBRANCH  11  13
ENDBRANCH   8  11
ENDBRANCH   5   7
BRANCH   1  20
HETATM   20  C   UNL     1     -40.419  53.474 -52.092  1.00  0.00     0.193 C 
HETATM   21  O   UNL     1     -39.882  54.032 -51.139  1.00  0.00    -0.287 OA
BRANCH  20  22
HETATM   22  C   UNL     1     -40.060  52.059 -52.379  1.00  0.00     0.015 A 
HETATM   23  C   UNL     1     -40.108  51.614 -53.707  1.00  0.00     0.015 A 
HETATM   24  C   UNL     1     -39.814  50.283 -54.011  1.00  0.00     0.001 A 
HETATM   25  C   UNL     1     -39.484  49.392 -52.990  1.00  0.00     0.000 A 
HETATM   26  C   UNL     1     -39.456  49.824 -51.665  1.00  0.00     0.001 A 
HETATM   27  C   UNL     1     -39.750  51.153 -51.356  1.00  0.00     0.015 A 
ENDBRANCH  20  22
ENDBRANCH   1  20
TORSDOF 5
ENDMDL
MODEL 2
REMARK VINA RESULT:      -8.5      1.946      2.105
REMARK  5 active torsions:
REMARK  status: ('A' for Active; 'I' for Inactive)
REMARK    1  A    between atoms: C_4  and  C_5 
REMARK    2  A    between atoms: C_5  and  C_6 
REMARK    3  A    between atoms: C_10  and  C_11 
REMARK       I    between atoms: C_11  and  N_12 
REMARK    4  A    between atoms: N_12  and  N_13 
REMARK    5  A    between atoms: N_13  and  C_14 
ROOT
HETATM    1  C   UNL     1     -41.742  54.040 -52.255  1.00  0.00     0.033 A 
HETATM    2  C   UNL     1     -42.985  53.897 -51.662  1.00  0.00     0.104 A 
HETATM    3  N   UNL     1     -43.877  54.696 -52.326  1.00  0.00    -0.360 N 
HETATM    4  H   UNL     1     -44.865  54.787 -52.117  1.00  0.00     0.165 HD
HETATM    5  C   UNL     1     -43.249  55.375 -53.346  1.00  0.00     0.102 A 
HETATM    6  C   UNL     1     -41.915  55.003 -53.296  1.00  0.00     0.052 A 
ENDROOT
BRANCH   5   7
HETATM    7  C   UNL     1     -43.979  56.261 -54.225  1.00  0.00     0.282 C 
HETATM    8  N   UNL     1     -43.738  56.097 -55.576  1.00  0.00    -0.280 N 
HETATM    9  H   UNL     1     -42.875  55.668 -55.906  1.00  0.00     0.184 HD
HETATM   10  O   UNL     1     -44.766  57.110 -53.802  1.00  0.00    -0.265 OA
BRANCH   8  11
HETATM   11  N   UNL     1     -44.288  57.069 -56.454  1.00  0.00    -0.186 NA
HETATM   12  H   UNL     1     -44.255  57.996 -56.018  1.00  0.00     0.154 HD
BRANCH  11  13
HETATM   13  C   UNL     1     -43.612  57.085 -57.700  1.00  0.00     0.122 A 
HETATM   14  N   UNL     1     -43.166  58.259 -58.204  1.00  0.00    -0.223 NA
HETATM   15  C   UNL     1     -42.487  58.208 -59.367  1.00  0.00     0.128 A 
HETATM   16 CL   UNL     1     -41.967  59.733 -59.954  1.00  0.00    -0.062 Cl
HETATM   17  C   UNL     1     -42.205  57.048 -60.067  1.00  0.00     0.044 A 
HETATM   18  C   UNL     1     -42.652  55.848 -59.530  1.00  0.00     0.007 A 
HETATM   19  C   UNL     1     -43.360  55.866 -58.331  1.00  0.00     0.046 A 
ENDBRANCH  11  13
ENDBRANCH   8  11
ENDBRANCH   5   7
BRANCH   1  20
HETATM   20  C   UNL     1     -40.484  53.394 -51.882  1.00  0.00     0.193 C 
HETATM   21  O   UNL     1     -39.694  53.929 -51.109  1.00  0.00    -0.287 OA
BRANCH  20  22
HETATM   22  C   UNL     1     -40.131  52.066 -52.452  1.00  0.00     0.015 A 
HETATM   23  C   UNL     1     -40.254  51.877 -53.834  1.00  0.00     0.015 A 
HETATM   24  C   UNL     1     -39.967  50.634 -54.401  1.00  0.00     0.001 A 
HETATM   25  C   UNL     1     -39.568  49.573 -53.587  1.00  0.00     0.000 A 
HETATM   26  C   UNL     1     -39.464  49.749 -52.208  1.00  0.00     0.001 A 
HETATM   27  C   UNL     1     -39.751  50.991 -51.638  1.00  0.00     0.015 A 
ENDBRANCH  20  22
ENDBRANCH   1  20
TORSDOF 5
ENDMDL
MODEL 3
REMARK VINA RESULT:      -7.9      5.717      7.544
REMARK  5 active torsions:
REMARK  status: ('A' for Active; 'I' for Inactive)
REMARK    1  A    between atoms: C_4  and  C_5 
REMARK    2  A    between atoms: C_5  and  C_6 
REMARK    3  A    between atoms: C_10  and  C_11 
REMARK       I    between atoms: C_11  and  N_12 
REMARK    4  A    between atoms: N_12  and  N_13 
REMARK    5  A    between atoms: N_13  and  C_14 
ROOT
HETATM    1  C   UNL     1     -42.187  54.872 -50.995  1.00  0.00     0.033 A 
HETATM    2  C   UNL     1     -43.461  54.361 -50.818  1.00  0.00     0.104 A 
HETATM    3  N   UNL     1     -44.359  55.389 -50.921  1.00  0.00    -0.360 N 
HETATM    4  H   UNL     1     -45.367  55.310 -50.843  1.00  0.00     0.165 HD
HETATM    5  C   UNL     1     -43.705  56.578 -51.156  1.00  0.00     0.102 A 
HETATM    6  C   UNL     1     -42.353  56.280 -51.175  1.00  0.00     0.052 A 
ENDROOT
BRANCH   5   7
HETATM    7  C   UNL     1     -44.431  57.815 -51.342  1.00  0.00     0.282 C 
HETATM    8  N   UNL     1     -45.109  58.285 -50.233  1.00  0.00    -0.280 N 
HETATM    9  H   UNL     1     -45.384  57.654 -49.481  1.00  0.00     0.184 HD
HETATM   10  O   UNL     1     -44.448  58.415 -52.418  1.00  0.00    -0.265 OA
BRANCH   8  11
HETATM   11  N   UNL     1     -45.982  59.387 -50.427  1.00  0.00    -0.186 NA
HETATM   12  H   UNL     1     -46.947  59.114 -50.215  1.00  0.00     0.154 HD
BRANCH  11  13
HETATM   13  C   UNL     1     -45.600  60.500 -49.636  1.00  0.00     0.122 A 
HETATM   14  N   UNL     1     -45.844  60.490 -48.305  1.00  0.00    -0.223 NA
HETATM   15  C   UNL     1     -45.414  61.553 -47.597  1.00  0.00     0.128 A 
HETATM   16 CL   UNL     1     -45.773  61.481 -45.920  1.00  0.00    -0.062 Cl
HETATM   17  C   UNL     1     -44.735  62.635 -48.128  1.00  0.00     0.044 A 
HETATM   18  C   UNL     1     -44.475  62.624 -49.492  1.00  0.00     0.007 A 
HETATM   19  C   UNL     1     -44.908  61.543 -50.255  1.00  0.00     0.046 A 
ENDBRANCH  11  13
ENDBRANCH   8  11
ENDBRANCH   5   7
BRANCH   1  20
HETATM   20  C   UNL     1     -40.913  54.154 -50.961  1.00  0.00     0.193 C 
HETATM   21  O   UNL     1     -40.089  54.355 -50.071  1.00  0.00    -0.287 OA
BRANCH  20  22
HETATM   22  C   UNL     1     -40.585  53.166 -52.022  1.00  0.00     0.015 A 
HETATM   23  C   UNL     1     -39.842  52.031 -51.673  1.00  0.00     0.015 A 
HETATM   24  C   UNL     1     -39.484  51.099 -52.649  1.00  0.00     0.001 A 
HETATM   25  C   UNL     1     -39.854  51.306 -53.978  1.00  0.00     0.000 A 
HETATM   26  C   UNL     1     -40.574  52.444 -54.336  1.00  0.00     0.001 A 
HETATM   27  C   UNL     1     -40.934  53.379 -53.363  1.00  0.00     0.015 A 
ENDBRANCH  20  22
ENDBRANCH   1  20
TORSDOF 5
ENDMDL
MODEL 4
REMARK VINA RESULT:      -7.9      3.486      8.389
REMARK  5 active torsions:
REMARK  status: ('A' for Active; 'I' for Inactive)
REMARK    1  A    between atoms: C_4  and  C_5 
REMARK    2  A    between atoms: C_5  and  C_6 
REMARK    3  A    between atoms: C_10  and  C_11 
REMARK       I    between atoms: C_11  and  N_12 
REMARK    4  A    between atoms: N_12  and  N_13 
REMARK    5  A    between atoms: N_13  and  C_14 
ROOT
HETATM    1  C   UNL     1     -43.032  56.924 -56.702  1.00  0.00     0.033 A 
HETATM    2  C   UNL     1     -44.033  57.294 -55.821  1.00  0.00     0.104 A 
HETATM    3  N   UNL     1     -43.696  56.849 -54.571  1.00  0.00    -0.360 N 
HETATM    4  H   UNL     1     -44.238  56.983 -53.725  1.00  0.00     0.165 HD
HETATM    5  C   UNL     1     -42.492  56.182 -54.605  1.00  0.00     0.102 A 
HETATM    6  C   UNL     1     -42.080  56.191 -55.928  1.00  0.00     0.052 A 
ENDROOT
BRANCH   5   7
HETATM    7  C   UNL     1     -41.893  55.642 -53.404  1.00  0.00     0.282 C 
HETATM    8  N   UNL     1     -40.959  54.643 -53.597  1.00  0.00    -0.280 N 
HETATM    9  H   UNL     1     -40.960  54.082 -54.448  1.00  0.00     0.184 HD
HETATM   10  O   UNL     1     -42.193  56.045 -52.279  1.00  0.00    -0.265 OA
BRANCH   8  11
HETATM   11  N   UNL     1     -40.493  53.960 -52.443  1.00  0.00    -0.186 NA
HETATM   12  H   UNL     1     -41.191  54.015 -51.694  1.00  0.00     0.154 HD
BRANCH  11  13
HETATM   13  C   UNL     1     -40.182  52.607 -52.728  1.00  0.00     0.122 A 
HETATM   14  N   UNL     1     -39.841  51.772 -51.719  1.00  0.00    -0.223 NA
HETATM   15  C   UNL     1     -39.603  50.485 -52.044  1.00  0.00     0.128 A 
HETATM   16 CL   UNL     1     -39.160  49.489 -50.719  1.00  0.00    -0.062 Cl
HETATM   17  C   UNL     1     -39.699  49.962 -53.321  1.00  0.00     0.044 A 
HETATM   18  C   UNL     1     -40.067  50.825 -54.344  1.00  0.00     0.007 A 
HETATM   19  C   UNL     1     -40.316  52.162 -54.044  1.00  0.00     0.046 A 
ENDBRANCH  11  13
ENDBRANCH   8  11
ENDBRANCH   5   7
BRANCH   1  20
HETATM   20  C   UNL     1     -42.960  57.171 -58.142  1.00  0.00     0.193 C 
HETATM   21  O   UNL     1     -42.079  57.877 -58.627  1.00  0.00    -0.287 OA
BRANCH  20  22
HETATM   22  C   UNL     1     -43.972  56.572 -59.053  1.00  0.00     0.015 A 
HETATM   23  C   UNL     1     -45.161  57.276 -59.286  1.00  0.00     0.015 A 
HETATM   24  C   UNL     1     -46.150  56.730 -60.106  1.00  0.00     0.001 A 
HETATM   25  C   UNL     1     -45.960  55.475 -60.685  1.00  0.00     0.000 A 
HETATM   26  C   UNL     1     -44.788  54.761 -60.440  1.00  0.00     0.001 A 
HETATM   27  C   UNL     1     -43.796  55.303 -59.620  1.00  0.00     0.015 A 
ENDBRANCH  20  22
ENDBRANCH   1  20
TORSDOF 5
ENDMDL
MODEL 5
REMARK VINA RESULT:      -7.8      2.735      3.410
REMARK  5 active torsions:
REMARK  status: ('A' for Active; 'I' for Inactive)
REMARK    1  A    between atoms: C_4  and  C_5 
REMARK    2  A    between atoms: C_5  and  C_6 
REMARK    3  A    between atoms: C_10  and  C_11 
REMARK       I    between atoms: C_11  and  N_12 
REMARK    4  A    between atoms: N_12  and  N_13 
REMARK    5  A    between atoms: N_13  and  C_14 
ROOT
HETATM    1  C   UNL     1     -42.398  54.965 -54.735  1.00  0.00     0.033 A 
HETATM    2  C   UNL     1     -41.719  56.146 -54.978  1.00  0.00     0.104 A 
HETATM    3  N   UNL     1     -41.897  56.486 -56.293  1.00  0.00    -0.360 N 
HETATM    4  H   UNL     1     -41.523  57.308 -56.752  1.00  0.00     0.165 HD
HETATM    5  C   UNL     1     -42.678  55.548 -56.931  1.00  0.00     0.102 A 
HETATM    6  C   UNL     1     -42.972  54.579 -55.985  1.00  0.00     0.052 A 
ENDROOT
BRANCH   5   7
HETATM    7  C   UNL     1     -43.047  55.692 -58.322  1.00  0.00     0.282 C 
HETATM    8  N   UNL     1     -42.211  56.484 -59.085  1.00  0.00    -0.280 N 
HETATM    9  H   UNL     1     -41.619  57.191 -58.651  1.00  0.00     0.184 HD
HETATM   10  O   UNL     1     -44.043  55.146 -58.801  1.00  0.00    -0.265 OA
BRANCH   8  11
HETATM   11  N   UNL     1     -42.642  56.803 -60.399  1.00  0.00    -0.186 NA
HETATM   12  H   UNL     1     -43.422  56.196 -60.671  1.00  0.00     0.154 HD
BRANCH  11  13
HETATM   13  C   UNL     1     -43.017  58.166 -60.508  1.00  0.00     0.122 A 
HETATM   14  N   UNL     1     -42.076  59.099 -60.783  1.00  0.00    -0.223 NA
HETATM   15  C   UNL     1     -42.499  60.371 -60.924  1.00  0.00     0.128 A 
HETATM   16 CL   UNL     1     -41.251  61.501 -61.254  1.00  0.00    -0.062 Cl
HETATM   17  C   UNL     1     -43.816  60.782 -60.823  1.00  0.00     0.044 A 
HETATM   18  C   UNL     1     -44.774  59.812 -60.559  1.00  0.00     0.007 A 
HETATM   19  C   UNL     1     -44.371  58.488 -60.404  1.00  0.00     0.046 A 
ENDBRANCH  11  13
ENDBRANCH   8  11
ENDBRANCH   5   7
BRANCH   1  20
HETATM   20  C   UNL     1     -42.486  54.216 -53.482  1.00  0.00     0.193 C 
HETATM   21  O   UNL     1     -43.471  54.302 -52.752  1.00  0.00    -0.287 OA
BRANCH  20  22
HETATM   22  C   UNL     1     -41.364  53.336 -53.058  1.00  0.00     0.015 A 
HETATM   23  C   UNL     1     -40.796  52.474 -54.005  1.00  0.00     0.015 A 
HETATM   24  C   UNL     1     -39.766  51.608 -53.636  1.00  0.00     0.001 A 
HETATM   25  C   UNL     1     -39.309  51.590 -52.318  1.00  0.00     0.000 A 
HETATM   26  C   UNL     1     -39.884  52.430 -51.366  1.00  0.00     0.001 A 
HETATM   27  C   UNL     1     -40.915  53.298 -51.731  1.00  0.00     0.015 A 
ENDBRANCH  20  22
ENDBRANCH   1  20
TORSDOF 5
ENDMDL
MODEL 6
REMARK VINA RESULT:      -7.8      2.781      3.439
REMARK  5 active torsions:
REMARK  status: ('A' for Active; 'I' for Inactive)
REMARK    1  A    between atoms: C_4  and  C_5 
REMARK    2  A    between atoms: C_5  and  C_6 
REMARK    3  A    between atoms: C_10  and  C_11 
REMARK       I    between atoms: C_11  and  N_12 
REMARK    4  A    between atoms: N_12  and  N_13 
REMARK    5  A    between atoms: N_13  and  C_14 
ROOT
HETATM    1  C   UNL     1     -41.788  55.786 -51.663  1.00  0.00     0.033 A 
HETATM    2  C   UNL     1     -42.804  56.631 -51.252  1.00  0.00     0.104 A 
HETATM    3  N   UNL     1     -42.734  57.784 -51.987  1.00  0.00    -0.360 N 
HETATM    4  H   UNL     1     -43.357  58.580 -51.909  1.00  0.00     0.165 HD
HETATM    5  C   UNL     1     -41.683  57.725 -52.876  1.00  0.00     0.102 A 
HETATM    6  C   UNL     1     -41.065  56.503 -52.666  1.00  0.00     0.052 A 
ENDROOT
BRANCH   5   7
HETATM    7  C   UNL     1     -41.412  58.806 -53.798  1.00  0.00     0.282 C 
HETATM    8  N   UNL     1     -42.196  58.835 -54.934  1.00  0.00    -0.280 N 
HETATM    9  H   UNL     1     -42.654  57.992 -55.277  1.00  0.00     0.184 HD
HETATM   10  O   UNL     1     -40.538  59.649 -53.588  1.00  0.00    -0.265 OA
BRANCH   8  11
HETATM   11  N   UNL     1     -41.835  59.763 -55.947  1.00  0.00    -0.186 NA
HETATM   12  H   UNL     1     -40.865  60.068 -55.816  1.00  0.00     0.154 HD
BRANCH  11  13
HETATM   13  C   UNL     1     -42.007  59.212 -57.243  1.00  0.00     0.122 A 
HETATM   14  N   UNL     1     -42.350  57.911 -57.376  1.00  0.00    -0.223 NA
HETATM   15  C   UNL     1     -42.549  57.456 -58.630  1.00  0.00     0.128 A 
HETATM   16 CL   UNL     1     -42.964  55.794 -58.724  1.00  0.00    -0.062 Cl
HETATM   17  C   UNL     1     -42.442  58.224 -59.775  1.00  0.00     0.044 A 
HETATM   18  C   UNL     1     -42.107  59.563 -59.623  1.00  0.00     0.007 A 
HETATM   19  C   UNL     1     -41.891  60.065 -58.342  1.00  0.00     0.046 A 
ENDBRANCH  11  13
ENDBRANCH   8  11
ENDBRANCH   5   7
BRANCH   1  20
HETATM   20  C   UNL     1     -41.464  54.452 -51.159  1.00  0.00     0.193 C 
HETATM   21  O   UNL     1     -41.600  54.165 -49.972  1.00  0.00    -0.287 OA
BRANCH  20  22
HETATM   22  C   UNL     1     -40.946  53.410 -52.086  1.00  0.00     0.015 A 
HETATM   23  C   UNL     1     -39.918  52.571 -51.640  1.00  0.00     0.015 A 
HETATM   24  C   UNL     1     -39.381  51.605 -52.493  1.00  0.00     0.001 A 
HETATM   25  C   UNL     1     -39.861  51.484 -53.798  1.00  0.00     0.000 A 
HETATM   26  C   UNL     1     -40.870  52.331 -54.254  1.00  0.00     0.001 A 
HETATM   27  C   UNL     1     -41.409  53.298 -53.404  1.00  0.00     0.015 A 
ENDBRANCH  20  22
ENDBRANCH   1  20
TORSDOF 5
ENDMDL
MODEL 7
REMARK VINA RESULT:      -7.7      1.627      2.224
REMARK  5 active torsions:
REMARK  status: ('A' for Active; 'I' for Inactive)
REMARK    1  A    between atoms: C_4  and  C_5 
REMARK    2  A    between atoms: C_5  and  C_6 
REMARK    3  A    between atoms: C_10  and  C_11 
REMARK       I    between atoms: C_11  and  N_12 
REMARK    4  A    between atoms: N_12  and  N_13 
REMARK    5  A    between atoms: N_13  and  C_14 
ROOT
HETATM    1  C   UNL     1     -41.870  55.763 -53.112  1.00  0.00     0.033 A 
HETATM    2  C   UNL     1     -41.133  56.918 -52.920  1.00  0.00     0.104 A 
HETATM    3  N   UNL     1     -41.401  57.781 -53.948  1.00  0.00    -0.360 N 
HETATM    4  H   UNL     1     -41.010  58.709 -54.065  1.00  0.00     0.165 HD
HETATM    5  C   UNL     1     -42.299  57.218 -54.827  1.00  0.00     0.102 A 
HETATM    6  C   UNL     1     -42.578  55.951 -54.340  1.00  0.00     0.052 A 
ENDROOT
BRANCH   5   7
HETATM    7  C   UNL     1     -42.778  57.941 -55.985  1.00  0.00     0.282 C 
HETATM    8  N   UNL     1     -44.039  57.594 -56.429  1.00  0.00    -0.280 N 
HETATM    9  H   UNL     1     -44.439  56.682 -56.211  1.00  0.00     0.184 HD
HETATM   10  O   UNL     1     -42.107  58.811 -56.543  1.00  0.00    -0.265 OA
BRANCH   8  11
HETATM   11  N   UNL     1     -44.462  58.142 -57.669  1.00  0.00    -0.186 NA
HETATM   12  H   UNL     1     -43.755  58.792 -58.027  1.00  0.00     0.154 HD
BRANCH  11  13
HETATM   13  C   UNL     1     -44.728  57.128 -58.623  1.00  0.00     0.122 A 
HETATM   14  N   UNL     1     -45.865  57.179 -59.354  1.00  0.00    -0.223 NA
HETATM   15  C   UNL     1     -46.041  56.215 -60.281  1.00  0.00     0.128 A 
HETATM   16 CL   UNL     1     -47.510  56.332 -61.157  1.00  0.00    -0.062 Cl
HETATM   17  C   UNL     1     -45.140  55.198 -60.543  1.00  0.00     0.044 A 
HETATM   18  C   UNL     1     -43.969  55.168 -59.798  1.00  0.00     0.007 A 
HETATM   19  C   UNL     1     -43.757  56.146 -58.830  1.00  0.00     0.046 A 
ENDBRANCH  11  13
ENDBRANCH   8  11
ENDBRANCH   5   7
BRANCH   1  20
HETATM   20  C   UNL     1     -41.902  54.562 -52.278  1.00  0.00     0.193 C 
HETATM   21  O   UNL     1     -42.593  54.504 -51.265  1.00  0.00    -0.287 OA
BRANCH  20  22
HETATM   22  C   UNL     1     -41.076  53.380 -52.642  1.00  0.00     0.015 A 
HETATM   23  C   UNL     1     -40.256  52.809 -51.660  1.00  0.00     0.015 A 
HETATM   24  C   UNL     1     -39.440  51.721 -51.973  1.00  0.00     0.001 A 
HETATM   25  C   UNL     1     -39.429  51.209 -53.271  1.00  0.00     0.000 A 
HETATM   26  C   UNL     1     -40.226  51.787 -54.258  1.00  0.00     0.001 A 
HETATM   27  C   UNL     1     -41.044  52.875 -53.949  1.00  0.00     0.015 A 
ENDBRANCH  20  22
ENDBRANCH   1  20
TORSDOF 5
ENDMDL
MODEL 8
REMARK VINA RESULT:      -7.6      3.813      8.246
REMARK  5 active torsions:
REMARK  status: ('A' for Active; 'I' for Inactive)
REMARK    1  A    between atoms: C_4  and  C_5 
REMARK    2  A    between atoms: C_5  and  C_6 
REMARK    3  A    between atoms: C_10  and  C_11 
REMARK       I    between atoms: C_11  and  N_12 
REMARK    4  A    between atoms: N_12  and  N_13 
REMARK    5  A    between atoms: N_13  and  C_14 
ROOT
HETATM    1  C   UNL     1     -43.848  57.646 -55.408  1.00  0.00     0.033 A 
HETATM    2  C   UNL     1     -44.836  57.167 -54.566  1.00  0.00     0.104 A 
HETATM    3  N   UNL     1     -44.237  56.518 -53.519  1.00  0.00    -0.360 N 
HETATM    4  H   UNL     1     -44.713  56.074 -52.742  1.00  0.00     0.165 HD
HETATM    5  C   UNL     1     -42.867  56.551 -53.653  1.00  0.00     0.102 A 
HETATM    6  C   UNL     1     -42.609  57.221 -54.838  1.00  0.00     0.052 A 
ENDROOT
BRANCH   5   7
HETATM    7  C   UNL     1     -41.996  55.966 -52.658  1.00  0.00     0.282 C 
HETATM    8  N   UNL     1     -41.368  54.792 -53.026  1.00  0.00    -0.280 N 
HETATM    9  H   UNL     1     -41.753  54.200 -53.760  1.00  0.00     0.184 HD
HETATM   10  O   UNL     1     -41.823  56.478 -51.550  1.00  0.00    -0.265 OA
BRANCH   8  11
HETATM   11  N   UNL     1     -40.660  54.092 -52.014  1.00  0.00    -0.186 NA
HETATM   12  H   UNL     1     -41.225  54.039 -51.160  1.00  0.00     0.154 HD
BRANCH  11  13
HETATM   13  C   UNL     1     -40.290  52.791 -52.442  1.00  0.00     0.122 A 
HETATM   14  N   UNL     1     -39.912  51.869 -51.528  1.00  0.00    -0.223 NA
HETATM   15  C   UNL     1     -39.619  50.636 -51.988  1.00  0.00     0.128 A 
HETATM   16 CL   UNL     1     -39.131  49.523 -50.776  1.00  0.00    -0.062 Cl
HETATM   17  C   UNL     1     -39.694  50.249 -53.314  1.00  0.00     0.044 A 
HETATM   18  C   UNL     1     -40.102  51.200 -54.239  1.00  0.00     0.007 A 
HETATM   19  C   UNL     1     -40.408  52.485 -53.798  1.00  0.00     0.046 A 
ENDBRANCH  11  13
ENDBRANCH   8  11
ENDBRANCH   5   7
BRANCH   1  20
HETATM   20  C   UNL     1     -44.009  58.391 -56.656  1.00  0.00     0.193 C 
HETATM   21  O   UNL     1     -44.694  59.410 -56.710  1.00  0.00    -0.287 OA
BRANCH  20  22
HETATM   22  C   UNL     1     -43.347  57.915 -57.900  1.00  0.00     0.015 A 
HETATM   23  C   UNL     1     -43.493  56.570 -58.261  1.00  0.00     0.015 A 
HETATM   24  C   UNL     1     -42.857  56.077 -59.402  1.00  0.00     0.001 A 
HETATM   25  C   UNL     1     -42.063  56.924 -60.178  1.00  0.00     0.000 A 
HETATM   26  C   UNL     1     -41.897  58.258 -59.811  1.00  0.00     0.001 A 
HETATM   27  C   UNL     1     -42.532  58.755 -58.670  1.00  0.00     0.015 A 
ENDBRANCH  20  22
ENDBRANCH   1  20
TORSDOF 5
ENDMDL
MODEL 9
REMARK VINA RESULT:      -7.5      2.486      3.028
REMARK  5 active torsions:
REMARK  status: ('A' for Active; 'I' for Inactive)
REMARK    1  A    between atoms: C_4  and  C_5 
REMARK    2  A    between atoms: C_5  and  C_6 
REMARK    3  A    between atoms: C_10  and  C_11 
REMARK       I    between atoms: C_11  and  N_12 
REMARK    4  A    between atoms: N_12  and  N_13 
REMARK    5  A    between atoms: N_13  and  C_14 
ROOT
HETATM    1  C   UNL     1     -42.014  54.517 -54.073  1.00  0.00     0.033 A 
HETATM    2  C   UNL     1     -43.390  54.576 -53.941  1.00  0.00     0.104 A 
HETATM    3  N   UNL     1     -43.914  55.100 -55.092  1.00  0.00    -0.360 N 
HETATM    4  H   UNL     1     -44.898  55.253 -55.284  1.00  0.00     0.165 HD
HETATM    5  C   UNL     1     -42.910  55.399 -55.986  1.00  0.00     0.102 A 
HETATM    6  C   UNL     1     -41.720  55.071 -55.357  1.00  0.00     0.052 A 
ENDROOT
BRANCH   5   7
HETATM    7  C   UNL     1     -43.201  55.933 -57.298  1.00  0.00     0.282 C 
HETATM    8  N   UNL     1     -43.956  57.090 -57.320  1.00  0.00    -0.280 N 
HETATM    9  H   UNL     1     -44.559  57.337 -56.537  1.00  0.00     0.184 HD
HETATM   10  O   UNL     1     -42.803  55.395 -58.333  1.00  0.00    -0.265 OA
BRANCH   8  11
HETATM   11  N   UNL     1     -44.420  57.536 -58.586  1.00  0.00    -0.186 NA
HETATM   12  H   UNL     1     -45.396  57.842 -58.515  1.00  0.00     0.154 HD
BRANCH  11  13
HETATM   13  C   UNL     1     -43.611  58.582 -59.099  1.00  0.00     0.122 A 
HETATM   14  N   UNL     1     -43.508  59.744 -58.414  1.00  0.00    -0.223 NA
HETATM   15  C   UNL     1     -42.686  60.683 -58.924  1.00  0.00     0.128 A 
HETATM   16 CL   UNL     1     -42.617  62.136 -58.015  1.00  0.00    -0.062 Cl
HETATM   17  C   UNL     1     -41.938  60.536 -60.079  1.00  0.00     0.044 A 
HETATM   18  C   UNL     1     -42.040  59.331 -60.762  1.00  0.00     0.007 A 
HETATM   19  C   UNL     1     -42.882  58.341 -60.264  1.00  0.00     0.046 A 
ENDBRANCH  11  13
ENDBRANCH   8  11
ENDBRANCH   5   7
BRANCH   1  20
HETATM   20  C   UNL     1     -41.033  54.039 -53.099  1.00  0.00     0.193 C 
HETATM   21  O   UNL     1     -40.575  54.783 -52.234  1.00  0.00    -0.287 OA
BRANCH  20  22
HETATM   22  C   UNL     1     -40.559  52.630 -53.147  1.00  0.00     0.015 A 
HETATM   23  C   UNL     1     -39.950  52.091 -52.007  1.00  0.00     0.015 A 
HETATM   24  C   UNL     1     -39.460  50.784 -52.025  1.00  0.00     0.001 A 
HETATM   25  C   UNL     1     -39.564  50.017 -53.186  1.00  0.00     0.000 A 
HETATM   26  C   UNL     1     -40.151  50.556 -54.331  1.00  0.00     0.001 A 
HETATM   27  C   UNL     1     -40.642  51.863 -54.316  1.00  0.00     0.015 A 
ENDBRANCH  20  22
ENDBRANCH   1  20
TORSDOF 5
ENDMDL
MODEL 10
REMARK VINA RESULT:      -7.5      2.062      2.655
REMARK  5 active torsions:
REMARK  status: ('A' for Active; 'I' for Inactive)
REMARK    1  A    between atoms: C_4  and  C_5 
REMARK    2  A    between atoms: C_5  and  C_6 
REMARK    3  A    between atoms: C_10  and  C_11 
REMARK       I    between atoms: C_11  and  N_12 
REMARK    4  A    between atoms: N_12  and  N_13 
REMARK    5  A    between atoms: N_13  and  C_14 
ROOT
HETATM    1  C   UNL     1     -42.348  55.650 -52.742  1.00  0.00     0.033 A 
HETATM    2  C   UNL     1     -41.454  56.700 -52.855  1.00  0.00     0.104 A 
HETATM    3  N   UNL     1     -42.027  57.677 -53.623  1.00  0.00    -0.360 N 
HETATM    4  H   UNL     1     -41.607  58.567 -53.868  1.00  0.00     0.165 HD
HETATM    5  C   UNL     1     -43.286  57.293 -54.030  1.00  0.00     0.102 A 
HETATM    6  C   UNL     1     -43.489  56.022 -53.518  1.00  0.00     0.052 A 
ENDROOT
BRANCH   5   7
HETATM    7  C   UNL     1     -44.121  58.165 -54.826  1.00  0.00     0.282 C 
HETATM    8  N   UNL     1     -45.197  57.562 -55.448  1.00  0.00    -0.280 N 
HETATM    9  H   UNL     1     -45.197  56.561 -55.640  1.00  0.00     0.184 HD
HETATM   10  O   UNL     1     -43.892  59.370 -54.945  1.00  0.00    -0.265 OA
BRANCH   8  11
HETATM   11  N   UNL     1     -45.925  58.342 -56.385  1.00  0.00    -0.186 NA
HETATM   12  H   UNL     1     -45.616  59.318 -56.347  1.00  0.00     0.154 HD
BRANCH  11  13
HETATM   13  C   UNL     1     -45.790  57.834 -57.702  1.00  0.00     0.122 A 
HETATM   14  N   UNL     1     -44.579  57.417 -58.137  1.00  0.00    -0.223 NA
HETATM   15  C   UNL     1     -44.521  56.898 -59.380  1.00  0.00     0.128 A 
HETATM   16 CL   UNL     1     -42.952  56.408 -59.872  1.00  0.00    -0.062 Cl
HETATM   17  C   UNL     1     -45.606  56.749 -60.226  1.00  0.00     0.044 A 
HETATM   18  C   UNL     1     -46.846  57.163 -59.759  1.00  0.00     0.007 A 
HETATM   19  C   UNL     1     -46.941  57.708 -58.481  1.00  0.00     0.046 A 
ENDBRANCH  11  13
ENDBRANCH   8  11
ENDBRANCH   5   7
BRANCH   1  20
HETATM   20  C   UNL     1     -42.171  54.386 -52.027  1.00  0.00     0.193 C 
HETATM   21  O   UNL     1     -42.809  54.132 -51.008  1.00  0.00    -0.287 OA
BRANCH  20  22
HETATM   22  C   UNL     1     -41.193  53.380 -52.522  1.00  0.00     0.015 A 
HETATM   23  C   UNL     1     -41.205  53.049 -53.883  1.00  0.00     0.015 A 
HETATM   24  C   UNL     1     -40.327  52.083 -54.377  1.00  0.00     0.001 A 
HETATM   25  C   UNL     1     -39.445  51.435 -53.512  1.00  0.00     0.000 A 
HETATM   26  C   UNL     1     -39.443  51.745 -52.152  1.00  0.00     0.001 A 
HETATM   27  C   UNL     1     -40.320  52.710 -51.654  1.00  0.00     0.015 A 
ENDBRANCH  20  22
ENDBRANCH   1  20
TORSDOF 5
ENDMDL
