MODEL 1
REMARK VINA RESULT:      -8.2      0.000      0.000
REMARK  8 active torsions:
REMARK  status: ('A' for Active; 'I' for Inactive)
REMARK    1  A    between atoms: C_2  and  C_3 
REMARK    2  A    between atoms: C_3  and  O_4 
REMARK    3  A    between atoms: O_4  and  C_5 
REMARK    4  A    between atoms: C_7  and  C_8 
REMARK    5  A    between atoms: N_9  and  C_10 
REMARK    6  A    between atoms: C_10  and  C_11 
REMARK    7  A    between atoms: C_24  and  C_25 
REMARK    8  A    between atoms: C_26  and  O_27 
ROOT
HETATM    1  C   UNL     1     -41.701  57.848 -54.221  1.00  0.00     0.159 C 
HETATM    2  N   UNL     1     -42.116  58.390 -52.901  1.00  0.00    -0.329 N 
HETATM    3  C   UNL     1     -42.911  59.541 -53.014  1.00  0.00     0.273 C 
HETATM    4  O   UNL     1     -43.229  60.344 -52.158  1.00  0.00    -0.266 OA
HETATM    5  C   UNL     1     -43.232  59.584 -54.392  1.00  0.00     0.129 A 
HETATM    6  C   UNL     1     -42.585  58.627 -55.118  1.00  0.00     0.034 A 
HETATM    7  N   UNL     1     -44.021  60.278 -55.220  1.00  0.00    -0.272 N 
HETATM    8  H   UNL     1     -44.640  61.058 -55.013  1.00  0.00     0.189 HD
HETATM    9  N   UNL     1     -43.965  59.786 -56.484  1.00  0.00    -0.173 NA
HETATM   10  C   UNL     1     -43.062  58.769 -56.433  1.00  0.00     0.101 A 
ENDROOT
BRANCH   1  11
HETATM   11  C   UNL     1     -41.953  56.377 -54.412  1.00  0.00    -0.028 A 
HETATM   12  C   UNL     1     -40.919  55.436 -54.561  1.00  0.00     0.046 A 
HETATM   13  C   UNL     1     -41.193  54.071 -54.701  1.00  0.00     0.069 A 
HETATM   14  C   UNL     1     -42.518  53.634 -54.708  1.00  0.00     0.037 A 
HETATM   15  C   UNL     1     -43.558  54.554 -54.585  1.00  0.00     0.003 A 
HETATM   16  C   UNL     1     -43.279  55.913 -54.445  1.00  0.00     0.010 A 
BRANCH  13  17
HETATM   17  O   UNL     1     -40.088  53.275 -54.831  1.00  0.00    -0.348 OA
BRANCH  17  18
HETATM   18  C   UNL     1     -39.873  52.299 -53.812  1.00  0.00     0.202 C 
BRANCH  18  19
HETATM   19  C   UNL     1     -40.277  50.967 -54.368  1.00  0.00    -0.011 C 
HETATM   20  C   UNL     1     -39.501  49.875 -54.372  1.00  0.00     0.009 C 
ENDBRANCH  18  19
ENDBRANCH  17  18
ENDBRANCH  13  17
ENDBRANCH   1  11
BRANCH   2  21
HETATM   21  C   UNL     1     -41.389  58.073 -51.691  1.00  0.00     0.165 C 
BRANCH  21  22
HETATM   22  C   UNL     1     -41.885  56.815 -51.025  1.00  0.00    -0.037 A 
HETATM   23  C   UNL     1     -41.001  55.937 -50.390  1.00  0.00     0.028 A 
HETATM   24  C   UNL     1     -41.508  54.782 -49.814  1.00  0.00     0.116 A 
HETATM   25  N   UNL     1     -42.817  54.449 -49.819  1.00  0.00    -0.273 NA
HETATM   26  C   UNL     1     -43.653  55.303 -50.445  1.00  0.00     0.116 A 
HETATM   27  C   UNL     1     -43.242  56.480 -51.051  1.00  0.00     0.028 A 
ENDBRANCH  21  22
ENDBRANCH   2  21
BRANCH  10  28
HETATM   28  C   UNL     1     -42.775  57.972 -57.629  1.00  0.00     0.028 A 
HETATM   29  C   UNL     1     -42.071  58.519 -58.717  1.00  0.00     0.078 A 
HETATM   30  C   UNL     1     -41.858  57.789 -59.884  1.00  0.00     0.037 A 
HETATM   31  C   UNL     1     -42.329  56.482 -59.978  1.00  0.00     0.003 A 
HETATM   32  C   UNL     1     -43.000  55.907 -58.901  1.00  0.00     0.001 A 
HETATM   33  C   UNL     1     -43.217  56.645 -57.731  1.00  0.00     0.017 A 
BRANCH  29  34
HETATM   34  O   UNL     1     -41.554  59.789 -58.695  1.00  0.00    -0.360 OA
HETATM   35  H   UNL     1     -41.254  59.975 -59.615  1.00  0.00     0.217 HD
ENDBRANCH  29  34
ENDBRANCH  10  28
TORSDOF 8
ENDMDL
MODEL 2
REMARK VINA RESULT:      -8.0      2.603      4.695
REMARK  8 active torsions:
REMARK  status: ('A' for Active; 'I' for Inactive)
REMARK    1  A    between atoms: C_2  and  C_3 
REMARK    2  A    between atoms: C_3  and  O_4 
REMARK    3  A    between atoms: O_4  and  C_5 
REMARK    4  A    between atoms: C_7  and  C_8 
REMARK    5  A    between atoms: N_9  and  C_10 
REMARK    6  A    between atoms: C_10  and  C_11 
REMARK    7  A    between atoms: C_24  and  C_25 
REMARK    8  A    between atoms: C_26  and  O_27 
ROOT
HETATM    1  C   UNL     1     -41.368  58.046 -52.631  1.00  0.00     0.159 C 
HETATM    2  N   UNL     1     -41.904  59.428 -52.513  1.00  0.00    -0.329 N 
HETATM    3  C   UNL     1     -42.268  59.974 -53.754  1.00  0.00     0.273 C 
HETATM    4  O   UNL     1     -42.526  61.128 -54.041  1.00  0.00    -0.266 OA
HETATM    5  C   UNL     1     -42.223  58.862 -54.628  1.00  0.00     0.129 A 
HETATM    6  C   UNL     1     -41.738  57.736 -54.031  1.00  0.00     0.034 A 
HETATM    7  N   UNL     1     -42.547  58.562 -55.891  1.00  0.00    -0.272 N 
HETATM    8  H   UNL     1     -42.935  59.162 -56.615  1.00  0.00     0.189 HD
HETATM    9  N   UNL     1     -42.341  57.246 -56.154  1.00  0.00    -0.173 NA
HETATM   10  C   UNL     1     -41.823  56.728 -55.008  1.00  0.00     0.101 A 
ENDROOT
BRANCH   1  11
HETATM   11  C   UNL     1     -41.994  57.040 -51.704  1.00  0.00    -0.028 A 
HETATM   12  C   UNL     1     -41.281  56.391 -50.682  1.00  0.00     0.046 A 
HETATM   13  C   UNL     1     -41.908  55.488 -49.817  1.00  0.00     0.069 A 
HETATM   14  C   UNL     1     -43.265  55.212 -49.981  1.00  0.00     0.037 A 
HETATM   15  C   UNL     1     -43.986  55.827 -51.003  1.00  0.00     0.003 A 
HETATM   16  C   UNL     1     -43.356  56.727 -51.861  1.00  0.00     0.010 A 
BRANCH  13  17
HETATM   17  O   UNL     1     -41.088  54.939 -48.869  1.00  0.00    -0.348 OA
BRANCH  17  18
HETATM   18  C   UNL     1     -39.905  54.291 -49.338  1.00  0.00     0.202 C 
BRANCH  18  19
HETATM   19  C   UNL     1     -40.304  52.944 -49.861  1.00  0.00    -0.011 C 
HETATM   20  C   UNL     1     -40.191  52.559 -51.140  1.00  0.00     0.009 C 
ENDBRANCH  18  19
ENDBRANCH  17  18
ENDBRANCH  13  17
ENDBRANCH   1  11
BRANCH   2  21
HETATM   21  C   UNL     1     -41.616  60.256 -51.363  1.00  0.00     0.165 C 
BRANCH  21  22
HETATM   22  C   UNL     1     -42.855  60.865 -50.757  1.00  0.00    -0.037 A 
HETATM   23  C   UNL     1     -42.888  62.212 -50.383  1.00  0.00     0.028 A 
HETATM   24  C   UNL     1     -44.046  62.715 -49.808  1.00  0.00     0.116 A 
HETATM   25  N   UNL     1     -45.159  61.982 -49.591  1.00  0.00    -0.273 NA
HETATM   26  C   UNL     1     -45.104  60.682 -49.949  1.00  0.00     0.116 A 
HETATM   27  C   UNL     1     -43.994  60.087 -50.528  1.00  0.00     0.028 A 
ENDBRANCH  21  22
ENDBRANCH   2  21
BRANCH  10  28
HETATM   28  C   UNL     1     -41.511  55.299 -54.915  1.00  0.00     0.028 A 
HETATM   29  C   UNL     1     -42.531  54.338 -54.796  1.00  0.00     0.078 A 
HETATM   30  C   UNL     1     -42.238  52.985 -54.635  1.00  0.00     0.037 A 
HETATM   31  C   UNL     1     -40.911  52.563 -54.613  1.00  0.00     0.003 A 
HETATM   32  C   UNL     1     -39.884  53.493 -54.763  1.00  0.00     0.001 A 
HETATM   33  C   UNL     1     -40.181  54.851 -54.919  1.00  0.00     0.017 A 
BRANCH  29  34
HETATM   34  O   UNL     1     -43.862  54.668 -54.832  1.00  0.00    -0.360 OA
HETATM   35  H   UNL     1     -43.909  55.555 -55.257  1.00  0.00     0.217 HD
ENDBRANCH  29  34
ENDBRANCH  10  28
TORSDOF 8
ENDMDL
MODEL 3
REMARK VINA RESULT:      -7.9      2.636      5.103
REMARK  8 active torsions:
REMARK  status: ('A' for Active; 'I' for Inactive)
REMARK    1  A    between atoms: C_2  and  C_3 
REMARK    2  A    between atoms: C_3  and  O_4 
REMARK    3  A    between atoms: O_4  and  C_5 
REMARK    4  A    between atoms: C_7  and  C_8 
REMARK    5  A    between atoms: N_9  and  C_10 
REMARK    6  A    between atoms: C_10  and  C_11 
REMARK    7  A    between atoms: C_24  and  C_25 
REMARK    8  A    between atoms: C_26  and  O_27 
ROOT
HETATM    1  C   UNL     1     -43.817  55.828 -53.648  1.00  0.00     0.159 C 
HETATM    2  N   UNL     1     -42.940  54.677 -53.309  1.00  0.00    -0.329 N 
HETATM    3  C   UNL     1     -42.296  54.138 -54.435  1.00  0.00     0.273 C 
HETATM    4  O   UNL     1     -41.699  53.084 -54.549  1.00  0.00    -0.266 OA
HETATM    5  C   UNL     1     -42.541  55.098 -55.444  1.00  0.00     0.129 A 
HETATM    6  C   UNL     1     -43.383  56.092 -55.039  1.00  0.00     0.034 A 
HETATM    7  N   UNL     1     -42.165  55.353 -56.702  1.00  0.00    -0.272 N 
HETATM    8  H   UNL     1     -41.544  54.821 -57.308  1.00  0.00     0.189 HD
HETATM    9  N   UNL     1     -42.692  56.523 -57.148  1.00  0.00    -0.173 NA
HETATM   10  C   UNL     1     -43.464  56.981 -56.126  1.00  0.00     0.101 A 
ENDROOT
BRANCH   1  11
HETATM   11  C   UNL     1     -43.605  57.058 -52.807  1.00  0.00    -0.028 A 
HETATM   12  C   UNL     1     -42.348  57.666 -52.644  1.00  0.00     0.046 A 
HETATM   13  C   UNL     1     -42.197  58.830 -51.884  1.00  0.00     0.069 A 
HETATM   14  C   UNL     1     -43.312  59.392 -51.261  1.00  0.00     0.037 A 
HETATM   15  C   UNL     1     -44.563  58.792 -51.392  1.00  0.00     0.003 A 
HETATM   16  C   UNL     1     -44.707  57.632 -52.152  1.00  0.00     0.010 A 
BRANCH  13  17
HETATM   17  O   UNL     1     -40.917  59.310 -51.818  1.00  0.00    -0.348 OA
BRANCH  17  18
HETATM   18  C   UNL     1     -40.378  59.530 -50.515  1.00  0.00     0.202 C 
BRANCH  18  19
HETATM   19  C   UNL     1     -38.901  59.283 -50.590  1.00  0.00    -0.011 C 
HETATM   20  C   UNL     1     -37.985  59.908 -49.837  1.00  0.00     0.009 C 
ENDBRANCH  18  19
ENDBRANCH  17  18
ENDBRANCH  13  17
ENDBRANCH   1  11
BRANCH   2  21
HETATM   21  C   UNL     1     -43.124  53.918 -52.091  1.00  0.00     0.165 C 
BRANCH  21  22
HETATM   22  C   UNL     1     -41.978  54.079 -51.125  1.00  0.00    -0.037 A 
HETATM   23  C   UNL     1     -40.788  53.363 -51.290  1.00  0.00     0.028 A 
HETATM   24  C   UNL     1     -39.775  53.532 -50.358  1.00  0.00     0.116 A 
HETATM   25  N   UNL     1     -39.860  54.358 -49.294  1.00  0.00    -0.273 NA
HETATM   26  C   UNL     1     -41.019  55.033 -49.146  1.00  0.00     0.116 A 
HETATM   27  C   UNL     1     -42.089  54.930 -50.022  1.00  0.00     0.028 A 
ENDBRANCH  21  22
ENDBRANCH   2  21
BRANCH  10  28
HETATM   28  C   UNL     1     -44.165  58.263 -56.243  1.00  0.00     0.028 A 
HETATM   29  C   UNL     1     -45.256  58.418 -57.116  1.00  0.00     0.078 A 
HETATM   30  C   UNL     1     -45.880  59.653 -57.285  1.00  0.00     0.037 A 
HETATM   31  C   UNL     1     -45.436  60.756 -56.561  1.00  0.00     0.003 A 
HETATM   32  C   UNL     1     -44.379  60.619 -55.665  1.00  0.00     0.001 A 
HETATM   33  C   UNL     1     -43.750  59.379 -55.502  1.00  0.00     0.017 A 
BRANCH  29  34
HETATM   34  O   UNL     1     -45.769  57.377 -57.846  1.00  0.00    -0.360 OA
HETATM   35  H   UNL     1     -45.165  57.262 -58.615  1.00  0.00     0.217 HD
ENDBRANCH  29  34
ENDBRANCH  10  28
TORSDOF 8
ENDMDL
MODEL 4
REMARK VINA RESULT:      -7.7      2.610      5.632
REMARK  8 active torsions:
REMARK  status: ('A' for Active; 'I' for Inactive)
REMARK    1  A    between atoms: C_2  and  C_3 
REMARK    2  A    between atoms: C_3  and  O_4 
REMARK    3  A    between atoms: O_4  and  C_5 
REMARK    4  A    between atoms: C_7  and  C_8 
REMARK    5  A    between atoms: N_9  and  C_10 
REMARK    6  A    between atoms: C_10  and  C_11 
REMARK    7  A    between atoms: C_24  and  C_25 
REMARK    8  A    between atoms: C_26  and  O_27 
ROOT
HETATM    1  C   UNL     1     -43.611  55.920 -53.591  1.00  0.00     0.159 C 
HETATM    2  N   UNL     1     -42.859  54.670 -53.304  1.00  0.00    -0.329 N 
HETATM    3  C   UNL     1     -42.350  54.067 -54.465  1.00  0.00     0.273 C 
HETATM    4  O   UNL     1     -41.890  52.951 -54.614  1.00  0.00    -0.266 OA
HETATM    5  C   UNL     1     -42.536  55.058 -55.458  1.00  0.00     0.129 A 
HETATM    6  C   UNL     1     -43.229  56.141 -55.004  1.00  0.00     0.034 A 
HETATM    7  N   UNL     1     -42.204  55.276 -56.736  1.00  0.00    -0.272 N 
HETATM    8  H   UNL     1     -41.687  54.679 -57.376  1.00  0.00     0.189 HD
HETATM    9  N   UNL     1     -42.614  56.503 -57.150  1.00  0.00    -0.173 NA
HETATM   10  C   UNL     1     -43.266  57.042 -56.084  1.00  0.00     0.101 A 
ENDROOT
BRANCH   1  11
HETATM   11  C   UNL     1     -43.207  57.110 -52.763  1.00  0.00    -0.028 A 
HETATM   12  C   UNL     1     -44.122  57.869 -52.015  1.00  0.00     0.046 A 
HETATM   13  C   UNL     1     -43.702  58.947 -51.228  1.00  0.00     0.069 A 
HETATM   14  C   UNL     1     -42.349  59.286 -51.196  1.00  0.00     0.037 A 
HETATM   15  C   UNL     1     -41.428  58.560 -51.949  1.00  0.00     0.003 A 
HETATM   16  C   UNL     1     -41.853  57.486 -52.730  1.00  0.00     0.010 A 
BRANCH  13  17
HETATM   17  O   UNL     1     -44.704  59.589 -50.553  1.00  0.00    -0.348 OA
BRANCH  17  18
HETATM   18  C   UNL     1     -46.021  59.469 -51.090  1.00  0.00     0.202 C 
BRANCH  18  19
HETATM   19  C   UNL     1     -46.390  60.794 -51.686  1.00  0.00    -0.011 C 
HETATM   20  C   UNL     1     -46.255  61.111 -52.981  1.00  0.00     0.009 C 
ENDBRANCH  18  19
ENDBRANCH  17  18
ENDBRANCH  13  17
ENDBRANCH   1  11
BRANCH   2  21
HETATM   21  C   UNL     1     -43.062  53.929 -52.078  1.00  0.00     0.165 C 
BRANCH  21  22
HETATM   22  C   UNL     1     -41.931  54.104 -51.097  1.00  0.00    -0.037 A 
HETATM   23  C   UNL     1     -40.705  53.458 -51.287  1.00  0.00     0.028 A 
HETATM   24  C   UNL     1     -39.706  53.635 -50.341  1.00  0.00     0.116 A 
HETATM   25  N   UNL     1     -39.839  54.405 -49.240  1.00  0.00    -0.273 NA
HETATM   26  C   UNL     1     -41.032  55.011 -49.069  1.00  0.00     0.116 A 
HETATM   27  C   UNL     1     -42.091  54.895 -49.956  1.00  0.00     0.028 A 
ENDBRANCH  21  22
ENDBRANCH   2  21
BRANCH  10  28
HETATM   28  C   UNL     1     -43.815  58.398 -56.160  1.00  0.00     0.028 A 
HETATM   29  C   UNL     1     -44.990  58.669 -56.885  1.00  0.00     0.078 A 
HETATM   30  C   UNL     1     -45.476  59.968 -57.020  1.00  0.00     0.037 A 
HETATM   31  C   UNL     1     -44.805  61.024 -56.409  1.00  0.00     0.003 A 
HETATM   32  C   UNL     1     -43.659  60.776 -55.657  1.00  0.00     0.001 A 
HETATM   33  C   UNL     1     -43.169  59.471 -55.528  1.00  0.00     0.017 A 
BRANCH  29  34
HETATM   34  O   UNL     1     -45.722  57.682 -57.495  1.00  0.00    -0.360 OA
HETATM   35  H   UNL     1     -46.358  57.358 -56.817  1.00  0.00     0.217 HD
ENDBRANCH  29  34
ENDBRANCH  10  28
TORSDOF 8
ENDMDL
MODEL 5
REMARK VINA RESULT:      -7.7      2.428      4.760
REMARK  8 active torsions:
REMARK  status: ('A' for Active; 'I' for Inactive)
REMARK    1  A    between atoms: C_2  and  C_3 
REMARK    2  A    between atoms: C_3  and  O_4 
REMARK    3  A    between atoms: O_4  and  C_5 
REMARK    4  A    between atoms: C_7  and  C_8 
REMARK    5  A    between atoms: N_9  and  C_10 
REMARK    6  A    between atoms: C_10  and  C_11 
REMARK    7  A    between atoms: C_24  and  C_25 
REMARK    8  A    between atoms: C_26  and  O_27 
ROOT
HETATM    1  C   UNL     1     -41.875  58.424 -53.958  1.00  0.00     0.159 C 
HETATM    2  N   UNL     1     -42.550  59.717 -54.246  1.00  0.00    -0.329 N 
HETATM    3  C   UNL     1     -42.933  59.839 -55.591  1.00  0.00     0.273 C 
HETATM    4  O   UNL     1     -43.297  60.827 -56.201  1.00  0.00    -0.266 OA
HETATM    5  C   UNL     1     -42.754  58.533 -56.103  1.00  0.00     0.129 A 
HETATM    6  C   UNL     1     -42.175  57.685 -55.206  1.00  0.00     0.034 A 
HETATM    7  N   UNL     1     -43.013  57.847 -57.223  1.00  0.00    -0.272 N 
HETATM    8  H   UNL     1     -43.440  58.168 -58.089  1.00  0.00     0.189 HD
HETATM    9  N   UNL     1     -42.669  56.540 -57.092  1.00  0.00    -0.173 NA
HETATM   10  C   UNL     1     -42.132  56.433 -55.847  1.00  0.00     0.101 A 
ENDROOT
BRANCH   1  11
HETATM   11  C   UNL     1     -42.423  57.670 -52.777  1.00  0.00    -0.028 A 
HETATM   12  C   UNL     1     -41.605  57.107 -51.782  1.00  0.00     0.046 A 
HETATM   13  C   UNL     1     -42.154  56.445 -50.678  1.00  0.00     0.069 A 
HETATM   14  C   UNL     1     -43.539  56.325 -50.570  1.00  0.00     0.037 A 
HETATM   15  C   UNL     1     -44.367  56.856 -51.558  1.00  0.00     0.003 A 
HETATM   16  C   UNL     1     -43.814  57.517 -52.654  1.00  0.00     0.010 A 
BRANCH  13  17
HETATM   17  O   UNL     1     -41.236  55.954 -49.790  1.00  0.00    -0.348 OA
BRANCH  17  18
HETATM   18  C   UNL     1     -41.324  54.564 -49.476  1.00  0.00     0.202 C 
BRANCH  18  19
HETATM   19  C   UNL     1     -40.615  53.809 -50.561  1.00  0.00    -0.011 C 
HETATM   20  C   UNL     1     -40.426  52.483 -50.569  1.00  0.00     0.009 C 
ENDBRANCH  18  19
ENDBRANCH  17  18
ENDBRANCH  13  17
ENDBRANCH   1  11
BRANCH   2  21
HETATM   21  C   UNL     1     -42.376  60.868 -53.388  1.00  0.00     0.165 C 
BRANCH  21  22
HETATM   22  C   UNL     1     -43.426  60.955 -52.309  1.00  0.00    -0.037 A 
HETATM   23  C   UNL     1     -44.779  61.114 -52.629  1.00  0.00     0.028 A 
HETATM   24  C   UNL     1     -45.700  61.212 -51.597  1.00  0.00     0.116 A 
HETATM   25  N   UNL     1     -45.374  61.156 -50.289  1.00  0.00    -0.273 NA
HETATM   26  C   UNL     1     -44.064  61.013 -49.999  1.00  0.00     0.116 A 
HETATM   27  C   UNL     1     -43.069  60.907 -50.959  1.00  0.00     0.028 A 
ENDBRANCH  21  22
ENDBRANCH   2  21
BRANCH  10  28
HETATM   28  C   UNL     1     -41.682  55.133 -55.343  1.00  0.00     0.028 A 
HETATM   29  C   UNL     1     -42.594  54.090 -55.102  1.00  0.00     0.078 A 
HETATM   30  C   UNL     1     -42.182  52.877 -54.555  1.00  0.00     0.037 A 
HETATM   31  C   UNL     1     -40.836  52.674 -54.258  1.00  0.00     0.003 A 
HETATM   32  C   UNL     1     -39.909  53.680 -54.520  1.00  0.00     0.001 A 
HETATM   33  C   UNL     1     -40.327  54.900 -55.064  1.00  0.00     0.017 A 
BRANCH  29  34
HETATM   34  O   UNL     1     -43.931  54.201 -55.388  1.00  0.00    -0.360 OA
HETATM   35  H   UNL     1     -44.222  53.304 -55.674  1.00  0.00     0.217 HD
ENDBRANCH  29  34
ENDBRANCH  10  28
TORSDOF 8
ENDMDL
MODEL 6
REMARK VINA RESULT:      -7.5      2.427      6.455
REMARK  8 active torsions:
REMARK  status: ('A' for Active; 'I' for Inactive)
REMARK    1  A    between atoms: C_2  and  C_3 
REMARK    2  A    between atoms: C_3  and  O_4 
REMARK    3  A    between atoms: O_4  and  C_5 
REMARK    4  A    between atoms: C_7  and  C_8 
REMARK    5  A    between atoms: N_9  and  C_10 
REMARK    6  A    between atoms: C_10  and  C_11 
REMARK    7  A    between atoms: C_24  and  C_25 
REMARK    8  A    between atoms: C_26  and  O_27 
ROOT
HETATM    1  C   UNL     1     -43.226  56.805 -56.476  1.00  0.00     0.159 C 
HETATM    2  N   UNL     1     -42.844  56.598 -57.898  1.00  0.00    -0.329 N 
HETATM    3  C   UNL     1     -42.380  57.773 -58.510  1.00  0.00     0.273 C 
HETATM    4  O   UNL     1     -42.200  58.007 -59.690  1.00  0.00    -0.266 OA
HETATM    5  C   UNL     1     -42.207  58.662 -57.423  1.00  0.00     0.129 A 
HETATM    6  C   UNL     1     -42.653  58.150 -56.241  1.00  0.00     0.034 A 
HETATM    7  N   UNL     1     -41.697  59.877 -57.189  1.00  0.00    -0.272 N 
HETATM    8  H   UNL     1     -41.279  60.535 -57.843  1.00  0.00     0.189 HD
HETATM    9  N   UNL     1     -41.741  60.185 -55.867  1.00  0.00    -0.173 NA
HETATM   10  C   UNL     1     -42.348  59.123 -55.272  1.00  0.00     0.101 A 
ENDROOT
BRANCH   1  11
HETATM   11  C   UNL     1     -42.629  55.821 -55.507  1.00  0.00    -0.028 A 
HETATM   12  C   UNL     1     -43.262  55.444 -54.310  1.00  0.00     0.046 A 
HETATM   13  C   UNL     1     -42.691  54.498 -53.452  1.00  0.00     0.069 A 
HETATM   14  C   UNL     1     -41.461  53.927 -53.782  1.00  0.00     0.037 A 
HETATM   15  C   UNL     1     -40.806  54.305 -54.952  1.00  0.00     0.003 A 
HETATM   16  C   UNL     1     -41.380  55.247 -55.804  1.00  0.00     0.010 A 
BRANCH  13  17
HETATM   17  O   UNL     1     -43.423  54.227 -52.329  1.00  0.00    -0.348 OA
BRANCH  17  18
HETATM   18  C   UNL     1     -43.415  55.218 -51.301  1.00  0.00     0.202 C 
BRANCH  18  19
HETATM   19  C   UNL     1     -42.371  54.822 -50.301  1.00  0.00    -0.011 C 
HETATM   20  C   UNL     1     -41.466  55.657 -49.772  1.00  0.00     0.009 C 
ENDBRANCH  18  19
ENDBRANCH  17  18
ENDBRANCH  13  17
ENDBRANCH   1  11
BRANCH   2  21
HETATM   21  C   UNL     1     -43.355  55.482 -58.663  1.00  0.00     0.165 C 
BRANCH  21  22
HETATM   22  C   UNL     1     -44.606  55.825 -59.431  1.00  0.00    -0.037 A 
HETATM   23  C   UNL     1     -44.859  55.265 -60.687  1.00  0.00     0.028 A 
HETATM   24  C   UNL     1     -46.014  55.634 -61.360  1.00  0.00     0.116 A 
HETATM   25  N   UNL     1     -46.925  56.502 -60.873  1.00  0.00    -0.273 NA
HETATM   26  C   UNL     1     -46.659  57.040 -59.665  1.00  0.00     0.116 A 
HETATM   27  C   UNL     1     -45.532  56.736 -58.916  1.00  0.00     0.028 A 
ENDBRANCH  21  22
ENDBRANCH   2  21
BRANCH  10  28
HETATM   28  C   UNL     1     -42.531  59.093 -53.818  1.00  0.00     0.028 A 
HETATM   29  C   UNL     1     -41.428  59.114 -52.945  1.00  0.00     0.078 A 
HETATM   30  C   UNL     1     -41.592  59.013 -51.566  1.00  0.00     0.037 A 
HETATM   31  C   UNL     1     -42.873  58.912 -51.027  1.00  0.00     0.003 A 
HETATM   32  C   UNL     1     -43.982  58.923 -51.870  1.00  0.00     0.001 A 
HETATM   33  C   UNL     1     -43.814  59.019 -53.256  1.00  0.00     0.017 A 
BRANCH  29  34
HETATM   34  O   UNL     1     -40.137  59.236 -53.393  1.00  0.00    -0.360 OA
HETATM   35  H   UNL     1     -40.099  58.744 -54.246  1.00  0.00     0.217 HD
ENDBRANCH  29  34
ENDBRANCH  10  28
TORSDOF 8
ENDMDL
MODEL 7
REMARK VINA RESULT:      -7.5      2.385      6.941
REMARK  8 active torsions:
REMARK  status: ('A' for Active; 'I' for Inactive)
REMARK    1  A    between atoms: C_2  and  C_3 
REMARK    2  A    between atoms: C_3  and  O_4 
REMARK    3  A    between atoms: O_4  and  C_5 
REMARK    4  A    between atoms: C_7  and  C_8 
REMARK    5  A    between atoms: N_9  and  C_10 
REMARK    6  A    between atoms: C_10  and  C_11 
REMARK    7  A    between atoms: C_24  and  C_25 
REMARK    8  A    between atoms: C_26  and  O_27 
ROOT
HETATM    1  C   UNL     1     -41.685  57.010 -54.941  1.00  0.00     0.159 C 
HETATM    2  N   UNL     1     -42.579  57.677 -55.924  1.00  0.00    -0.329 N 
HETATM    3  C   UNL     1     -43.284  56.762 -56.722  1.00  0.00     0.273 C 
HETATM    4  O   UNL     1     -43.914  56.958 -57.745  1.00  0.00    -0.266 OA
HETATM    5  C   UNL     1     -43.055  55.522 -56.080  1.00  0.00     0.129 A 
HETATM    6  C   UNL     1     -42.170  55.614 -55.047  1.00  0.00     0.034 A 
HETATM    7  N   UNL     1     -43.477  54.255 -56.161  1.00  0.00    -0.272 N 
HETATM    8  H   UNL     1     -44.136  53.838 -56.813  1.00  0.00     0.189 HD
HETATM    9  N   UNL     1     -42.936  53.491 -55.176  1.00  0.00    -0.173 NA
HETATM   10  C   UNL     1     -42.110  54.325 -54.489  1.00  0.00     0.101 A 
ENDROOT
BRANCH   1  11
HETATM   11  C   UNL     1     -41.828  57.491 -53.523  1.00  0.00    -0.028 A 
HETATM   12  C   UNL     1     -43.061  57.535 -52.850  1.00  0.00     0.046 A 
HETATM   13  C   UNL     1     -43.149  57.954 -51.518  1.00  0.00     0.069 A 
HETATM   14  C   UNL     1     -41.992  58.353 -50.848  1.00  0.00     0.037 A 
HETATM   15  C   UNL     1     -40.763  58.340 -51.505  1.00  0.00     0.003 A 
HETATM   16  C   UNL     1     -40.682  57.919 -52.831  1.00  0.00     0.010 A 
BRANCH  13  17
HETATM   17  O   UNL     1     -44.412  57.939 -50.994  1.00  0.00    -0.348 OA
BRANCH  17  18
HETATM   18  C   UNL     1     -45.335  58.897 -51.511  1.00  0.00     0.202 C 
BRANCH  18  19
HETATM   19  C   UNL     1     -45.208  60.140 -50.682  1.00  0.00    -0.011 C 
HETATM   20  C   UNL     1     -46.035  61.192 -50.753  1.00  0.00     0.009 C 
ENDBRANCH  18  19
ENDBRANCH  17  18
ENDBRANCH  13  17
ENDBRANCH   1  11
BRANCH   2  21
HETATM   21  C   UNL     1     -42.365  59.048 -56.332  1.00  0.00     0.165 C 
BRANCH  21  22
HETATM   22  C   UNL     1     -43.177  60.030 -55.526  1.00  0.00    -0.037 A 
HETATM   23  C   UNL     1     -42.573  60.856 -54.572  1.00  0.00     0.028 A 
HETATM   24  C   UNL     1     -43.371  61.724 -53.842  1.00  0.00     0.116 A 
HETATM   25  N   UNL     1     -44.707  61.831 -53.998  1.00  0.00    -0.273 NA
HETATM   26  C   UNL     1     -45.274  61.018 -54.915  1.00  0.00     0.116 A 
HETATM   27  C   UNL     1     -44.562  60.117 -55.693  1.00  0.00     0.028 A 
ENDBRANCH  21  22
ENDBRANCH   2  21
BRANCH  10  28
HETATM   28  C   UNL     1     -41.380  53.841 -53.314  1.00  0.00     0.028 A 
HETATM   29  C   UNL     1     -40.478  52.766 -53.409  1.00  0.00     0.078 A 
HETATM   30  C   UNL     1     -39.835  52.256 -52.283  1.00  0.00     0.037 A 
HETATM   31  C   UNL     1     -40.067  52.830 -51.035  1.00  0.00     0.003 A 
HETATM   32  C   UNL     1     -40.930  53.917 -50.921  1.00  0.00     0.001 A 
HETATM   33  C   UNL     1     -41.578  54.424 -52.054  1.00  0.00     0.017 A 
BRANCH  29  34
HETATM   34  O   UNL     1     -40.177  52.161 -54.603  1.00  0.00    -0.360 OA
HETATM   35  H   UNL     1     -39.982  52.891 -55.235  1.00  0.00     0.217 HD
ENDBRANCH  29  34
ENDBRANCH  10  28
TORSDOF 8
ENDMDL
MODEL 8
REMARK VINA RESULT:      -7.5      2.386      6.704
REMARK  8 active torsions:
REMARK  status: ('A' for Active; 'I' for Inactive)
REMARK    1  A    between atoms: C_2  and  C_3 
REMARK    2  A    between atoms: C_3  and  O_4 
REMARK    3  A    between atoms: O_4  and  C_5 
REMARK    4  A    between atoms: C_7  and  C_8 
REMARK    5  A    between atoms: N_9  and  C_10 
REMARK    6  A    between atoms: C_10  and  C_11 
REMARK    7  A    between atoms: C_24  and  C_25 
REMARK    8  A    between atoms: C_26  and  O_27 
ROOT
HETATM    1  C   UNL     1     -42.263  57.563 -55.183  1.00  0.00     0.159 C 
HETATM    2  N   UNL     1     -42.908  58.200 -56.361  1.00  0.00    -0.329 N 
HETATM    3  C   UNL     1     -43.293  57.267 -57.337  1.00  0.00     0.273 C 
HETATM    4  O   UNL     1     -43.635  57.456 -58.490  1.00  0.00    -0.266 OA
HETATM    5  C   UNL     1     -43.147  56.024 -56.679  1.00  0.00     0.129 A 
HETATM    6  C   UNL     1     -42.586  56.140 -55.441  1.00  0.00     0.034 A 
HETATM    7  N   UNL     1     -43.426  54.733 -56.893  1.00  0.00    -0.272 N 
HETATM    8  H   UNL     1     -43.848  54.294 -57.708  1.00  0.00     0.189 HD
HETATM    9  N   UNL     1     -43.113  53.973 -55.812  1.00  0.00    -0.173 NA
HETATM   10  C   UNL     1     -42.575  54.838 -54.910  1.00  0.00     0.101 A 
ENDROOT
BRANCH   1  11
HETATM   11  C   UNL     1     -42.825  57.977 -53.850  1.00  0.00    -0.028 A 
HETATM   12  C   UNL     1     -42.027  58.473 -52.804  1.00  0.00     0.046 A 
HETATM   13  C   UNL     1     -42.591  58.883 -51.591  1.00  0.00     0.069 A 
HETATM   14  C   UNL     1     -43.970  58.782 -51.407  1.00  0.00     0.037 A 
HETATM   15  C   UNL     1     -44.776  58.270 -52.423  1.00  0.00     0.003 A 
HETATM   16  C   UNL     1     -44.208  57.866 -53.630  1.00  0.00     0.010 A 
BRANCH  13  17
HETATM   17  O   UNL     1     -41.693  59.348 -50.670  1.00  0.00    -0.348 OA
BRANCH  17  18
HETATM   18  C   UNL     1     -40.443  58.664 -50.586  1.00  0.00     0.202 C 
BRANCH  18  19
HETATM   19  C   UNL     1     -39.376  59.695 -50.377  1.00  0.00    -0.011 C 
HETATM   20  C   UNL     1     -38.059  59.453 -50.440  1.00  0.00     0.009 C 
ENDBRANCH  18  19
ENDBRANCH  17  18
ENDBRANCH  13  17
ENDBRANCH   1  11
BRANCH   2  21
HETATM   21  C   UNL     1     -42.703  59.598 -56.671  1.00  0.00     0.165 C 
BRANCH  21  22
HETATM   22  C   UNL     1     -43.761  60.489 -56.071  1.00  0.00    -0.037 A 
HETATM   23  C   UNL     1     -45.095  60.404 -56.483  1.00  0.00     0.028 A 
HETATM   24  C   UNL     1     -46.023  61.264 -55.914  1.00  0.00     0.116 A 
HETATM   25  N   UNL     1     -45.721  62.183 -54.973  1.00  0.00    -0.273 NA
HETATM   26  C   UNL     1     -44.427  62.257 -54.596  1.00  0.00     0.116 A 
HETATM   27  C   UNL     1     -43.427  61.443 -55.106  1.00  0.00     0.028 A 
ENDBRANCH  21  22
ENDBRANCH   2  21
BRANCH  10  28
HETATM   28  C   UNL     1     -42.154  54.364 -53.589  1.00  0.00     0.028 A 
HETATM   29  C   UNL     1     -40.968  53.628 -53.423  1.00  0.00     0.078 A 
HETATM   30  C   UNL     1     -40.600  53.113 -52.182  1.00  0.00     0.037 A 
HETATM   31  C   UNL     1     -41.405  53.347 -51.070  1.00  0.00     0.003 A 
HETATM   32  C   UNL     1     -42.568  54.103 -51.203  1.00  0.00     0.001 A 
HETATM   33  C   UNL     1     -42.938  54.614 -52.452  1.00  0.00     0.017 A 
BRANCH  29  34
HETATM   34  O   UNL     1     -40.108  53.374 -54.462  1.00  0.00    -0.360 OA
HETATM   35  H   UNL     1     -39.676  54.234 -54.672  1.00  0.00     0.217 HD
ENDBRANCH  29  34
ENDBRANCH  10  28
TORSDOF 8
ENDMDL
MODEL 9
REMARK VINA RESULT:      -7.4      2.123      6.431
REMARK  8 active torsions:
REMARK  status: ('A' for Active; 'I' for Inactive)
REMARK    1  A    between atoms: C_2  and  C_3 
REMARK    2  A    between atoms: C_3  and  O_4 
REMARK    3  A    between atoms: O_4  and  C_5 
REMARK    4  A    between atoms: C_7  and  C_8 
REMARK    5  A    between atoms: N_9  and  C_10 
REMARK    6  A    between atoms: C_10  and  C_11 
REMARK    7  A    between atoms: C_24  and  C_25 
REMARK    8  A    between atoms: C_26  and  O_27 
ROOT
HETATM    1  C   UNL     1     -43.691  56.461 -52.527  1.00  0.00     0.159 C 
HETATM    2  N   UNL     1     -44.101  57.884 -52.399  1.00  0.00    -0.329 N 
HETATM    3  C   UNL     1     -43.377  58.569 -51.412  1.00  0.00     0.273 C 
HETATM    4  O   UNL     1     -43.601  59.653 -50.906  1.00  0.00    -0.266 OA
HETATM    5  C   UNL     1     -42.326  57.676 -51.096  1.00  0.00     0.129 A 
HETATM    6  C   UNL     1     -42.448  56.470 -51.722  1.00  0.00     0.034 A 
HETATM    7  N   UNL     1     -41.201  57.662 -50.372  1.00  0.00    -0.272 N 
HETATM    8  H   UNL     1     -40.806  58.393 -49.785  1.00  0.00     0.189 HD
HETATM    9  N   UNL     1     -40.527  56.493 -50.528  1.00  0.00    -0.173 NA
HETATM   10  C   UNL     1     -41.304  55.740 -51.353  1.00  0.00     0.101 A 
ENDROOT
BRANCH   1  11
HETATM   11  C   UNL     1     -43.384  56.011 -53.930  1.00  0.00    -0.028 A 
HETATM   12  C   UNL     1     -42.820  56.857 -54.899  1.00  0.00     0.046 A 
HETATM   13  C   UNL     1     -42.515  56.392 -56.183  1.00  0.00     0.069 A 
HETATM   14  C   UNL     1     -42.790  55.065 -56.514  1.00  0.00     0.037 A 
HETATM   15  C   UNL     1     -43.371  54.215 -55.574  1.00  0.00     0.003 A 
HETATM   16  C   UNL     1     -43.671  54.685 -54.297  1.00  0.00     0.010 A 
BRANCH  13  17
HETATM   17  O   UNL     1     -41.965  57.327 -57.016  1.00  0.00    -0.348 OA
BRANCH  17  18
HETATM   18  C   UNL     1     -42.874  58.140 -57.759  1.00  0.00     0.202 C 
BRANCH  18  19
HETATM   19  C   UNL     1     -42.349  58.241 -59.160  1.00  0.00    -0.011 C 
HETATM   20  C   UNL     1     -42.010  57.194 -59.924  1.00  0.00     0.009 C 
ENDBRANCH  18  19
ENDBRANCH  17  18
ENDBRANCH  13  17
ENDBRANCH   1  11
BRANCH   2  21
HETATM   21  C   UNL     1     -45.392  58.343 -52.866  1.00  0.00     0.165 C 
BRANCH  21  22
HETATM   22  C   UNL     1     -45.307  59.637 -53.635  1.00  0.00    -0.037 A 
HETATM   23  C   UNL     1     -45.968  60.786 -53.190  1.00  0.00     0.028 A 
HETATM   24  C   UNL     1     -45.875  61.943 -53.949  1.00  0.00     0.116 A 
HETATM   25  N   UNL     1     -45.174  62.036 -55.099  1.00  0.00    -0.273 NA
HETATM   26  C   UNL     1     -44.552  60.914 -55.518  1.00  0.00     0.116 A 
HETATM   27  C   UNL     1     -44.586  59.710 -54.830  1.00  0.00     0.028 A 
ENDBRANCH  21  22
ENDBRANCH   2  21
BRANCH  10  28
HETATM   28  C   UNL     1     -40.860  54.409 -51.777  1.00  0.00     0.028 A 
HETATM   29  C   UNL     1     -40.605  53.394 -50.838  1.00  0.00     0.078 A 
HETATM   30  C   UNL     1     -40.114  52.150 -51.229  1.00  0.00     0.037 A 
HETATM   31  C   UNL     1     -39.891  51.888 -52.579  1.00  0.00     0.003 A 
HETATM   32  C   UNL     1     -40.169  52.867 -53.530  1.00  0.00     0.001 A 
HETATM   33  C   UNL     1     -40.656  54.117 -53.134  1.00  0.00     0.017 A 
BRANCH  29  34
HETATM   34  O   UNL     1     -40.821  53.563 -49.494  1.00  0.00    -0.360 OA
HETATM   35  H   UNL     1     -40.457  54.450 -49.270  1.00  0.00     0.217 HD
ENDBRANCH  29  34
ENDBRANCH  10  28
TORSDOF 8
ENDMDL
MODEL 10
REMARK VINA RESULT:      -7.4      1.865      6.015
REMARK  8 active torsions:
REMARK  status: ('A' for Active; 'I' for Inactive)
REMARK    1  A    between atoms: C_2  and  C_3 
REMARK    2  A    between atoms: C_3  and  O_4 
REMARK    3  A    between atoms: O_4  and  C_5 
REMARK    4  A    between atoms: C_7  and  C_8 
REMARK    5  A    between atoms: N_9  and  C_10 
REMARK    6  A    between atoms: C_10  and  C_11 
REMARK    7  A    between atoms: C_24  and  C_25 
REMARK    8  A    between atoms: C_26  and  O_27 
ROOT
HETATM    1  C   UNL     1     -44.218  56.674 -54.242  1.00  0.00     0.159 C 
HETATM    2  N   UNL     1     -44.571  57.708 -55.250  1.00  0.00    -0.329 N 
HETATM    3  C   UNL     1     -44.861  58.952 -54.668  1.00  0.00     0.273 C 
HETATM    4  O   UNL     1     -45.386  59.931 -55.166  1.00  0.00    -0.266 OA
HETATM    5  C   UNL     1     -44.436  58.795 -53.328  1.00  0.00     0.129 A 
HETATM    6  C   UNL     1     -44.041  57.522 -53.042  1.00  0.00     0.034 A 
HETATM    7  N   UNL     1     -44.272  59.544 -52.231  1.00  0.00    -0.272 N 
HETATM    8  H   UNL     1     -44.466  60.532 -52.093  1.00  0.00     0.189 HD
HETATM    9  N   UNL     1     -43.728  58.821 -51.217  1.00  0.00    -0.173 NA
HETATM   10  C   UNL     1     -43.595  57.559 -51.708  1.00  0.00     0.101 A 
ENDROOT
BRANCH   1  11
HETATM   11  C   UNL     1     -42.947  55.919 -54.524  1.00  0.00    -0.028 A 
HETATM   12  C   UNL     1     -42.841  54.523 -54.397  1.00  0.00     0.046 A 
HETATM   13  C   UNL     1     -41.651  53.854 -54.703  1.00  0.00     0.069 A 
HETATM   14  C   UNL     1     -40.542  54.585 -55.128  1.00  0.00     0.037 A 
HETATM   15  C   UNL     1     -40.620  55.973 -55.237  1.00  0.00     0.003 A 
HETATM   16  C   UNL     1     -41.808  56.634 -54.932  1.00  0.00     0.010 A 
BRANCH  13  17
HETATM   17  O   UNL     1     -41.699  52.496 -54.537  1.00  0.00    -0.348 OA
BRANCH  17  18
HETATM   18  C   UNL     1     -40.582  51.888 -53.889  1.00  0.00     0.202 C 
BRANCH  18  19
HETATM   19  C   UNL     1     -40.459  50.490 -54.418  1.00  0.00    -0.011 C 
HETATM   20  C   UNL     1     -39.352  49.740 -54.341  1.00  0.00     0.009 C 
ENDBRANCH  18  19
ENDBRANCH  17  18
ENDBRANCH  13  17
ENDBRANCH   1  11
BRANCH   2  21
HETATM   21  C   UNL     1     -45.036  57.349 -56.572  1.00  0.00     0.165 C 
BRANCH  21  22
HETATM   22  C   UNL     1     -43.952  57.439 -57.616  1.00  0.00    -0.037 A 
HETATM   23  C   UNL     1     -43.635  56.343 -58.424  1.00  0.00     0.028 A 
HETATM   24  C   UNL     1     -42.614  56.473 -59.352  1.00  0.00     0.116 A 
HETATM   25  N   UNL     1     -41.902  57.605 -59.535  1.00  0.00    -0.273 NA
HETATM   26  C   UNL     1     -42.214  58.649 -58.739  1.00  0.00     0.116 A 
HETATM   27  C   UNL     1     -43.217  58.616 -57.782  1.00  0.00     0.028 A 
ENDBRANCH  21  22
ENDBRANCH   2  21
BRANCH  10  28
HETATM   28  C   UNL     1     -42.994  56.505 -50.887  1.00  0.00     0.028 A 
HETATM   29  C   UNL     1     -41.809  56.731 -50.165  1.00  0.00     0.078 A 
HETATM   30  C   UNL     1     -41.194  55.712 -49.441  1.00  0.00     0.037 A 
HETATM   31  C   UNL     1     -41.769  54.444 -49.407  1.00  0.00     0.003 A 
HETATM   32  C   UNL     1     -42.961  54.205 -50.087  1.00  0.00     0.001 A 
HETATM   33  C   UNL     1     -43.573  55.229 -50.818  1.00  0.00     0.017 A 
BRANCH  29  34
HETATM   34  O   UNL     1     -41.193  57.956 -50.127  1.00  0.00    -0.360 OA
HETATM   35  H   UNL     1     -40.808  58.038 -49.224  1.00  0.00     0.217 HD
ENDBRANCH  29  34
ENDBRANCH  10  28
TORSDOF 8
ENDMDL
