MODEL 1
REMARK VINA RESULT:      -9.3      0.000      0.000
REMARK  6 active torsions:
REMARK  status: ('A' for Active; 'I' for Inactive)
REMARK    1  A    between atoms: C_2  and  O_3 
REMARK    2  A    between atoms: C_2  and  C_4 
REMARK    3  A    between atoms: C_7  and  N_8 
REMARK       I    between atoms: N_8  and  C_9 
REMARK    4  A    between atoms: C_9  and  C_10 
REMARK    5  A    between atoms: C_13  and  C_14 
REMARK    6  A    between atoms: C_19  and  C_20 
ROOT
HETATM    1  C   UNL     1     -41.943  56.215 -52.595  1.00  0.00     0.096 C 
HETATM    2  C   UNL     1     -41.289  55.052 -52.232  1.00  0.00     0.138 C 
HETATM    3  N   UNL     1     -40.831  55.264 -50.950  1.00  0.00    -0.240 N 
HETATM    4  C   UNL     1     -40.046  54.312 -50.186  1.00  0.00     0.221 C 
HETATM    5  C   UNL     1     -40.084  52.921 -50.842  1.00  0.00     0.068 C 
HETATM    6  C   UNL     1     -39.937  53.039 -52.364  1.00  0.00     0.143 C 
HETATM    7  N   UNL     1     -41.036  53.877 -52.879  1.00  0.00    -0.363 N 
HETATM    8  N   UNL     1     -40.980  56.530 -50.536  1.00  0.00    -0.181 NA
HETATM    9  C   UNL     1     -41.686  57.097 -51.518  1.00  0.00     0.160 C 
HETATM   10  H   UNL     1     -41.021  53.900 -53.902  1.00  0.00     0.162 HD
ENDROOT
BRANCH   1  11
HETATM   11  C   UNL     1     -42.691  56.535 -53.800  1.00  0.00     0.261 C 
HETATM   12  N   UNL     1     -41.979  56.322 -54.966  1.00  0.00    -0.323 N 
HETATM   13  H   UNL     1     -41.068  55.895 -54.849  1.00  0.00     0.169 HD
HETATM   14  O   UNL     1     -43.854  56.910 -53.721  1.00  0.00    -0.267 OA
BRANCH  12  15
HETATM   15  C   UNL     1     -42.427  56.504 -56.291  1.00  0.00     0.035 A 
HETATM   16  C   UNL     1     -42.426  57.732 -56.953  1.00  0.00     0.030 A 
HETATM   17  C   UNL     1     -42.913  57.836 -58.262  1.00  0.00     0.012 A 
HETATM   18  C   UNL     1     -43.412  56.716 -58.938  1.00  0.00    -0.030 A 
HETATM   19  C   UNL     1     -43.389  55.480 -58.278  1.00  0.00     0.012 A 
HETATM   20  C   UNL     1     -42.903  55.376 -56.969  1.00  0.00     0.030 A 
BRANCH  18  21
HETATM   21  C   UNL     1     -43.931  56.858 -60.352  1.00  0.00     0.147 C 
HETATM   22  C   UNL     1     -44.795  55.671 -60.755  1.00  0.00     0.044 C 
BRANCH  21  23
HETATM   23  O   UNL     1     -44.696  58.055 -60.479  1.00  0.00    -0.391 OA
HETATM   24  H   UNL     1     -45.630  57.807 -60.377  1.00  0.00     0.210 HD
ENDBRANCH  21  23
ENDBRANCH  18  21
ENDBRANCH  12  15
ENDBRANCH   1  11
BRANCH   4  25
HETATM   25  C   UNL     1     -40.532  54.210 -48.756  1.00  0.00     0.409 C 
HETATM   26  F   UNL     1     -41.187  53.051 -48.519  1.00  0.00    -0.169 F 
HETATM   27  F   UNL     1     -39.465  54.229 -47.911  1.00  0.00    -0.169 F 
HETATM   28  F   UNL     1     -41.326  55.232 -48.378  1.00  0.00    -0.169 F 
ENDBRANCH   4  25
BRANCH   6  29
HETATM   29  C   UNL     1     -39.887  51.677 -52.977  1.00  0.00     0.075 A 
HETATM   30  O   UNL     1     -39.590  50.645 -52.135  1.00  0.00    -0.325 OA
HETATM   31  C   UNL     1     -39.612  49.508 -52.876  1.00  0.00     0.142 A 
HETATM   32  C   UNL     1     -39.921  49.793 -54.186  1.00  0.00     0.027 A 
HETATM   33  C   UNL     1     -40.098  51.196 -54.254  1.00  0.00     0.037 A 
ENDBRANCH   6  29
TORSDOF 6
ENDMDL
MODEL 2
REMARK VINA RESULT:      -9.2      4.083      8.803
REMARK  6 active torsions:
REMARK  status: ('A' for Active; 'I' for Inactive)
REMARK    1  A    between atoms: C_2  and  O_3 
REMARK    2  A    between atoms: C_2  and  C_4 
REMARK    3  A    between atoms: C_7  and  N_8 
REMARK       I    between atoms: N_8  and  C_9 
REMARK    4  A    between atoms: C_9  and  C_10 
REMARK    5  A    between atoms: C_13  and  C_14 
REMARK    6  A    between atoms: C_19  and  C_20 
ROOT
HETATM    1  C   UNL     1     -42.356  56.763 -55.172  1.00  0.00     0.096 C 
HETATM    2  C   UNL     1     -43.030  57.262 -56.272  1.00  0.00     0.138 C 
HETATM    3  N   UNL     1     -42.718  58.603 -56.325  1.00  0.00    -0.240 N 
HETATM    4  C   UNL     1     -43.245  59.534 -57.306  1.00  0.00     0.221 C 
HETATM    5  C   UNL     1     -43.911  58.783 -58.471  1.00  0.00     0.068 C 
HETATM    6  C   UNL     1     -44.753  57.613 -57.946  1.00  0.00     0.143 C 
HETATM    7  N   UNL     1     -43.873  56.704 -57.187  1.00  0.00    -0.363 N 
HETATM    8  N   UNL     1     -42.050  59.036 -55.247  1.00  0.00    -0.181 NA
HETATM    9  C   UNL     1     -41.799  57.915 -54.565  1.00  0.00     0.160 C 
HETATM   10  H   UNL     1     -44.386  55.866 -56.901  1.00  0.00     0.162 HD
ENDROOT
BRANCH   1  11
HETATM   11  C   UNL     1     -42.247  55.400 -54.676  1.00  0.00     0.261 C 
HETATM   12  N   UNL     1     -41.012  55.109 -54.127  1.00  0.00    -0.323 N 
HETATM   13  H   UNL     1     -40.370  55.890 -54.058  1.00  0.00     0.169 HD
HETATM   14  O   UNL     1     -43.211  54.647 -54.729  1.00  0.00    -0.267 OA
BRANCH  12  15
HETATM   15  C   UNL     1     -40.601  53.897 -53.535  1.00  0.00     0.035 A 
HETATM   16  C   UNL     1     -40.536  53.685 -52.157  1.00  0.00     0.030 A 
HETATM   17  C   UNL     1     -40.092  52.459 -51.645  1.00  0.00     0.012 A 
HETATM   18  C   UNL     1     -39.701  51.420 -52.498  1.00  0.00    -0.030 A 
HETATM   19  C   UNL     1     -39.790  51.629 -53.881  1.00  0.00     0.012 A 
HETATM   20  C   UNL     1     -40.234  52.854 -54.392  1.00  0.00     0.030 A 
BRANCH  18  21
HETATM   21  C   UNL     1     -39.226  50.107 -51.916  1.00  0.00     0.147 C 
HETATM   22  C   UNL     1     -39.905  49.803 -50.587  1.00  0.00     0.044 C 
BRANCH  21  23
HETATM   23  O   UNL     1     -39.485  49.040 -52.826  1.00  0.00    -0.391 OA
HETATM   24  H   UNL     1     -39.410  49.407 -53.723  1.00  0.00     0.210 HD
ENDBRANCH  21  23
ENDBRANCH  18  21
ENDBRANCH  12  15
ENDBRANCH   1  11
BRANCH   4  25
HETATM   25  C   UNL     1     -42.163  60.447 -57.845  1.00  0.00     0.409 C 
HETATM   26  F   UNL     1     -41.012  59.784 -58.096  1.00  0.00    -0.169 F 
HETATM   27  F   UNL     1     -42.568  60.978 -59.032  1.00  0.00    -0.169 F 
HETATM   28  F   UNL     1     -41.886  61.493 -57.043  1.00  0.00    -0.169 F 
ENDBRANCH   4  25
BRANCH   6  29
HETATM   29  C   UNL     1     -45.463  56.948 -59.080  1.00  0.00     0.075 A 
HETATM   30  O   UNL     1     -44.778  55.960 -59.727  1.00  0.00    -0.325 OA
HETATM   31  C   UNL     1     -45.595  55.480 -60.699  1.00  0.00     0.142 A 
HETATM   32  C   UNL     1     -46.799  56.144 -60.686  1.00  0.00     0.027 A 
HETATM   33  C   UNL     1     -46.716  57.095 -59.641  1.00  0.00     0.037 A 
ENDBRANCH   6  29
TORSDOF 6
ENDMDL
MODEL 3
REMARK VINA RESULT:      -8.7      4.202      8.423
REMARK  6 active torsions:
REMARK  status: ('A' for Active; 'I' for Inactive)
REMARK    1  A    between atoms: C_2  and  O_3 
REMARK    2  A    between atoms: C_2  and  C_4 
REMARK    3  A    between atoms: C_7  and  N_8 
REMARK       I    between atoms: N_8  and  C_9 
REMARK    4  A    between atoms: C_9  and  C_10 
REMARK    5  A    between atoms: C_13  and  C_14 
REMARK    6  A    between atoms: C_19  and  C_20 
ROOT
HETATM    1  C   UNL     1     -42.449  56.093 -55.864  1.00  0.00     0.096 C 
HETATM    2  C   UNL     1     -42.354  57.327 -55.246  1.00  0.00     0.138 C 
HETATM    3  N   UNL     1     -42.741  58.250 -56.192  1.00  0.00    -0.240 N 
HETATM    4  C   UNL     1     -42.752  59.687 -55.986  1.00  0.00     0.221 C 
HETATM    5  C   UNL     1     -42.614  60.027 -54.492  1.00  0.00     0.068 C 
HETATM    6  C   UNL     1     -41.557  59.133 -53.833  1.00  0.00     0.143 C 
HETATM    7  N   UNL     1     -41.959  57.724 -54.002  1.00  0.00    -0.363 N 
HETATM    8  N   UNL     1     -42.899  57.725 -57.415  1.00  0.00    -0.181 NA
HETATM    9  C   UNL     1     -42.757  56.412 -57.209  1.00  0.00     0.160 C 
HETATM   10  H   UNL     1     -41.322  57.105 -53.493  1.00  0.00     0.162 HD
ENDROOT
BRANCH   1  11
HETATM   11  C   UNL     1     -42.246  54.757 -55.329  1.00  0.00     0.261 C 
HETATM   12  N   UNL     1     -41.062  54.615 -54.630  1.00  0.00    -0.323 N 
HETATM   13  H   UNL     1     -40.527  55.465 -54.501  1.00  0.00     0.169 HD
HETATM   14  O   UNL     1     -43.104  53.896 -55.482  1.00  0.00    -0.267 OA
BRANCH  12  15
HETATM   15  C   UNL     1     -40.589  53.464 -53.967  1.00  0.00     0.035 A 
HETATM   16  C   UNL     1     -40.192  52.296 -54.619  1.00  0.00     0.030 A 
HETATM   17  C   UNL     1     -39.758  51.183 -53.888  1.00  0.00     0.012 A 
HETATM   18  C   UNL     1     -39.712  51.213 -52.489  1.00  0.00    -0.030 A 
HETATM   19  C   UNL     1     -40.089  52.395 -51.838  1.00  0.00     0.012 A 
HETATM   20  C   UNL     1     -40.523  53.507 -52.570  1.00  0.00     0.030 A 
BRANCH  18  21
HETATM   21  C   UNL     1     -39.239  49.996 -51.725  1.00  0.00     0.147 C 
HETATM   22  C   UNL     1     -40.016  49.810 -50.428  1.00  0.00     0.044 C 
BRANCH  21  23
HETATM   23  O   UNL     1     -39.382  48.823 -52.525  1.00  0.00    -0.391 OA
HETATM   24  H   UNL     1     -40.293  48.820 -52.863  1.00  0.00     0.210 HD
ENDBRANCH  21  23
ENDBRANCH  18  21
ENDBRANCH  12  15
ENDBRANCH   1  11
BRANCH   4  25
HETATM   25  C   UNL     1     -44.015  60.319 -56.533  1.00  0.00     0.409 C 
HETATM   26  F   UNL     1     -45.105  59.545 -56.328  1.00  0.00    -0.169 F 
HETATM   27  F   UNL     1     -44.251  61.494 -55.888  1.00  0.00    -0.169 F 
HETATM   28  F   UNL     1     -43.947  60.620 -57.845  1.00  0.00    -0.169 F 
ENDBRANCH   4  25
BRANCH   6  29
HETATM   29  C   UNL     1     -41.371  59.533 -52.405  1.00  0.00     0.075 A 
HETATM   30  O   UNL     1     -40.127  59.334 -51.878  1.00  0.00    -0.325 OA
HETATM   31  C   UNL     1     -40.164  59.774 -50.594  1.00  0.00     0.142 A 
HETATM   32  C   UNL     1     -41.415  60.256 -50.287  1.00  0.00     0.027 A 
HETATM   33  C   UNL     1     -42.197  60.100 -51.456  1.00  0.00     0.037 A 
ENDBRANCH   6  29
TORSDOF 6
ENDMDL
MODEL 4
REMARK VINA RESULT:      -8.4      1.608      2.040
REMARK  6 active torsions:
REMARK  status: ('A' for Active; 'I' for Inactive)
REMARK    1  A    between atoms: C_2  and  O_3 
REMARK    2  A    between atoms: C_2  and  C_4 
REMARK    3  A    between atoms: C_7  and  N_8 
REMARK       I    between atoms: N_8  and  C_9 
REMARK    4  A    between atoms: C_9  and  C_10 
REMARK    5  A    between atoms: C_13  and  C_14 
REMARK    6  A    between atoms: C_19  and  C_20 
ROOT
HETATM    1  C   UNL     1     -41.812  56.135 -53.931  1.00  0.00     0.096 C 
HETATM    2  C   UNL     1     -41.312  55.051 -53.232  1.00  0.00     0.138 C 
HETATM    3  N   UNL     1     -41.208  55.466 -51.922  1.00  0.00    -0.240 N 
HETATM    4  C   UNL     1     -40.684  54.654 -50.839  1.00  0.00     0.221 C 
HETATM    5  C   UNL     1     -40.585  53.178 -51.261  1.00  0.00     0.068 C 
HETATM    6  C   UNL     1     -40.033  53.061 -52.687  1.00  0.00     0.143 C 
HETATM    7  N   UNL     1     -40.930  53.794 -53.600  1.00  0.00    -0.363 N 
HETATM    8  N   UNL     1     -41.427  56.778 -51.762  1.00  0.00    -0.181 NA
HETATM    9  C   UNL     1     -41.828  57.177 -52.972  1.00  0.00     0.160 C 
HETATM   10  H   UNL     1     -40.641  53.659 -54.572  1.00  0.00     0.162 HD
ENDROOT
BRANCH   1  11
HETATM   11  C   UNL     1     -42.201  56.254 -55.327  1.00  0.00     0.261 C 
HETATM   12  N   UNL     1     -42.530  57.544 -55.701  1.00  0.00    -0.323 N 
HETATM   13  H   UNL     1     -42.381  58.254 -54.994  1.00  0.00     0.169 HD
HETATM   14  O   UNL     1     -42.174  55.273 -56.059  1.00  0.00    -0.267 OA
BRANCH  12  15
HETATM   15  C   UNL     1     -42.914  57.995 -56.980  1.00  0.00     0.035 A 
HETATM   16  C   UNL     1     -42.016  58.273 -58.011  1.00  0.00     0.030 A 
HETATM   17  C   UNL     1     -42.474  58.743 -59.248  1.00  0.00     0.012 A 
HETATM   18  C   UNL     1     -43.840  58.947 -59.482  1.00  0.00    -0.030 A 
HETATM   19  C   UNL     1     -44.740  58.643 -58.452  1.00  0.00     0.012 A 
HETATM   20  C   UNL     1     -44.282  58.174 -57.215  1.00  0.00     0.030 A 
BRANCH  18  21
HETATM   21  C   UNL     1     -44.305  59.455 -60.828  1.00  0.00     0.147 C 
HETATM   22  C   UNL     1     -45.632  60.196 -60.720  1.00  0.00     0.044 C 
BRANCH  21  23
HETATM   23  O   UNL     1     -43.329  60.329 -61.392  1.00  0.00    -0.391 OA
HETATM   24  H   UNL     1     -43.209  60.061 -62.318  1.00  0.00     0.210 HD
ENDBRANCH  21  23
ENDBRANCH  18  21
ENDBRANCH  12  15
ENDBRANCH   1  11
BRANCH   4  25
HETATM   25  C   UNL     1     -41.538  54.768 -49.594  1.00  0.00     0.409 C 
HETATM   26  F   UNL     1     -41.394  55.964 -48.980  1.00  0.00    -0.169 F 
HETATM   27  F   UNL     1     -42.852  54.664 -49.934  1.00  0.00    -0.169 F 
HETATM   28  F   UNL     1     -41.308  53.795 -48.689  1.00  0.00    -0.169 F 
ENDBRANCH   4  25
BRANCH   6  29
HETATM   29  C   UNL     1     -39.859  51.622 -53.049  1.00  0.00     0.075 A 
HETATM   30  O   UNL     1     -39.667  50.756 -52.011  1.00  0.00    -0.325 OA
HETATM   31  C   UNL     1     -39.551  49.513 -52.546  1.00  0.00     0.142 A 
HETATM   32  C   UNL     1     -39.669  49.566 -53.915  1.00  0.00     0.027 A 
HETATM   33  C   UNL     1     -39.867  50.929 -54.243  1.00  0.00     0.037 A 
ENDBRANCH   6  29
TORSDOF 6
ENDMDL
MODEL 5
REMARK VINA RESULT:      -8.2      3.164      5.662
REMARK  6 active torsions:
REMARK  status: ('A' for Active; 'I' for Inactive)
REMARK    1  A    between atoms: C_2  and  O_3 
REMARK    2  A    between atoms: C_2  and  C_4 
REMARK    3  A    between atoms: C_7  and  N_8 
REMARK       I    between atoms: N_8  and  C_9 
REMARK    4  A    between atoms: C_9  and  C_10 
REMARK    5  A    between atoms: C_13  and  C_14 
REMARK    6  A    between atoms: C_19  and  C_20 
ROOT
HETATM    1  C   UNL     1     -42.826  56.217 -56.155  1.00  0.00     0.096 C 
HETATM    2  C   UNL     1     -42.383  56.254 -54.845  1.00  0.00     0.138 C 
HETATM    3  N   UNL     1     -42.203  54.940 -54.473  1.00  0.00    -0.240 N 
HETATM    4  C   UNL     1     -41.782  54.506 -53.153  1.00  0.00     0.221 C 
HETATM    5  C   UNL     1     -41.235  55.690 -52.337  1.00  0.00     0.068 C 
HETATM    6  C   UNL     1     -42.119  56.929 -52.527  1.00  0.00     0.143 C 
HETATM    7  N   UNL     1     -42.150  57.269 -53.963  1.00  0.00    -0.363 N 
HETATM    8  N   UNL     1     -42.667  54.064 -55.375  1.00  0.00    -0.181 NA
HETATM    9  C   UNL     1     -43.011  54.836 -56.409  1.00  0.00     0.160 C 
HETATM   10  H   UNL     1     -42.657  58.145 -54.113  1.00  0.00     0.162 HD
ENDROOT
BRANCH   1  11
HETATM   11  C   UNL     1     -43.100  57.300 -57.085  1.00  0.00     0.261 C 
HETATM   12  N   UNL     1     -41.992  57.705 -57.805  1.00  0.00    -0.323 N 
HETATM   13  H   UNL     1     -41.155  57.151 -57.665  1.00  0.00     0.169 HD
HETATM   14  O   UNL     1     -44.239  57.737 -57.202  1.00  0.00    -0.267 OA
BRANCH  12  15
HETATM   15  C   UNL     1     -41.933  58.701 -58.802  1.00  0.00     0.035 A 
HETATM   16  C   UNL     1     -42.021  58.441 -60.170  1.00  0.00     0.030 A 
HETATM   17  C   UNL     1     -41.927  59.484 -61.101  1.00  0.00     0.012 A 
HETATM   18  C   UNL     1     -41.744  60.808 -60.684  1.00  0.00    -0.030 A 
HETATM   19  C   UNL     1     -41.681  61.067 -59.309  1.00  0.00     0.012 A 
HETATM   20  C   UNL     1     -41.773  60.025 -58.379  1.00  0.00     0.030 A 
BRANCH  18  21
HETATM   21  C   UNL     1     -41.647  61.914 -61.712  1.00  0.00     0.147 C 
HETATM   22  C   UNL     1     -40.387  62.748 -61.522  1.00  0.00     0.044 C 
BRANCH  21  23
HETATM   23  O   UNL     1     -41.648  61.366 -63.029  1.00  0.00    -0.391 OA
HETATM   24  H   UNL     1     -41.697  60.400 -62.934  1.00  0.00     0.210 HD
ENDBRANCH  21  23
ENDBRANCH  18  21
ENDBRANCH  12  15
ENDBRANCH   1  11
BRANCH   4  25
HETATM   25  C   UNL     1     -40.731  53.419 -53.232  1.00  0.00     0.409 C 
HETATM   26  F   UNL     1     -41.259  52.218 -53.557  1.00  0.00    -0.169 F 
HETATM   27  F   UNL     1     -39.836  53.724 -54.212  1.00  0.00    -0.169 F 
HETATM   28  F   UNL     1     -40.012  53.276 -52.101  1.00  0.00    -0.169 F 
ENDBRANCH   4  25
BRANCH   6  29
HETATM   29  C   UNL     1     -41.627  58.043 -51.661  1.00  0.00     0.075 A 
HETATM   30  O   UNL     1     -42.347  59.202 -51.700  1.00  0.00    -0.325 OA
HETATM   31  C   UNL     1     -41.753  60.068 -50.840  1.00  0.00     0.142 A 
HETATM   32  C   UNL     1     -40.659  59.483 -50.246  1.00  0.00     0.027 A 
HETATM   33  C   UNL     1     -40.575  58.173 -50.777  1.00  0.00     0.037 A 
ENDBRANCH   6  29
TORSDOF 6
ENDMDL
MODEL 6
REMARK VINA RESULT:      -8.1      3.803      7.912
REMARK  6 active torsions:
REMARK  status: ('A' for Active; 'I' for Inactive)
REMARK    1  A    between atoms: C_2  and  O_3 
REMARK    2  A    between atoms: C_2  and  C_4 
REMARK    3  A    between atoms: C_7  and  N_8 
REMARK       I    between atoms: N_8  and  C_9 
REMARK    4  A    between atoms: C_9  and  C_10 
REMARK    5  A    between atoms: C_13  and  C_14 
REMARK    6  A    between atoms: C_19  and  C_20 
ROOT
HETATM    1  C   UNL     1     -43.615  57.013 -52.392  1.00  0.00     0.096 C 
HETATM    2  C   UNL     1     -44.139  57.739 -53.446  1.00  0.00     0.138 C 
HETATM    3  N   UNL     1     -44.278  59.028 -52.981  1.00  0.00    -0.240 N 
HETATM    4  C   UNL     1     -44.836  60.126 -53.749  1.00  0.00     0.221 C 
HETATM    5  C   UNL     1     -44.929  59.760 -55.240  1.00  0.00     0.068 C 
HETATM    6  C   UNL     1     -45.441  58.324 -55.410  1.00  0.00     0.143 C 
HETATM    7  N   UNL     1     -44.516  57.409 -54.716  1.00  0.00    -0.363 N 
HETATM    8  N   UNL     1     -44.059  59.144 -51.664  1.00  0.00    -0.181 NA
HETATM    9  C   UNL     1     -43.623  57.931 -51.314  1.00  0.00     0.160 C 
HETATM   10  H   UNL     1     -44.778  56.435 -54.887  1.00  0.00     0.162 HD
ENDROOT
BRANCH   1  11
HETATM   11  C   UNL     1     -43.186  55.625 -52.328  1.00  0.00     0.261 C 
HETATM   12  N   UNL     1     -42.190  55.311 -53.234  1.00  0.00    -0.323 N 
HETATM   13  H   UNL     1     -41.824  56.092 -53.766  1.00  0.00     0.169 HD
HETATM   14  O   UNL     1     -43.671  54.870 -51.495  1.00  0.00    -0.267 OA
BRANCH  12  15
HETATM   15  C   UNL     1     -41.542  54.071 -53.401  1.00  0.00     0.035 A 
HETATM   16  C   UNL     1     -41.711  53.246 -54.513  1.00  0.00     0.030 A 
HETATM   17  C   UNL     1     -41.050  52.013 -54.594  1.00  0.00     0.012 A 
HETATM   18  C   UNL     1     -40.207  51.578 -53.564  1.00  0.00    -0.030 A 
HETATM   19  C   UNL     1     -40.021  52.420 -52.459  1.00  0.00     0.012 A 
HETATM   20  C   UNL     1     -40.682  53.652 -52.379  1.00  0.00     0.030 A 
BRANCH  18  21
HETATM   21  C   UNL     1     -39.506  50.242 -53.678  1.00  0.00     0.147 C 
HETATM   22  C   UNL     1     -39.724  49.386 -52.437  1.00  0.00     0.044 C 
BRANCH  21  23
HETATM   23  O   UNL     1     -39.979  49.532 -54.822  1.00  0.00    -0.391 OA
HETATM   24  H   UNL     1     -40.717  50.047 -55.190  1.00  0.00     0.210 HD
ENDBRANCH  21  23
ENDBRANCH  18  21
ENDBRANCH  12  15
ENDBRANCH   1  11
BRANCH   4  25
HETATM   25  C   UNL     1     -44.017  61.390 -53.590  1.00  0.00     0.409 C 
HETATM   26  F   UNL     1     -42.688  61.144 -53.592  1.00  0.00    -0.169 F 
HETATM   27  F   UNL     1     -44.257  62.221 -54.641  1.00  0.00    -0.169 F 
HETATM   28  F   UNL     1     -44.317  62.095 -52.480  1.00  0.00    -0.169 F 
ENDBRANCH   4  25
BRANCH   6  29
HETATM   29  C   UNL     1     -45.610  58.013 -56.862  1.00  0.00     0.075 A 
HETATM   30  O   UNL     1     -44.522  57.491 -57.499  1.00  0.00    -0.325 OA
HETATM   31  C   UNL     1     -44.885  57.265 -58.788  1.00  0.00     0.142 A 
HETATM   32  C   UNL     1     -46.195  57.634 -58.990  1.00  0.00     0.027 A 
HETATM   33  C   UNL     1     -46.665  58.120 -57.746  1.00  0.00     0.037 A 
ENDBRANCH   6  29
TORSDOF 6
ENDMDL
MODEL 7
REMARK VINA RESULT:      -8.0      1.988      2.276
REMARK  6 active torsions:
REMARK  status: ('A' for Active; 'I' for Inactive)
REMARK    1  A    between atoms: C_2  and  O_3 
REMARK    2  A    between atoms: C_2  and  C_4 
REMARK    3  A    between atoms: C_7  and  N_8 
REMARK       I    between atoms: N_8  and  C_9 
REMARK    4  A    between atoms: C_9  and  C_10 
REMARK    5  A    between atoms: C_13  and  C_14 
REMARK    6  A    between atoms: C_19  and  C_20 
ROOT
HETATM    1  C   UNL     1     -42.027  56.186 -52.301  1.00  0.00     0.096 C 
HETATM    2  C   UNL     1     -41.343  55.012 -52.043  1.00  0.00     0.138 C 
HETATM    3  N   UNL     1     -40.818  55.153 -50.777  1.00  0.00    -0.240 N 
HETATM    4  C   UNL     1     -39.984  54.167 -50.115  1.00  0.00     0.221 C 
HETATM    5  C   UNL     1     -40.044  52.817 -50.851  1.00  0.00     0.068 C 
HETATM    6  C   UNL     1     -39.981  53.028 -52.368  1.00  0.00     0.143 C 
HETATM    7  N   UNL     1     -41.114  53.881 -52.773  1.00  0.00    -0.363 N 
HETATM    8  N   UNL     1     -40.958  56.390 -50.280  1.00  0.00    -0.181 NA
HETATM    9  C   UNL     1     -41.721  57.006 -51.187  1.00  0.00     0.160 C 
HETATM   10  H   UNL     1     -41.154  53.966 -53.791  1.00  0.00     0.162 HD
ENDROOT
BRANCH   1  11
HETATM   11  C   UNL     1     -42.842  56.568 -53.442  1.00  0.00     0.261 C 
HETATM   12  N   UNL     1     -42.747  57.909 -53.765  1.00  0.00    -0.323 N 
HETATM   13  H   UNL     1     -42.068  58.439 -53.232  1.00  0.00     0.169 HD
HETATM   14  O   UNL     1     -43.491  55.723 -54.045  1.00  0.00    -0.267 OA
BRANCH  12  15
HETATM   15  C   UNL     1     -43.381  58.582 -54.829  1.00  0.00     0.035 A 
HETATM   16  C   UNL     1     -42.762  58.878 -56.044  1.00  0.00     0.030 A 
HETATM   17  C   UNL     1     -43.452  59.574 -57.045  1.00  0.00     0.012 A 
HETATM   18  C   UNL     1     -44.775  59.990 -56.853  1.00  0.00    -0.030 A 
HETATM   19  C   UNL     1     -45.401  59.670 -55.641  1.00  0.00     0.012 A 
HETATM   20  C   UNL     1     -44.711  58.975 -54.641  1.00  0.00     0.030 A 
BRANCH  18  21
HETATM   21  C   UNL     1     -45.495  60.740 -57.952  1.00  0.00     0.147 C 
HETATM   22  C   UNL     1     -45.522  59.943 -59.251  1.00  0.00     0.044 C 
BRANCH  21  23
HETATM   23  O   UNL     1     -46.835  61.030 -57.557  1.00  0.00    -0.391 OA
HETATM   24  H   UNL     1     -47.037  61.925 -57.878  1.00  0.00     0.210 HD
ENDBRANCH  21  23
ENDBRANCH  18  21
ENDBRANCH  12  15
ENDBRANCH   1  11
BRANCH   4  25
HETATM   25  C   UNL     1     -40.392  53.973 -48.669  1.00  0.00     0.409 C 
HETATM   26  F   UNL     1     -40.750  52.696 -48.405  1.00  0.00    -0.169 F 
HETATM   27  F   UNL     1     -39.335  54.253 -47.858  1.00  0.00    -0.169 F 
HETATM   28  F   UNL     1     -41.392  54.786 -48.274  1.00  0.00    -0.169 F 
ENDBRANCH   4  25
BRANCH   6  29
HETATM   29  C   UNL     1     -39.951  51.706 -53.065  1.00  0.00     0.075 A 
HETATM   30  O   UNL     1     -39.585  50.631 -52.307  1.00  0.00    -0.325 OA
HETATM   31  C   UNL     1     -39.639  49.540 -53.112  1.00  0.00     0.142 A 
HETATM   32  C   UNL     1     -40.036  49.897 -54.380  1.00  0.00     0.027 A 
HETATM   33  C   UNL     1     -40.237  51.298 -54.352  1.00  0.00     0.037 A 
ENDBRANCH   6  29
TORSDOF 6
ENDMDL
MODEL 8
REMARK VINA RESULT:      -8.0      2.109      4.672
REMARK  6 active torsions:
REMARK  status: ('A' for Active; 'I' for Inactive)
REMARK    1  A    between atoms: C_2  and  O_3 
REMARK    2  A    between atoms: C_2  and  C_4 
REMARK    3  A    between atoms: C_7  and  N_8 
REMARK       I    between atoms: N_8  and  C_9 
REMARK    4  A    between atoms: C_9  and  C_10 
REMARK    5  A    between atoms: C_13  and  C_14 
REMARK    6  A    between atoms: C_19  and  C_20 
ROOT
HETATM    1  C   UNL     1     -41.279  54.299 -53.577  1.00  0.00     0.096 C 
HETATM    2  C   UNL     1     -41.421  55.109 -52.464  1.00  0.00     0.138 C 
HETATM    3  N   UNL     1     -41.282  54.277 -51.375  1.00  0.00    -0.240 N 
HETATM    4  C   UNL     1     -41.401  54.702 -49.992  1.00  0.00     0.221 C 
HETATM    5  C   UNL     1     -41.358  56.236 -49.886  1.00  0.00     0.068 C 
HETATM    6  C   UNL     1     -42.201  56.877 -50.994  1.00  0.00     0.143 C 
HETATM    7  N   UNL     1     -41.672  56.440 -52.300  1.00  0.00    -0.363 N 
HETATM    8  N   UNL     1     -41.245  52.977 -51.700  1.00  0.00    -0.181 NA
HETATM    9  C   UNL     1     -41.208  52.992 -53.035  1.00  0.00     0.160 C 
HETATM   10  H   UNL     1     -42.155  56.922 -53.062  1.00  0.00     0.162 HD
ENDROOT
BRANCH   1  11
HETATM   11  C   UNL     1     -41.252  54.640 -54.990  1.00  0.00     0.261 C 
HETATM   12  N   UNL     1     -42.243  55.528 -55.364  1.00  0.00    -0.323 N 
HETATM   13  H   UNL     1     -42.806  55.897 -54.607  1.00  0.00     0.169 HD
HETATM   14  O   UNL     1     -40.379  54.182 -55.716  1.00  0.00    -0.267 OA
BRANCH  12  15
HETATM   15  C   UNL     1     -42.465  56.077 -56.643  1.00  0.00     0.035 A 
HETATM   16  C   UNL     1     -42.929  55.344 -57.736  1.00  0.00     0.030 A 
HETATM   17  C   UNL     1     -43.100  55.955 -58.984  1.00  0.00     0.012 A 
HETATM   18  C   UNL     1     -42.811  57.313 -59.168  1.00  0.00    -0.030 A 
HETATM   19  C   UNL     1     -42.369  58.051 -58.062  1.00  0.00     0.012 A 
HETATM   20  C   UNL     1     -42.197  57.439 -56.815  1.00  0.00     0.030 A 
BRANCH  18  21
HETATM   21  C   UNL     1     -43.006  57.947 -60.527  1.00  0.00     0.147 C 
HETATM   22  C   UNL     1     -43.996  59.104 -60.470  1.00  0.00     0.044 C 
BRANCH  21  23
HETATM   23  O   UNL     1     -41.761  58.425 -61.033  1.00  0.00    -0.391 OA
HETATM   24  H   UNL     1     -41.190  58.598 -60.265  1.00  0.00     0.210 HD
ENDBRANCH  21  23
ENDBRANCH  18  21
ENDBRANCH  12  15
ENDBRANCH   1  11
BRANCH   4  25
HETATM   25  C   UNL     1     -40.309  54.105 -49.129  1.00  0.00     0.409 C 
HETATM   26  F   UNL     1     -39.073  54.402 -49.588  1.00  0.00    -0.169 F 
HETATM   27  F   UNL     1     -40.390  54.623 -47.873  1.00  0.00    -0.169 F 
HETATM   28  F   UNL     1     -40.400  52.767 -48.988  1.00  0.00    -0.169 F 
ENDBRANCH   4  25
BRANCH   6  29
HETATM   29  C   UNL     1     -42.221  58.362 -50.825  1.00  0.00     0.075 A 
HETATM   30  O   UNL     1     -41.085  58.929 -50.325  1.00  0.00    -0.325 OA
HETATM   31  C   UNL     1     -41.300  60.268 -50.267  1.00  0.00     0.142 A 
HETATM   32  C   UNL     1     -42.561  60.572 -50.725  1.00  0.00     0.027 A 
HETATM   33  C   UNL     1     -43.159  59.340 -51.086  1.00  0.00     0.037 A 
ENDBRANCH   6  29
TORSDOF 6
ENDMDL
MODEL 9
REMARK VINA RESULT:      -7.9      5.869      9.436
REMARK  6 active torsions:
REMARK  status: ('A' for Active; 'I' for Inactive)
REMARK    1  A    between atoms: C_2  and  O_3 
REMARK    2  A    between atoms: C_2  and  C_4 
REMARK    3  A    between atoms: C_7  and  N_8 
REMARK       I    between atoms: N_8  and  C_9 
REMARK    4  A    between atoms: C_9  and  C_10 
REMARK    5  A    between atoms: C_13  and  C_14 
REMARK    6  A    between atoms: C_19  and  C_20 
ROOT
HETATM    1  C   UNL     1     -44.899  58.760 -51.992  1.00  0.00     0.096 C 
HETATM    2  C   UNL     1     -45.247  59.803 -51.154  1.00  0.00     0.138 C 
HETATM    3  N   UNL     1     -45.797  60.769 -51.967  1.00  0.00    -0.240 N 
HETATM    4  C   UNL     1     -46.267  62.064 -51.508  1.00  0.00     0.221 C 
HETATM    5  C   UNL     1     -46.393  62.088 -49.976  1.00  0.00     0.068 C 
HETATM    6  C   UNL     1     -45.188  61.399 -49.325  1.00  0.00     0.143 C 
HETATM    7  N   UNL     1     -45.123  60.007 -49.810  1.00  0.00    -0.363 N 
HETATM    8  N   UNL     1     -45.661  60.504 -53.274  1.00  0.00    -0.181 NA
HETATM    9  C   UNL     1     -45.149  59.271 -53.289  1.00  0.00     0.160 C 
HETATM   10  H   UNL     1     -44.384  59.492 -49.325  1.00  0.00     0.162 HD
ENDROOT
BRANCH   1  11
HETATM   11  C   UNL     1     -44.354  57.447 -51.683  1.00  0.00     0.261 C 
HETATM   12  N   UNL     1     -43.332  57.059 -52.530  1.00  0.00    -0.323 N 
HETATM   13  H   UNL     1     -43.031  57.758 -53.198  1.00  0.00     0.169 HD
HETATM   14  O   UNL     1     -44.776  56.817 -50.722  1.00  0.00    -0.267 OA
BRANCH  12  15
HETATM   15  C   UNL     1     -42.581  55.867 -52.477  1.00  0.00     0.035 A 
HETATM   16  C   UNL     1     -41.570  55.623 -51.547  1.00  0.00     0.030 A 
HETATM   17  C   UNL     1     -40.849  54.423 -51.576  1.00  0.00     0.012 A 
HETATM   18  C   UNL     1     -41.123  53.440 -52.535  1.00  0.00    -0.030 A 
HETATM   19  C   UNL     1     -42.155  53.679 -53.452  1.00  0.00     0.012 A 
HETATM   20  C   UNL     1     -42.874  54.879 -53.423  1.00  0.00     0.030 A 
BRANCH  18  21
HETATM   21  C   UNL     1     -40.329  52.153 -52.542  1.00  0.00     0.147 C 
HETATM   22  C   UNL     1     -39.780  51.838 -53.928  1.00  0.00     0.044 C 
BRANCH  21  23
HETATM   23  O   UNL     1     -39.243  52.237 -51.620  1.00  0.00    -0.391 OA
HETATM   24  H   UNL     1     -38.485  52.600 -52.107  1.00  0.00     0.210 HD
ENDBRANCH  21  23
ENDBRANCH  18  21
ENDBRANCH  12  15
ENDBRANCH   1  11
BRANCH   4  25
HETATM   25  C   UNL     1     -47.599  62.426 -52.131  1.00  0.00     0.409 C 
HETATM   26  F   UNL     1     -48.357  63.191 -51.312  1.00  0.00    -0.169 F 
HETATM   27  F   UNL     1     -47.389  63.160 -53.258  1.00  0.00    -0.169 F 
HETATM   28  F   UNL     1     -48.328  61.358 -52.511  1.00  0.00    -0.169 F 
ENDBRANCH   4  25
BRANCH   6  29
HETATM   29  C   UNL     1     -45.281  61.508 -47.837  1.00  0.00     0.075 A 
HETATM   30  O   UNL     1     -45.610  60.365 -47.167  1.00  0.00    -0.325 OA
HETATM   31  C   UNL     1     -45.624  60.671 -45.844  1.00  0.00     0.142 A 
HETATM   32  C   UNL     1     -45.306  61.995 -45.652  1.00  0.00     0.027 A 
HETATM   33  C   UNL     1     -45.085  62.539 -46.941  1.00  0.00     0.037 A 
ENDBRANCH   6  29
TORSDOF 6
ENDMDL
MODEL 10
REMARK VINA RESULT:      -7.8      5.209     10.104
REMARK  6 active torsions:
REMARK  status: ('A' for Active; 'I' for Inactive)
REMARK    1  A    between atoms: C_2  and  O_3 
REMARK    2  A    between atoms: C_2  and  C_4 
REMARK    3  A    between atoms: C_7  and  N_8 
REMARK       I    between atoms: N_8  and  C_9 
REMARK    4  A    between atoms: C_9  and  C_10 
REMARK    5  A    between atoms: C_13  and  C_14 
REMARK    6  A    between atoms: C_19  and  C_20 
ROOT
HETATM    1  C   UNL     1     -43.382  56.010 -57.637  1.00  0.00     0.096 C 
HETATM    2  C   UNL     1     -44.001  57.125 -58.170  1.00  0.00     0.138 C 
HETATM    3  N   UNL     1     -44.659  56.686 -59.298  1.00  0.00    -0.240 N 
HETATM    4  C   UNL     1     -45.413  57.539 -60.198  1.00  0.00     0.221 C 
HETATM    5  C   UNL     1     -45.674  58.913 -59.558  1.00  0.00     0.068 C 
HETATM    6  C   UNL     1     -44.418  59.421 -58.841  1.00  0.00     0.143 C 
HETATM    7  N   UNL     1     -44.037  58.440 -57.807  1.00  0.00    -0.363 N 
HETATM    8  N   UNL     1     -44.360  55.422 -59.629  1.00  0.00    -0.181 NA
HETATM    9  C   UNL     1     -43.614  55.001 -58.603  1.00  0.00     0.160 C 
HETATM   10  H   UNL     1     -43.256  58.793 -57.249  1.00  0.00     0.162 HD
ENDROOT
BRANCH   1  11
HETATM   11  C   UNL     1     -42.618  55.855 -56.410  1.00  0.00     0.261 C 
HETATM   12  N   UNL     1     -42.657  54.574 -55.892  1.00  0.00    -0.323 N 
HETATM   13  H   UNL     1     -43.133  53.886 -56.464  1.00  0.00     0.169 HD
HETATM   14  O   UNL     1     -41.985  56.800 -55.956  1.00  0.00    -0.267 OA
BRANCH  12  15
HETATM   15  C   UNL     1     -42.000  54.093 -54.740  1.00  0.00     0.035 A 
HETATM   16  C   UNL     1     -42.496  54.233 -53.444  1.00  0.00     0.030 A 
HETATM   17  C   UNL     1     -41.771  53.751 -52.347  1.00  0.00     0.012 A 
HETATM   18  C   UNL     1     -40.533  53.120 -52.522  1.00  0.00    -0.030 A 
HETATM   19  C   UNL     1     -40.050  52.960 -53.827  1.00  0.00     0.012 A 
HETATM   20  C   UNL     1     -40.775  53.442 -54.923  1.00  0.00     0.030 A 
BRANCH  18  21
HETATM   21  C   UNL     1     -39.773  52.609 -51.318  1.00  0.00     0.147 C 
HETATM   22  C   UNL     1     -40.434  53.035 -50.014  1.00  0.00     0.044 C 
BRANCH  21  23
HETATM   23  O   UNL     1     -39.689  51.185 -51.354  1.00  0.00    -0.391 OA
HETATM   24  H   UNL     1     -40.291  50.883 -52.055  1.00  0.00     0.210 HD
ENDBRANCH  21  23
ENDBRANCH  18  21
ENDBRANCH  12  15
ENDBRANCH   1  11
BRANCH   4  25
HETATM   25  C   UNL     1     -46.731  56.906 -60.592  1.00  0.00     0.409 C 
HETATM   26  F   UNL     1     -47.357  56.329 -59.542  1.00  0.00    -0.169 F 
HETATM   27  F   UNL     1     -47.574  57.867 -61.061  1.00  0.00    -0.169 F 
HETATM   28  F   UNL     1     -46.622  55.992 -61.577  1.00  0.00    -0.169 F 
ENDBRANCH   4  25
BRANCH   6  29
HETATM   29  C   UNL     1     -44.659  60.794 -58.302  1.00  0.00     0.075 A 
HETATM   30  O   UNL     1     -44.459  60.960 -56.962  1.00  0.00    -0.325 OA
HETATM   31  C   UNL     1     -44.711  62.265 -56.681  1.00  0.00     0.142 A 
HETATM   32  C   UNL     1     -45.070  62.942 -57.823  1.00  0.00     0.027 A 
HETATM   33  C   UNL     1     -45.038  61.992 -58.873  1.00  0.00     0.037 A 
ENDBRANCH   6  29
TORSDOF 6
ENDMDL
