MODEL 1
REMARK VINA RESULT:      -7.8      0.000      0.000
REMARK  5 active torsions:
REMARK  status: ('A' for Active; 'I' for Inactive)
REMARK    1  A    between atoms: C_7  and  N_8 
REMARK    2  A    between atoms: N_8  and  C_9 
REMARK    3  A    between atoms: C_9  and  C_10 
REMARK       I    between atoms: C_10  and  N_11 
REMARK    4  A    between atoms: N_11  and  C_12 
REMARK    5  A    between atoms: C_16  and  C_17 
ROOT
HETATM    1  C   UNL     1     -41.187  55.789 -49.891  1.00  0.00     0.068 C 
HETATM    2  C   UNL     1     -41.005  55.008 -51.158  1.00  0.00     0.014 A 
HETATM    3  N   UNL     1     -40.496  53.771 -51.026  1.00  0.00    -0.359 N 
HETATM    4  H   UNL     1     -40.263  53.443 -50.090  1.00  0.00     0.166 HD
HETATM    5  C   UNL     1     -40.288  52.923 -52.045  1.00  0.00     0.044 A 
HETATM    6  C   UNL     1     -40.596  53.328 -53.359  1.00  0.00     0.012 A 
HETATM    7  C   UNL     1     -41.084  54.651 -53.556  1.00  0.00     0.030 A 
HETATM    8  C   UNL     1     -41.341  55.490 -52.440  1.00  0.00    -0.010 A 
HETATM    9  C   UNL     1     -39.765  51.645 -51.781  1.00  0.00     0.030 A 
HETATM   10  C   UNL     1     -39.559  50.741 -52.820  1.00  0.00     0.002 A 
HETATM   11  C   UNL     1     -39.885  51.103 -54.119  1.00  0.00     0.001 A 
HETATM   12  C   UNL     1     -40.401  52.375 -54.386  1.00  0.00     0.015 A 
ENDROOT
BRANCH   7  13
HETATM   13  N   UNL     1     -41.297  55.170 -54.845  1.00  0.00    -0.283 NA
HETATM   14  H   UNL     1     -41.288  56.194 -54.865  1.00  0.00     0.128 HD
BRANCH  13  15
HETATM   15  C   UNL     1     -42.515  54.697 -55.533  1.00  0.00     0.195 C 
BRANCH  15  16
HETATM   16  C   UNL     1     -42.871  55.675 -56.661  1.00  0.00     0.231 C 
HETATM   17  N   UNL     1     -43.477  55.087 -57.751  1.00  0.00    -0.356 N 
HETATM   18  H   UNL     1     -43.462  54.078 -57.827  1.00  0.00     0.162 HD
HETATM   19  O   UNL     1     -42.613  56.873 -56.580  1.00  0.00    -0.272 OA
BRANCH  17  20
HETATM   20  C   UNL     1     -43.758  55.829 -58.975  1.00  0.00     0.076 C 
HETATM   21  C   UNL     1     -42.463  56.103 -59.737  1.00  0.00     0.032 C 
HETATM   22  C   UNL     1     -44.736  55.040 -59.839  1.00  0.00     0.032 C 
ENDBRANCH  17  20
ENDBRANCH  15  16
ENDBRANCH  13  15
ENDBRANCH   7  13
BRANCH   8  23
HETATM   23  C   UNL     1     -41.963  56.887 -52.575  1.00  0.00     0.014 C 
HETATM   24  C   UNL     1     -41.123  57.802 -53.469  1.00  0.00     0.015 C 
HETATM   25  C   UNL     1     -43.440  56.908 -52.987  1.00  0.00     0.015 C 
ENDBRANCH   8  23
TORSDOF 5
ENDMDL
MODEL 2
REMARK VINA RESULT:      -7.4      2.655      3.379
REMARK  5 active torsions:
REMARK  status: ('A' for Active; 'I' for Inactive)
REMARK    1  A    between atoms: C_7  and  N_8 
REMARK    2  A    between atoms: N_8  and  C_9 
REMARK    3  A    between atoms: C_9  and  C_10 
REMARK       I    between atoms: C_10  and  N_11 
REMARK    4  A    between atoms: N_11  and  C_12 
REMARK    5  A    between atoms: C_16  and  C_17 
ROOT
HETATM    1  C   UNL     1     -40.275  54.091 -48.601  1.00  0.00     0.068 C 
HETATM    2  C   UNL     1     -40.492  53.819 -50.059  1.00  0.00     0.014 A 
HETATM    3  N   UNL     1     -39.940  52.694 -50.543  1.00  0.00    -0.359 N 
HETATM    4  H   UNL     1     -39.411  52.103 -49.903  1.00  0.00     0.166 HD
HETATM    5  C   UNL     1     -40.051  52.279 -51.814  1.00  0.00     0.044 A 
HETATM    6  C   UNL     1     -40.774  53.059 -52.738  1.00  0.00     0.012 A 
HETATM    7  C   UNL     1     -41.330  54.290 -52.287  1.00  0.00     0.030 A 
HETATM    8  C   UNL     1     -41.233  54.657 -50.919  1.00  0.00    -0.010 A 
HETATM    9  C   UNL     1     -39.442  51.073 -52.201  1.00  0.00     0.030 A 
HETATM   10  C   UNL     1     -39.560  50.612 -53.509  1.00  0.00     0.002 A 
HETATM   11  C   UNL     1     -40.295  51.345 -54.431  1.00  0.00     0.001 A 
HETATM   12  C   UNL     1     -40.898  52.548 -54.051  1.00  0.00     0.015 A 
ENDROOT
BRANCH   7  13
HETATM   13  N   UNL     1     -41.957  55.182 -53.175  1.00  0.00    -0.283 NA
HETATM   14  H   UNL     1     -42.610  54.714 -53.810  1.00  0.00     0.128 HD
BRANCH  13  15
HETATM   15  C   UNL     1     -41.051  56.031 -53.975  1.00  0.00     0.195 C 
BRANCH  15  16
HETATM   16  C   UNL     1     -41.846  57.202 -54.567  1.00  0.00     0.231 C 
HETATM   17  N   UNL     1     -42.158  58.192 -53.659  1.00  0.00    -0.356 N 
HETATM   18  H   UNL     1     -42.034  58.001 -52.674  1.00  0.00     0.162 HD
HETATM   19  O   UNL     1     -42.177  57.223 -55.750  1.00  0.00    -0.272 OA
BRANCH  17  20
HETATM   20  C   UNL     1     -43.028  59.311 -54.002  1.00  0.00     0.076 C 
HETATM   21  C   UNL     1     -44.427  59.089 -53.429  1.00  0.00     0.032 C 
HETATM   22  C   UNL     1     -42.427  60.609 -53.471  1.00  0.00     0.032 C 
ENDBRANCH  17  20
ENDBRANCH  15  16
ENDBRANCH  13  15
ENDBRANCH   7  13
BRANCH   8  23
HETATM   23  C   UNL     1     -41.897  55.918 -50.346  1.00  0.00     0.014 C 
HETATM   24  C   UNL     1     -41.014  57.156 -50.516  1.00  0.00     0.015 C 
HETATM   25  C   UNL     1     -43.327  56.181 -50.834  1.00  0.00     0.015 C 
ENDBRANCH   8  23
TORSDOF 5
ENDMDL
MODEL 3
REMARK VINA RESULT:      -7.3      1.710      2.309
REMARK  5 active torsions:
REMARK  status: ('A' for Active; 'I' for Inactive)
REMARK    1  A    between atoms: C_7  and  N_8 
REMARK    2  A    between atoms: N_8  and  C_9 
REMARK    3  A    between atoms: C_9  and  C_10 
REMARK       I    between atoms: C_10  and  N_11 
REMARK    4  A    between atoms: N_11  and  C_12 
REMARK    5  A    between atoms: C_16  and  C_17 
ROOT
HETATM    1  C   UNL     1     -40.547  53.879 -48.970  1.00  0.00     0.068 C 
HETATM    2  C   UNL     1     -40.522  53.467 -50.412  1.00  0.00     0.014 A 
HETATM    3  N   UNL     1     -40.070  52.228 -50.669  1.00  0.00    -0.359 N 
HETATM    4  H   UNL     1     -39.772  51.651 -49.883  1.00  0.00     0.166 HD
HETATM    5  C   UNL     1     -39.999  51.683 -51.892  1.00  0.00     0.044 A 
HETATM    6  C   UNL     1     -40.402  52.439 -53.012  1.00  0.00     0.012 A 
HETATM    7  C   UNL     1     -40.834  53.778 -52.798  1.00  0.00     0.030 A 
HETATM    8  C   UNL     1     -40.945  54.289 -51.478  1.00  0.00    -0.010 A 
HETATM    9  C   UNL     1     -39.524  50.368 -52.035  1.00  0.00     0.030 A 
HETATM   10  C   UNL     1     -39.460  49.775 -53.293  1.00  0.00     0.002 A 
HETATM   11  C   UNL     1     -39.882  50.486 -54.409  1.00  0.00     0.001 A 
HETATM   12  C   UNL     1     -40.351  51.796 -54.271  1.00  0.00     0.015 A 
ENDROOT
BRANCH   7  13
HETATM   13  N   UNL     1     -41.133  54.634 -53.872  1.00  0.00    -0.283 NA
HETATM   14  H   UNL     1     -40.770  55.582 -53.735  1.00  0.00     0.128 HD
BRANCH  13  15
HETATM   15  C   UNL     1     -42.561  54.726 -54.240  1.00  0.00     0.195 C 
BRANCH  15  16
HETATM   16  C   UNL     1     -42.877  56.159 -54.685  1.00  0.00     0.231 C 
HETATM   17  N   UNL     1     -43.740  56.243 -55.758  1.00  0.00    -0.356 N 
HETATM   18  H   UNL     1     -43.935  55.403 -56.287  1.00  0.00     0.162 HD
HETATM   19  O   UNL     1     -42.379  57.133 -54.125  1.00  0.00    -0.272 OA
BRANCH  17  20
HETATM   20  C   UNL     1     -44.045  57.511 -56.410  1.00  0.00     0.076 C 
HETATM   21  C   UNL     1     -44.151  57.317 -57.922  1.00  0.00     0.032 C 
HETATM   22  C   UNL     1     -45.343  58.078 -55.845  1.00  0.00     0.032 C 
ENDBRANCH  17  20
ENDBRANCH  15  16
ENDBRANCH  13  15
ENDBRANCH   7  13
BRANCH   8  23
HETATM   23  C   UNL     1     -41.500  55.687 -51.170  1.00  0.00     0.014 C 
HETATM   24  C   UNL     1     -42.945  55.630 -50.670  1.00  0.00     0.015 C 
HETATM   25  C   UNL     1     -40.626  56.549 -50.251  1.00  0.00     0.015 C 
ENDBRANCH   8  23
TORSDOF 5
ENDMDL
MODEL 4
REMARK VINA RESULT:      -7.2      1.327      1.676
REMARK  5 active torsions:
REMARK  status: ('A' for Active; 'I' for Inactive)
REMARK    1  A    between atoms: C_7  and  N_8 
REMARK    2  A    between atoms: N_8  and  C_9 
REMARK    3  A    between atoms: C_9  and  C_10 
REMARK       I    between atoms: C_10  and  N_11 
REMARK    4  A    between atoms: N_11  and  C_12 
REMARK    5  A    between atoms: C_16  and  C_17 
ROOT
HETATM    1  C   UNL     1     -41.198  55.921 -49.899  1.00  0.00     0.068 C 
HETATM    2  C   UNL     1     -41.011  55.115 -51.150  1.00  0.00     0.014 A 
HETATM    3  N   UNL     1     -40.483  53.889 -50.995  1.00  0.00    -0.359 N 
HETATM    4  H   UNL     1     -40.241  53.584 -50.053  1.00  0.00     0.166 HD
HETATM    5  C   UNL     1     -40.268  53.022 -51.995  1.00  0.00     0.044 A 
HETATM    6  C   UNL     1     -40.588  53.395 -53.316  1.00  0.00     0.012 A 
HETATM    7  C   UNL     1     -41.096  54.706 -53.540  1.00  0.00     0.030 A 
HETATM    8  C   UNL     1     -41.359  55.565 -52.441  1.00  0.00    -0.010 A 
HETATM    9  C   UNL     1     -39.725  51.758 -51.708  1.00  0.00     0.030 A 
HETATM   10  C   UNL     1     -39.511  50.835 -52.727  1.00  0.00     0.002 A 
HETATM   11  C   UNL     1     -39.849  51.164 -54.033  1.00  0.00     0.001 A 
HETATM   12  C   UNL     1     -40.384  52.423 -54.324  1.00  0.00     0.015 A 
ENDROOT
BRANCH   7  13
HETATM   13  N   UNL     1     -41.322  55.194 -54.838  1.00  0.00    -0.283 NA
HETATM   14  H   UNL     1     -41.358  56.217 -54.876  1.00  0.00     0.128 HD
BRANCH  13  15
HETATM   15  C   UNL     1     -42.514  54.658 -55.526  1.00  0.00     0.195 C 
BRANCH  15  16
HETATM   16  C   UNL     1     -42.838  55.539 -56.739  1.00  0.00     0.231 C 
HETATM   17  N   UNL     1     -42.644  56.888 -56.528  1.00  0.00    -0.356 N 
HETATM   18  H   UNL     1     -42.509  57.214 -55.581  1.00  0.00     0.162 HD
HETATM   19  O   UNL     1     -43.248  55.058 -57.793  1.00  0.00    -0.272 OA
BRANCH  17  20
HETATM   20  C   UNL     1     -43.033  57.889 -57.515  1.00  0.00     0.076 C 
HETATM   21  C   UNL     1     -44.490  58.301 -57.306  1.00  0.00     0.032 C 
HETATM   22  C   UNL     1     -42.109  59.099 -57.408  1.00  0.00     0.032 C 
ENDBRANCH  17  20
ENDBRANCH  15  16
ENDBRANCH  13  15
ENDBRANCH   7  13
BRANCH   8  23
HETATM   23  C   UNL     1     -42.002  56.950 -52.602  1.00  0.00     0.014 C 
HETATM   24  C   UNL     1     -41.166  57.867 -53.497  1.00  0.00     0.015 C 
HETATM   25  C   UNL     1     -43.474  56.941 -53.034  1.00  0.00     0.015 C 
ENDBRANCH   8  23
TORSDOF 5
ENDMDL
MODEL 5
REMARK VINA RESULT:      -6.8      2.469      5.120
REMARK  5 active torsions:
REMARK  status: ('A' for Active; 'I' for Inactive)
REMARK    1  A    between atoms: C_7  and  N_8 
REMARK    2  A    between atoms: N_8  and  C_9 
REMARK    3  A    between atoms: C_9  and  C_10 
REMARK       I    between atoms: C_10  and  N_11 
REMARK    4  A    between atoms: N_11  and  C_12 
REMARK    5  A    between atoms: C_16  and  C_17 
ROOT
HETATM    1  C   UNL     1     -42.507  55.120 -56.254  1.00  0.00     0.068 C 
HETATM    2  C   UNL     1     -42.048  54.754 -54.874  1.00  0.00     0.014 A 
HETATM    3  N   UNL     1     -41.345  53.614 -54.764  1.00  0.00    -0.359 N 
HETATM    4  H   UNL     1     -41.171  53.072 -55.610  1.00  0.00     0.166 HD
HETATM    5  C   UNL     1     -40.835  53.143 -53.617  1.00  0.00     0.044 A 
HETATM    6  C   UNL     1     -41.046  53.857 -52.420  1.00  0.00     0.012 A 
HETATM    7  C   UNL     1     -41.834  55.042 -52.475  1.00  0.00     0.030 A 
HETATM    8  C   UNL     1     -42.303  55.528 -53.723  1.00  0.00    -0.010 A 
HETATM    9  C   UNL     1     -40.101  51.945 -53.629  1.00  0.00     0.030 A 
HETATM   10  C   UNL     1     -39.546  51.448 -52.453  1.00  0.00     0.002 A 
HETATM   11  C   UNL     1     -39.710  52.149 -51.266  1.00  0.00     0.001 A 
HETATM   12  C   UNL     1     -40.445  53.338 -51.249  1.00  0.00     0.015 A 
ENDROOT
BRANCH   7  13
HETATM   13  N   UNL     1     -42.193  55.740 -51.309  1.00  0.00    -0.283 NA
HETATM   14  H   UNL     1     -42.998  56.357 -51.448  1.00  0.00     0.128 HD
BRANCH  13  15
HETATM   15  C   UNL     1     -41.111  56.518 -50.671  1.00  0.00     0.195 C 
BRANCH  15  16
HETATM   16  C   UNL     1     -41.251  57.995 -51.064  1.00  0.00     0.231 C 
HETATM   17  N   UNL     1     -42.511  58.518 -50.864  1.00  0.00    -0.356 N 
HETATM   18  H   UNL     1     -43.275  57.881 -50.679  1.00  0.00     0.162 HD
HETATM   19  O   UNL     1     -40.307  58.630 -51.529  1.00  0.00    -0.272 OA
BRANCH  17  20
HETATM   20  C   UNL     1     -42.872  59.859 -51.309  1.00  0.00     0.076 C 
HETATM   21  C   UNL     1     -44.295  59.866 -51.868  1.00  0.00     0.032 C 
HETATM   22  C   UNL     1     -42.745  60.837 -50.145  1.00  0.00     0.032 C 
ENDBRANCH  17  20
ENDBRANCH  15  16
ENDBRANCH  13  15
ENDBRANCH   7  13
BRANCH   8  23
HETATM   23  C   UNL     1     -43.070  56.851 -53.866  1.00  0.00     0.014 C 
HETATM   24  C   UNL     1     -42.278  57.887 -54.666  1.00  0.00     0.015 C 
HETATM   25  C   UNL     1     -44.505  56.720 -54.391  1.00  0.00     0.015 C 
ENDBRANCH   8  23
TORSDOF 5
ENDMDL
MODEL 6
REMARK VINA RESULT:      -6.8      3.014      5.688
REMARK  5 active torsions:
REMARK  status: ('A' for Active; 'I' for Inactive)
REMARK    1  A    between atoms: C_7  and  N_8 
REMARK    2  A    between atoms: N_8  and  C_9 
REMARK    3  A    between atoms: C_9  and  C_10 
REMARK       I    between atoms: C_10  and  N_11 
REMARK    4  A    between atoms: N_11  and  C_12 
REMARK    5  A    between atoms: C_16  and  C_17 
ROOT
HETATM    1  C   UNL     1     -40.360  53.208 -54.926  1.00  0.00     0.068 C 
HETATM    2  C   UNL     1     -40.894  53.797 -53.654  1.00  0.00     0.014 A 
HETATM    3  N   UNL     1     -40.212  53.509 -52.533  1.00  0.00    -0.359 N 
HETATM    4  H   UNL     1     -39.388  52.915 -52.609  1.00  0.00     0.166 HD
HETATM    5  C   UNL     1     -40.528  53.967 -51.312  1.00  0.00     0.044 A 
HETATM    6  C   UNL     1     -41.658  54.795 -51.154  1.00  0.00     0.012 A 
HETATM    7  C   UNL     1     -42.447  55.082 -52.304  1.00  0.00     0.030 A 
HETATM    8  C   UNL     1     -42.037  54.620 -53.582  1.00  0.00    -0.010 A 
HETATM    9  C   UNL     1     -39.728  53.612 -50.214  1.00  0.00     0.030 A 
HETATM   10  C   UNL     1     -40.026  54.091 -48.941  1.00  0.00     0.002 A 
HETATM   11  C   UNL     1     -41.113  54.935 -48.763  1.00  0.00     0.001 A 
HETATM   12  C   UNL     1     -41.915  55.287 -49.853  1.00  0.00     0.015 A 
ENDROOT
BRANCH   7  13
HETATM   13  N   UNL     1     -43.654  55.795 -52.207  1.00  0.00    -0.283 NA
HETATM   14  H   UNL     1     -44.371  55.449 -52.852  1.00  0.00     0.128 HD
BRANCH  13  15
HETATM   15  C   UNL     1     -43.547  57.260 -52.367  1.00  0.00     0.195 C 
BRANCH  15  16
HETATM   16  C   UNL     1     -44.469  57.949 -51.353  1.00  0.00     0.231 C 
HETATM   17  N   UNL     1     -44.346  59.322 -51.315  1.00  0.00    -0.356 N 
HETATM   18  H   UNL     1     -43.555  59.749 -51.779  1.00  0.00     0.162 HD
HETATM   19  O   UNL     1     -45.233  57.306 -50.637  1.00  0.00    -0.272 OA
BRANCH  17  20
HETATM   20  C   UNL     1     -45.035  60.134 -50.319  1.00  0.00     0.076 C 
HETATM   21  C   UNL     1     -44.056  61.104 -49.658  1.00  0.00     0.032 C 
HETATM   22  C   UNL     1     -46.182  60.891 -50.980  1.00  0.00     0.032 C 
ENDBRANCH  17  20
ENDBRANCH  15  16
ENDBRANCH  13  15
ENDBRANCH   7  13
BRANCH   8  23
HETATM   23  C   UNL     1     -42.784  54.978 -54.876  1.00  0.00     0.014 C 
HETATM   24  C   UNL     1     -42.017  56.002 -55.714  1.00  0.00     0.015 C 
HETATM   25  C   UNL     1     -43.227  53.781 -55.726  1.00  0.00     0.015 C 
ENDBRANCH   8  23
TORSDOF 5
ENDMDL
MODEL 7
REMARK VINA RESULT:      -6.7      1.799      2.502
REMARK  5 active torsions:
REMARK  status: ('A' for Active; 'I' for Inactive)
REMARK    1  A    between atoms: C_7  and  N_8 
REMARK    2  A    between atoms: N_8  and  C_9 
REMARK    3  A    between atoms: C_9  and  C_10 
REMARK       I    between atoms: C_10  and  N_11 
REMARK    4  A    between atoms: N_11  and  C_12 
REMARK    5  A    between atoms: C_16  and  C_17 
ROOT
HETATM    1  C   UNL     1     -42.588  58.005 -51.856  1.00  0.00     0.068 C 
HETATM    2  C   UNL     1     -42.112  56.892 -52.741  1.00  0.00     0.014 A 
HETATM    3  N   UNL     1     -41.557  55.836 -52.122  1.00  0.00    -0.359 N 
HETATM    4  H   UNL     1     -41.490  55.854 -51.106  1.00  0.00     0.166 HD
HETATM    5  C   UNL     1     -41.099  54.743 -52.749  1.00  0.00     0.044 A 
HETATM    6  C   UNL     1     -41.172  54.668 -54.155  1.00  0.00     0.012 A 
HETATM    7  C   UNL     1     -41.699  55.786 -54.860  1.00  0.00     0.030 A 
HETATM    8  C   UNL     1     -42.223  56.896 -54.147  1.00  0.00    -0.010 A 
HETATM    9  C   UNL     1     -40.553  53.692 -51.993  1.00  0.00     0.030 A 
HETATM   10  C   UNL     1     -40.090  52.539 -52.620  1.00  0.00     0.002 A 
HETATM   11  C   UNL     1     -40.180  52.425 -54.000  1.00  0.00     0.001 A 
HETATM   12  C   UNL     1     -40.717  53.471 -54.758  1.00  0.00     0.015 A 
ENDROOT
BRANCH   7  13
HETATM   13  N   UNL     1     -41.690  55.839 -56.265  1.00  0.00    -0.283 NA
HETATM   14  H   UNL     1     -41.572  56.791 -56.625  1.00  0.00     0.128 HD
BRANCH  13  15
HETATM   15  C   UNL     1     -42.854  55.225 -56.936  1.00  0.00     0.195 C 
BRANCH  15  16
HETATM   16  C   UNL     1     -43.345  56.156 -58.052  1.00  0.00     0.231 C 
HETATM   17  N   UNL     1     -44.560  56.756 -57.797  1.00  0.00    -0.356 N 
HETATM   18  H   UNL     1     -45.120  56.407 -57.031  1.00  0.00     0.162 HD
HETATM   19  O   UNL     1     -42.697  56.323 -59.082  1.00  0.00    -0.272 OA
BRANCH  17  20
HETATM   20  C   UNL     1     -45.252  57.560 -58.798  1.00  0.00     0.076 C 
HETATM   21  C   UNL     1     -46.172  56.677 -59.642  1.00  0.00     0.032 C 
HETATM   22  C   UNL     1     -46.047  58.664 -58.109  1.00  0.00     0.032 C 
ENDBRANCH  17  20
ENDBRANCH  15  16
ENDBRANCH  13  15
ENDBRANCH   7  13
BRANCH   8  23
HETATM   23  C   UNL     1     -42.898  58.088 -54.841  1.00  0.00     0.014 C 
HETATM   24  C   UNL     1     -44.384  58.187 -54.491  1.00  0.00     0.015 C 
HETATM   25  C   UNL     1     -42.191  59.437 -54.657  1.00  0.00     0.015 C 
ENDBRANCH   8  23
TORSDOF 5
ENDMDL
MODEL 8
REMARK VINA RESULT:      -6.7      1.892      4.315
REMARK  5 active torsions:
REMARK  status: ('A' for Active; 'I' for Inactive)
REMARK    1  A    between atoms: C_7  and  N_8 
REMARK    2  A    between atoms: N_8  and  C_9 
REMARK    3  A    between atoms: C_9  and  C_10 
REMARK       I    between atoms: C_10  and  N_11 
REMARK    4  A    between atoms: N_11  and  C_12 
REMARK    5  A    between atoms: C_16  and  C_17 
ROOT
HETATM    1  C   UNL     1     -39.388  49.864 -51.535  1.00  0.00     0.068 C 
HETATM    2  C   UNL     1     -39.948  51.255 -51.588  1.00  0.00     0.014 A 
HETATM    3  N   UNL     1     -40.079  51.888 -50.411  1.00  0.00    -0.359 N 
HETATM    4  H   UNL     1     -39.798  51.395 -49.564  1.00  0.00     0.166 HD
HETATM    5  C   UNL     1     -40.538  53.141 -50.268  1.00  0.00     0.044 A 
HETATM    6  C   UNL     1     -40.936  53.867 -51.409  1.00  0.00     0.012 A 
HETATM    7  C   UNL     1     -40.870  53.218 -52.675  1.00  0.00     0.030 A 
HETATM    8  C   UNL     1     -40.324  51.912 -52.778  1.00  0.00    -0.010 A 
HETATM    9  C   UNL     1     -40.614  53.705 -48.984  1.00  0.00     0.030 A 
HETATM   10  C   UNL     1     -41.068  55.010 -48.814  1.00  0.00     0.002 A 
HETATM   11  C   UNL     1     -41.435  55.759 -49.924  1.00  0.00     0.001 A 
HETATM   12  C   UNL     1     -41.366  55.199 -51.203  1.00  0.00     0.015 A 
ENDROOT
BRANCH   7  13
HETATM   13  N   UNL     1     -41.365  53.830 -53.840  1.00  0.00    -0.283 NA
HETATM   14  H   UNL     1     -41.715  53.153 -54.524  1.00  0.00     0.128 HD
BRANCH  13  15
HETATM   15  C   UNL     1     -40.433  54.749 -54.524  1.00  0.00     0.195 C 
BRANCH  15  16
HETATM   16  C   UNL     1     -41.151  56.075 -54.811  1.00  0.00     0.231 C 
HETATM   17  N   UNL     1     -41.896  56.077 -55.973  1.00  0.00    -0.356 N 
HETATM   18  H   UNL     1     -41.763  55.322 -56.632  1.00  0.00     0.162 HD
HETATM   19  O   UNL     1     -41.043  57.042 -54.061  1.00  0.00    -0.272 OA
BRANCH  17  20
HETATM   20  C   UNL     1     -42.530  57.286 -56.483  1.00  0.00     0.076 C 
HETATM   21  C   UNL     1     -42.523  57.284 -58.011  1.00  0.00     0.032 C 
HETATM   22  C   UNL     1     -43.957  57.380 -55.950  1.00  0.00     0.032 C 
ENDBRANCH  17  20
ENDBRANCH  15  16
ENDBRANCH  13  15
ENDBRANCH   7  13
BRANCH   8  23
HETATM   23  C   UNL     1     -40.130  51.195 -54.122  1.00  0.00     0.014 C 
HETATM   24  C   UNL     1     -38.704  50.666 -54.287  1.00  0.00     0.015 C 
HETATM   25  C   UNL     1     -41.167  50.111 -54.440  1.00  0.00     0.015 C 
ENDBRANCH   8  23
TORSDOF 5
ENDMDL
MODEL 9
REMARK VINA RESULT:      -6.4      1.880      4.454
REMARK  5 active torsions:
REMARK  status: ('A' for Active; 'I' for Inactive)
REMARK    1  A    between atoms: C_7  and  N_8 
REMARK    2  A    between atoms: N_8  and  C_9 
REMARK    3  A    between atoms: C_9  and  C_10 
REMARK       I    between atoms: C_10  and  N_11 
REMARK    4  A    between atoms: N_11  and  C_12 
REMARK    5  A    between atoms: C_16  and  C_17 
ROOT
HETATM    1  C   UNL     1     -40.827  54.297 -50.915  1.00  0.00     0.068 C 
HETATM    2  C   UNL     1     -41.144  55.478 -51.783  1.00  0.00     0.014 A 
HETATM    3  N   UNL     1     -41.363  56.642 -51.148  1.00  0.00    -0.359 N 
HETATM    4  H   UNL     1     -41.305  56.654 -50.131  1.00  0.00     0.166 HD
HETATM    5  C   UNL     1     -41.635  57.804 -51.762  1.00  0.00     0.044 A 
HETATM    6  C   UNL     1     -41.722  57.840 -53.168  1.00  0.00     0.012 A 
HETATM    7  C   UNL     1     -41.555  56.621 -53.884  1.00  0.00     0.030 A 
HETATM    8  C   UNL     1     -41.213  55.430 -53.191  1.00  0.00    -0.010 A 
HETATM    9  C   UNL     1     -41.828  58.962 -50.991  1.00  0.00     0.030 A 
HETATM   10  C   UNL     1     -42.092  60.182 -51.607  1.00  0.00     0.002 A 
HETATM   11  C   UNL     1     -42.151  60.253 -52.992  1.00  0.00     0.001 A 
HETATM   12  C   UNL     1     -41.964  59.101 -53.763  1.00  0.00     0.015 A 
ENDROOT
BRANCH   7  13
HETATM   13  N   UNL     1     -41.751  56.552 -55.274  1.00  0.00    -0.283 NA
HETATM   14  H   UNL     1     -41.251  57.288 -55.781  1.00  0.00     0.128 HD
BRANCH  13  15
HETATM   15  C   UNL     1     -43.158  56.546 -55.723  1.00  0.00     0.195 C 
BRANCH  15  16
HETATM   16  C   UNL     1     -43.214  56.892 -57.217  1.00  0.00     0.231 C 
HETATM   17  N   UNL     1     -44.331  56.413 -57.869  1.00  0.00    -0.356 N 
HETATM   18  H   UNL     1     -44.907  55.727 -57.399  1.00  0.00     0.162 HD
HETATM   19  O   UNL     1     -42.318  57.530 -57.764  1.00  0.00    -0.272 OA
BRANCH  17  20
HETATM   20  C   UNL     1     -44.489  56.519 -59.314  1.00  0.00     0.076 C 
HETATM   21  C   UNL     1     -44.037  55.227 -59.993  1.00  0.00     0.032 C 
HETATM   22  C   UNL     1     -45.946  56.824 -59.649  1.00  0.00     0.032 C 
ENDBRANCH  17  20
ENDBRANCH  15  16
ENDBRANCH  13  15
ENDBRANCH   7  13
BRANCH   8  23
HETATM   23  C   UNL     1     -40.919  54.105 -53.909  1.00  0.00     0.014 C 
HETATM   24  C   UNL     1     -42.202  53.364 -54.290  1.00  0.00     0.015 C 
HETATM   25  C   UNL     1     -39.959  54.208 -55.102  1.00  0.00     0.015 C 
ENDBRANCH   8  23
TORSDOF 5
ENDMDL
MODEL 10
REMARK VINA RESULT:      -6.4      1.901      2.586
REMARK  5 active torsions:
REMARK  status: ('A' for Active; 'I' for Inactive)
REMARK    1  A    between atoms: C_7  and  N_8 
REMARK    2  A    between atoms: N_8  and  C_9 
REMARK    3  A    between atoms: C_9  and  C_10 
REMARK       I    between atoms: C_10  and  N_11 
REMARK    4  A    between atoms: N_11  and  C_12 
REMARK    5  A    between atoms: C_16  and  C_17 
ROOT
HETATM    1  C   UNL     1     -41.278  59.304 -50.483  1.00  0.00     0.068 C 
HETATM    2  C   UNL     1     -41.397  57.906 -51.013  1.00  0.00     0.014 A 
HETATM    3  N   UNL     1     -40.781  56.946 -50.304  1.00  0.00    -0.359 N 
HETATM    4  H   UNL     1     -40.275  57.218 -49.463  1.00  0.00     0.166 HD
HETATM    5  C   UNL     1     -40.801  55.641 -50.614  1.00  0.00     0.044 A 
HETATM    6  C   UNL     1     -41.491  55.212 -51.765  1.00  0.00     0.012 A 
HETATM    7  C   UNL     1     -42.112  56.199 -52.582  1.00  0.00     0.030 A 
HETATM    8  C   UNL     1     -42.110  57.561 -52.180  1.00  0.00    -0.010 A 
HETATM    9  C   UNL     1     -40.133  54.725 -49.784  1.00  0.00     0.030 A 
HETATM   10  C   UNL     1     -40.156  53.364 -50.074  1.00  0.00     0.002 A 
HETATM   11  C   UNL     1     -40.856  52.911 -51.184  1.00  0.00     0.001 A 
HETATM   12  C   UNL     1     -41.519  53.820 -52.016  1.00  0.00     0.015 A 
ENDROOT
BRANCH   7  13
HETATM   13  N   UNL     1     -42.711  55.866 -53.810  1.00  0.00    -0.283 NA
HETATM   14  H   UNL     1     -43.298  55.028 -53.749  1.00  0.00     0.128 HD
BRANCH  13  15
HETATM   15  C   UNL     1     -41.788  55.711 -54.952  1.00  0.00     0.195 C 
BRANCH  15  16
HETATM   16  C   UNL     1     -42.586  55.302 -56.196  1.00  0.00     0.231 C 
HETATM   17  N   UNL     1     -42.506  56.199 -57.242  1.00  0.00    -0.356 N 
HETATM   18  H   UNL     1     -42.120  57.116 -57.063  1.00  0.00     0.162 HD
HETATM   19  O   UNL     1     -43.246  54.266 -56.227  1.00  0.00    -0.272 OA
BRANCH  17  20
HETATM   20  C   UNL     1     -43.308  56.052 -58.451  1.00  0.00     0.076 C 
HETATM   21  C   UNL     1     -44.371  57.148 -58.516  1.00  0.00     0.032 C 
HETATM   22  C   UNL     1     -42.402  56.106 -59.676  1.00  0.00     0.032 C 
ENDBRANCH  17  20
ENDBRANCH  15  16
ENDBRANCH  13  15
ENDBRANCH   7  13
BRANCH   8  23
HETATM   23  C   UNL     1     -42.847  58.659 -52.960  1.00  0.00     0.014 C 
HETATM   24  C   UNL     1     -42.036  59.150 -54.161  1.00  0.00     0.015 C 
HETATM   25  C   UNL     1     -44.288  58.321 -53.362  1.00  0.00     0.015 C 
ENDBRANCH   8  23
TORSDOF 5
ENDMDL
