MODEL 1
REMARK VINA RESULT:      -9.1      0.000      0.000
REMARK  5 active torsions:
REMARK  status: ('A' for Active; 'I' for Inactive)
REMARK    1  A    between atoms: C_7  and  C_8 
REMARK    2  A    between atoms: C_8  and  O_9 
REMARK    3  A    between atoms: N_12  and  C_13 
REMARK    4  A    between atoms: C_13  and  C_14 
REMARK    5  A    between atoms: C_14  and  C_15 
ROOT
HETATM    1  C   UNL     1     -43.184  56.222 -53.079  1.00  0.00     0.199 A 
HETATM    2  C   UNL     1     -42.707  54.837 -52.557  1.00  0.00     0.269 A 
HETATM    3  O   UNL     1     -43.206  53.753 -52.834  1.00  0.00    -0.269 OA
HETATM    4  N   UNL     1     -41.692  55.069 -51.607  1.00  0.00    -0.314 N 
HETATM    5  C   UNL     1     -41.470  56.448 -51.450  1.00  0.00     0.047 A 
HETATM    6  C   UNL     1     -42.308  57.173 -52.306  1.00  0.00     0.017 A 
HETATM    7  C   UNL     1     -40.594  57.092 -50.591  1.00  0.00     0.030 A 
HETATM    8  C   UNL     1     -40.573  58.490 -50.594  1.00  0.00     0.002 A 
HETATM    9  C   UNL     1     -41.421  59.220 -51.440  1.00  0.00     0.001 A 
HETATM   10  C   UNL     1     -42.299  58.563 -52.302  1.00  0.00     0.013 A 
ENDROOT
BRANCH   1  11
HETATM   11  C   UNL     1     -42.958  56.482 -54.550  1.00  0.00     0.025 A 
HETATM   12  C   UNL     1     -41.866  56.045 -55.306  1.00  0.00     0.016 A 
HETATM   13  C   UNL     1     -40.669  55.241 -54.934  1.00  0.00     0.069 C 
HETATM   14  N   UNL     1     -42.036  56.476 -56.595  1.00  0.00    -0.359 N 
HETATM   15  H   UNL     1     -41.395  56.300 -57.356  1.00  0.00     0.166 HD
HETATM   16  C   UNL     1     -43.218  57.157 -56.728  1.00  0.00     0.043 A 
HETATM   17  C   UNL     1     -43.823  57.187 -55.471  1.00  0.00     0.003 A 
HETATM   18  C   UNL     1     -43.786  57.736 -57.869  1.00  0.00     0.030 A 
HETATM   19  C   UNL     1     -45.073  57.838 -55.364  1.00  0.00     0.014 A 
HETATM   20  C   UNL     1     -45.657  58.423 -56.495  1.00  0.00     0.001 A 
HETATM   21  C   UNL     1     -45.021  58.372 -57.731  1.00  0.00     0.002 A 
ENDBRANCH   1  11
BRANCH   1  22
HETATM   22  O   UNL     1     -44.545  56.393 -52.681  1.00  0.00    -0.371 OA
HETATM   23  H   UNL     1     -44.483  56.802 -51.798  1.00  0.00     0.212 HD
ENDBRANCH   1  22
BRANCH   4  24
HETATM   24  C   UNL     1     -41.259  54.056 -50.664  1.00  0.00     0.137 C 
BRANCH  24  25
HETATM   25  C   UNL     1     -39.832  53.551 -50.896  1.00  0.00     0.058 C 
BRANCH  25  26
HETATM   26  C   UNL     1     -39.860  52.234 -51.640  1.00  0.00    -0.057 A 
HETATM   27  C   UNL     1     -39.783  51.025 -50.932  1.00  0.00     0.007 A 
HETATM   28  C   UNL     1     -39.733  49.808 -51.614  1.00  0.00     0.001 A 
HETATM   29  C   UNL     1     -39.764  49.788 -53.007  1.00  0.00     0.000 A 
HETATM   30  C   UNL     1     -39.848  50.983 -53.719  1.00  0.00     0.001 A 
HETATM   31  C   UNL     1     -39.894  52.202 -53.039  1.00  0.00     0.007 A 
ENDBRANCH  25  26
ENDBRANCH  24  25
ENDBRANCH   4  24
TORSDOF 5
ENDMDL
MODEL 2
REMARK VINA RESULT:      -8.8      1.331      2.267
REMARK  5 active torsions:
REMARK  status: ('A' for Active; 'I' for Inactive)
REMARK    1  A    between atoms: C_7  and  C_8 
REMARK    2  A    between atoms: C_8  and  O_9 
REMARK    3  A    between atoms: N_12  and  C_13 
REMARK    4  A    between atoms: C_13  and  C_14 
REMARK    5  A    between atoms: C_14  and  C_15 
ROOT
HETATM    1  C   UNL     1     -43.882  56.794 -51.957  1.00  0.00     0.199 A 
HETATM    2  C   UNL     1     -43.352  55.352 -51.715  1.00  0.00     0.269 A 
HETATM    3  O   UNL     1     -43.970  54.314 -51.922  1.00  0.00    -0.269 OA
HETATM    4  N   UNL     1     -42.095  55.463 -51.089  1.00  0.00    -0.314 N 
HETATM    5  C   UNL     1     -41.760  56.814 -50.891  1.00  0.00     0.047 A 
HETATM    6  C   UNL     1     -42.769  57.641 -51.400  1.00  0.00     0.017 A 
HETATM    7  C   UNL     1     -40.639  57.347 -50.276  1.00  0.00     0.030 A 
HETATM    8  C   UNL     1     -40.541  58.739 -50.170  1.00  0.00     0.002 A 
HETATM    9  C   UNL     1     -41.557  59.569 -50.667  1.00  0.00     0.001 A 
HETATM   10  C   UNL     1     -42.682  59.023 -51.283  1.00  0.00     0.013 A 
ENDROOT
BRANCH   1  11
HETATM   11  C   UNL     1     -44.079  57.186 -53.403  1.00  0.00     0.025 A 
HETATM   12  C   UNL     1     -44.768  58.310 -53.867  1.00  0.00     0.016 A 
HETATM   13  C   UNL     1     -45.471  59.403 -53.139  1.00  0.00     0.069 C 
HETATM   14  N   UNL     1     -44.713  58.314 -55.235  1.00  0.00    -0.359 N 
HETATM   15  H   UNL     1     -45.128  59.016 -55.832  1.00  0.00     0.166 HD
HETATM   16  C   UNL     1     -43.985  57.248 -55.695  1.00  0.00     0.043 A 
HETATM   17  C   UNL     1     -43.574  56.515 -54.581  1.00  0.00     0.003 A 
HETATM   18  C   UNL     1     -43.663  56.894 -57.011  1.00  0.00     0.030 A 
HETATM   19  C   UNL     1     -42.792  55.360 -54.813  1.00  0.00     0.014 A 
HETATM   20  C   UNL     1     -42.460  54.991 -56.123  1.00  0.00     0.001 A 
HETATM   21  C   UNL     1     -42.890  55.749 -57.206  1.00  0.00     0.002 A 
ENDBRANCH   1  11
BRANCH   1  22
HETATM   22  O   UNL     1     -45.058  56.965 -51.165  1.00  0.00    -0.371 OA
HETATM   23  H   UNL     1     -45.148  57.932 -51.082  1.00  0.00     0.212 HD
ENDBRANCH   1  22
BRANCH   4  24
HETATM   24  C   UNL     1     -41.464  54.353 -50.401  1.00  0.00     0.137 C 
BRANCH  24  25
HETATM   25  C   UNL     1     -40.049  54.032 -50.893  1.00  0.00     0.058 C 
BRANCH  25  26
HETATM   26  C   UNL     1     -40.102  52.981 -51.980  1.00  0.00    -0.057 A 
HETATM   27  C   UNL     1     -39.642  51.681 -51.723  1.00  0.00     0.007 A 
HETATM   28  C   UNL     1     -39.616  50.725 -52.740  1.00  0.00     0.001 A 
HETATM   29  C   UNL     1     -40.054  51.059 -54.021  1.00  0.00     0.000 A 
HETATM   30  C   UNL     1     -40.519  52.346 -54.284  1.00  0.00     0.001 A 
HETATM   31  C   UNL     1     -40.541  53.304 -53.269  1.00  0.00     0.007 A 
ENDBRANCH  25  26
ENDBRANCH  24  25
ENDBRANCH   4  24
TORSDOF 5
ENDMDL
MODEL 3
REMARK VINA RESULT:      -8.7      2.262      3.137
REMARK  5 active torsions:
REMARK  status: ('A' for Active; 'I' for Inactive)
REMARK    1  A    between atoms: C_7  and  C_8 
REMARK    2  A    between atoms: C_8  and  O_9 
REMARK    3  A    between atoms: N_12  and  C_13 
REMARK    4  A    between atoms: C_13  and  C_14 
REMARK    5  A    between atoms: C_14  and  C_15 
ROOT
HETATM    1  C   UNL     1     -43.704  56.831 -54.260  1.00  0.00     0.199 A 
HETATM    2  C   UNL     1     -42.865  55.827 -55.101  1.00  0.00     0.269 A 
HETATM    3  O   UNL     1     -42.718  55.853 -56.317  1.00  0.00    -0.269 OA
HETATM    4  N   UNL     1     -42.425  54.810 -54.230  1.00  0.00    -0.314 N 
HETATM    5  C   UNL     1     -42.895  55.041 -52.925  1.00  0.00     0.047 A 
HETATM    6  C   UNL     1     -43.638  56.226 -52.882  1.00  0.00     0.017 A 
HETATM    7  C   UNL     1     -42.722  54.262 -51.792  1.00  0.00     0.030 A 
HETATM    8  C   UNL     1     -43.317  54.687 -50.600  1.00  0.00     0.002 A 
HETATM    9  C   UNL     1     -44.074  55.868 -50.557  1.00  0.00     0.001 A 
HETATM   10  C   UNL     1     -44.243  56.645 -51.703  1.00  0.00     0.013 A 
ENDROOT
BRANCH   1  11
HETATM   11  C   UNL     1     -43.152  58.235 -54.173  1.00  0.00     0.025 A 
HETATM   12  C   UNL     1     -41.841  58.586 -53.835  1.00  0.00     0.016 A 
HETATM   13  C   UNL     1     -40.658  57.753 -53.485  1.00  0.00     0.069 C 
HETATM   14  N   UNL     1     -41.738  59.951 -53.878  1.00  0.00    -0.359 N 
HETATM   15  H   UNL     1     -40.899  60.477 -53.679  1.00  0.00     0.166 HD
HETATM   16  C   UNL     1     -42.926  60.516 -54.262  1.00  0.00     0.043 A 
HETATM   17  C   UNL     1     -43.838  59.477 -54.452  1.00  0.00     0.003 A 
HETATM   18  C   UNL     1     -43.245  61.866 -54.456  1.00  0.00     0.030 A 
HETATM   19  C   UNL     1     -45.145  59.824 -54.864  1.00  0.00     0.014 A 
HETATM   20  C   UNL     1     -45.482  61.169 -55.064  1.00  0.00     0.001 A 
HETATM   21  C   UNL     1     -44.544  62.175 -54.863  1.00  0.00     0.002 A 
ENDBRANCH   1  11
BRANCH   1  22
HETATM   22  O   UNL     1     -45.048  56.785 -54.740  1.00  0.00    -0.371 OA
HETATM   23  H   UNL     1     -45.569  56.525 -53.958  1.00  0.00     0.212 HD
ENDBRANCH   1  22
BRANCH   4  24
HETATM   24  C   UNL     1     -41.923  53.536 -54.707  1.00  0.00     0.137 C 
BRANCH  24  25
HETATM   25  C   UNL     1     -40.416  53.343 -54.515  1.00  0.00     0.058 C 
BRANCH  25  26
HETATM   26  C   UNL     1     -40.149  52.085 -53.719  1.00  0.00    -0.057 A 
HETATM   27  C   UNL     1     -39.880  52.167 -52.344  1.00  0.00     0.007 A 
HETATM   28  C   UNL     1     -39.559  51.020 -51.616  1.00  0.00     0.001 A 
HETATM   29  C   UNL     1     -39.508  49.782 -52.253  1.00  0.00     0.000 A 
HETATM   30  C   UNL     1     -39.781  49.689 -53.617  1.00  0.00     0.001 A 
HETATM   31  C   UNL     1     -40.098  50.835 -54.348  1.00  0.00     0.007 A 
ENDBRANCH  25  26
ENDBRANCH  24  25
ENDBRANCH   4  24
TORSDOF 5
ENDMDL
MODEL 4
REMARK VINA RESULT:      -8.6     15.418     17.206
REMARK  5 active torsions:
REMARK  status: ('A' for Active; 'I' for Inactive)
REMARK    1  A    between atoms: C_7  and  C_8 
REMARK    2  A    between atoms: C_8  and  O_9 
REMARK    3  A    between atoms: N_12  and  C_13 
REMARK    4  A    between atoms: C_13  and  C_14 
REMARK    5  A    between atoms: C_14  and  C_15 
ROOT
HETATM    1  C   UNL     1     -35.022  41.464 -55.210  1.00  0.00     0.199 A 
HETATM    2  C   UNL     1     -35.457  41.577 -53.720  1.00  0.00     0.269 A 
HETATM    3  O   UNL     1     -36.423  42.202 -53.298  1.00  0.00    -0.269 OA
HETATM    4  N   UNL     1     -34.465  40.948 -52.941  1.00  0.00    -0.314 N 
HETATM    5  C   UNL     1     -33.435  40.453 -53.761  1.00  0.00     0.047 A 
HETATM    6  C   UNL     1     -33.721  40.714 -55.106  1.00  0.00     0.017 A 
HETATM    7  C   UNL     1     -32.265  39.812 -53.388  1.00  0.00     0.030 A 
HETATM    8  C   UNL     1     -31.368  39.435 -54.393  1.00  0.00     0.002 A 
HETATM    9  C   UNL     1     -31.646  39.707 -55.742  1.00  0.00     0.001 A 
HETATM   10  C   UNL     1     -32.826  40.353 -56.107  1.00  0.00     0.013 A 
ENDROOT
BRANCH   1  11
HETATM   11  C   UNL     1     -35.944  40.667 -56.103  1.00  0.00     0.025 A 
HETATM   12  C   UNL     1     -36.449  39.390 -55.837  1.00  0.00     0.016 A 
HETATM   13  C   UNL     1     -36.259  38.479 -54.676  1.00  0.00     0.069 C 
HETATM   14  N   UNL     1     -37.251  39.020 -56.884  1.00  0.00    -0.359 N 
HETATM   15  H   UNL     1     -37.746  38.142 -56.954  1.00  0.00     0.166 HD
HETATM   16  C   UNL     1     -37.321  40.018 -57.820  1.00  0.00     0.043 A 
HETATM   17  C   UNL     1     -36.514  41.064 -57.372  1.00  0.00     0.003 A 
HETATM   18  C   UNL     1     -38.043  40.062 -59.019  1.00  0.00     0.030 A 
HETATM   19  C   UNL     1     -36.436  42.221 -58.181  1.00  0.00     0.014 A 
HETATM   20  C   UNL     1     -37.153  42.283 -59.383  1.00  0.00     0.001 A 
HETATM   21  C   UNL     1     -37.945  41.218 -59.795  1.00  0.00     0.002 A 
ENDBRANCH   1  11
BRANCH   1  22
HETATM   22  O   UNL     1     -34.777  42.786 -55.693  1.00  0.00    -0.371 OA
HETATM   23  H   UNL     1     -35.049  42.749 -56.628  1.00  0.00     0.212 HD
ENDBRANCH   1  22
BRANCH   4  24
HETATM   24  C   UNL     1     -34.346  41.156 -51.512  1.00  0.00     0.137 C 
BRANCH  24  25
HETATM   25  C   UNL     1     -34.883  40.000 -50.662  1.00  0.00     0.058 C 
BRANCH  25  26
HETATM   26  C   UNL     1     -33.827  39.537 -49.684  1.00  0.00    -0.057 A 
HETATM   27  C   UNL     1     -34.115  38.514 -48.769  1.00  0.00     0.007 A 
HETATM   28  C   UNL     1     -33.172  38.131 -47.814  1.00  0.00     0.001 A 
HETATM   29  C   UNL     1     -31.931  38.764 -47.768  1.00  0.00     0.000 A 
HETATM   30  C   UNL     1     -31.632  39.777 -48.677  1.00  0.00     0.001 A 
HETATM   31  C   UNL     1     -32.576  40.164 -49.631  1.00  0.00     0.007 A 
ENDBRANCH  25  26
ENDBRANCH  24  25
ENDBRANCH   4  24
TORSDOF 5
ENDMDL
MODEL 5
REMARK VINA RESULT:      -8.5      2.222      4.017
REMARK  5 active torsions:
REMARK  status: ('A' for Active; 'I' for Inactive)
REMARK    1  A    between atoms: C_7  and  C_8 
REMARK    2  A    between atoms: C_8  and  O_9 
REMARK    3  A    between atoms: N_12  and  C_13 
REMARK    4  A    between atoms: C_13  and  C_14 
REMARK    5  A    between atoms: C_14  and  C_15 
ROOT
HETATM    1  C   UNL     1     -41.950  57.192 -52.407  1.00  0.00     0.199 A 
HETATM    2  C   UNL     1     -41.696  56.185 -51.250  1.00  0.00     0.269 A 
HETATM    3  O   UNL     1     -41.272  56.462 -50.134  1.00  0.00    -0.269 OA
HETATM    4  N   UNL     1     -41.908  54.889 -51.763  1.00  0.00    -0.314 N 
HETATM    5  C   UNL     1     -42.260  54.949 -53.123  1.00  0.00     0.047 A 
HETATM    6  C   UNL     1     -42.316  56.281 -53.549  1.00  0.00     0.017 A 
HETATM    7  C   UNL     1     -42.509  53.905 -53.999  1.00  0.00     0.030 A 
HETATM    8  C   UNL     1     -42.814  54.216 -55.329  1.00  0.00     0.002 A 
HETATM    9  C   UNL     1     -42.858  55.550 -55.762  1.00  0.00     0.001 A 
HETATM   10  C   UNL     1     -42.605  56.594 -54.872  1.00  0.00     0.013 A 
ENDROOT
BRANCH   1  11
HETATM   11  C   UNL     1     -43.096  58.154 -52.199  1.00  0.00     0.025 A 
HETATM   12  C   UNL     1     -44.263  57.901 -51.471  1.00  0.00     0.016 A 
HETATM   13  C   UNL     1     -44.712  56.697 -50.719  1.00  0.00     0.069 C 
HETATM   14  N   UNL     1     -45.047  59.023 -51.512  1.00  0.00    -0.359 N 
HETATM   15  H   UNL     1     -45.949  59.119 -51.067  1.00  0.00     0.166 HD
HETATM   16  C   UNL     1     -44.428  60.023 -52.216  1.00  0.00     0.043 A 
HETATM   17  C   UNL     1     -43.207  59.518 -52.667  1.00  0.00     0.003 A 
HETATM   18  C   UNL     1     -44.864  61.328 -52.475  1.00  0.00     0.030 A 
HETATM   19  C   UNL     1     -42.382  60.384 -53.419  1.00  0.00     0.014 A 
HETATM   20  C   UNL     1     -42.801  61.694 -53.687  1.00  0.00     0.001 A 
HETATM   21  C   UNL     1     -44.026  62.158 -53.221  1.00  0.00     0.002 A 
ENDBRANCH   1  11
BRANCH   1  22
HETATM   22  O   UNL     1     -40.713  57.847 -52.694  1.00  0.00    -0.371 OA
HETATM   23  H   UNL     1     -40.906  58.377 -53.489  1.00  0.00     0.212 HD
ENDBRANCH   1  22
BRANCH   4  24
HETATM   24  C   UNL     1     -41.433  53.696 -51.091  1.00  0.00     0.137 C 
BRANCH  24  25
HETATM   25  C   UNL     1     -39.948  53.395 -51.319  1.00  0.00     0.058 C 
BRANCH  25  26
HETATM   26  C   UNL     1     -39.785  52.043 -51.976  1.00  0.00    -0.057 A 
HETATM   27  C   UNL     1     -39.796  51.934 -53.374  1.00  0.00     0.007 A 
HETATM   28  C   UNL     1     -39.721  50.683 -53.988  1.00  0.00     0.001 A 
HETATM   29  C   UNL     1     -39.630  49.530 -53.211  1.00  0.00     0.000 A 
HETATM   30  C   UNL     1     -39.612  49.627 -51.820  1.00  0.00     0.001 A 
HETATM   31  C   UNL     1     -39.691  50.878 -51.204  1.00  0.00     0.007 A 
ENDBRANCH  25  26
ENDBRANCH  24  25
ENDBRANCH   4  24
TORSDOF 5
ENDMDL
MODEL 6
REMARK VINA RESULT:      -8.5      1.942      6.602
REMARK  5 active torsions:
REMARK  status: ('A' for Active; 'I' for Inactive)
REMARK    1  A    between atoms: C_7  and  C_8 
REMARK    2  A    between atoms: C_8  and  O_9 
REMARK    3  A    between atoms: N_12  and  C_13 
REMARK    4  A    between atoms: C_13  and  C_14 
REMARK    5  A    between atoms: C_14  and  C_15 
ROOT
HETATM    1  C   UNL     1     -42.676  54.651 -52.469  1.00  0.00     0.199 A 
HETATM    2  C   UNL     1     -43.255  55.181 -53.812  1.00  0.00     0.269 A 
HETATM    3  O   UNL     1     -44.221  55.925 -53.935  1.00  0.00    -0.269 OA
HETATM    4  N   UNL     1     -42.557  54.543 -54.856  1.00  0.00    -0.314 N 
HETATM    5  C   UNL     1     -41.599  53.653 -54.336  1.00  0.00     0.047 A 
HETATM    6  C   UNL     1     -41.615  53.690 -52.937  1.00  0.00     0.017 A 
HETATM    7  C   UNL     1     -40.742  52.808 -55.021  1.00  0.00     0.030 A 
HETATM    8  C   UNL     1     -39.891  51.984 -54.277  1.00  0.00     0.002 A 
HETATM    9  C   UNL     1     -39.913  52.009 -52.874  1.00  0.00     0.001 A 
HETATM   10  C   UNL     1     -40.781  52.863 -52.194  1.00  0.00     0.013 A 
ENDROOT
BRANCH   1  11
HETATM   11  C   UNL     1     -42.007  55.683 -51.591  1.00  0.00     0.025 A 
HETATM   12  C   UNL     1     -41.768  55.567 -50.218  1.00  0.00     0.016 A 
HETATM   13  C   UNL     1     -42.066  54.471 -49.256  1.00  0.00     0.069 C 
HETATM   14  N   UNL     1     -41.136  56.707 -49.795  1.00  0.00    -0.359 N 
HETATM   15  H   UNL     1     -40.844  56.890 -48.845  1.00  0.00     0.166 HD
HETATM   16  C   UNL     1     -40.921  57.561 -50.844  1.00  0.00     0.043 A 
HETATM   17  C   UNL     1     -41.455  56.961 -51.985  1.00  0.00     0.003 A 
HETATM   18  C   UNL     1     -40.289  58.811 -50.856  1.00  0.00     0.030 A 
HETATM   19  C   UNL     1     -41.341  57.663 -53.206  1.00  0.00     0.014 A 
HETATM   20  C   UNL     1     -40.711  58.915 -53.238  1.00  0.00     0.001 A 
HETATM   21  C   UNL     1     -40.193  59.479 -52.077  1.00  0.00     0.002 A 
ENDBRANCH   1  11
BRANCH   1  22
HETATM   22  O   UNL     1     -43.713  53.932 -51.800  1.00  0.00    -0.371 OA
HETATM   23  H   UNL     1     -44.237  54.627 -51.362  1.00  0.00     0.212 HD
ENDBRANCH   1  22
BRANCH   4  24
HETATM   24  C   UNL     1     -43.045  54.516 -56.220  1.00  0.00     0.137 C 
BRANCH  24  25
HETATM   25  C   UNL     1     -42.633  55.730 -57.059  1.00  0.00     0.058 C 
BRANCH  25  26
HETATM   26  C   UNL     1     -43.339  55.703 -58.396  1.00  0.00    -0.057 A 
HETATM   27  C   UNL     1     -43.417  56.868 -59.173  1.00  0.00     0.007 A 
HETATM   28  C   UNL     1     -44.130  56.873 -60.373  1.00  0.00     0.001 A 
HETATM   29  C   UNL     1     -44.768  55.713 -60.809  1.00  0.00     0.000 A 
HETATM   30  C   UNL     1     -44.691  54.548 -60.048  1.00  0.00     0.001 A 
HETATM   31  C   UNL     1     -43.981  54.543 -58.845  1.00  0.00     0.007 A 
ENDBRANCH  25  26
ENDBRANCH  24  25
ENDBRANCH   4  24
TORSDOF 5
ENDMDL
MODEL 7
REMARK VINA RESULT:      -8.5      2.317      3.912
REMARK  5 active torsions:
REMARK  status: ('A' for Active; 'I' for Inactive)
REMARK    1  A    between atoms: C_7  and  C_8 
REMARK    2  A    between atoms: C_8  and  O_9 
REMARK    3  A    between atoms: N_12  and  C_13 
REMARK    4  A    between atoms: C_13  and  C_14 
REMARK    5  A    between atoms: C_14  and  C_15 
ROOT
HETATM    1  C   UNL     1     -41.700  57.336 -53.256  1.00  0.00     0.199 A 
HETATM    2  C   UNL     1     -41.556  56.519 -51.940  1.00  0.00     0.269 A 
HETATM    3  O   UNL     1     -41.082  56.929 -50.886  1.00  0.00    -0.269 OA
HETATM    4  N   UNL     1     -41.940  55.193 -52.220  1.00  0.00    -0.314 N 
HETATM    5  C   UNL     1     -42.305  55.061 -53.572  1.00  0.00     0.047 A 
HETATM    6  C   UNL     1     -42.199  56.295 -54.223  1.00  0.00     0.017 A 
HETATM    7  C   UNL     1     -42.699  53.922 -54.255  1.00  0.00     0.030 A 
HETATM    8  C   UNL     1     -42.985  54.034 -55.619  1.00  0.00     0.002 A 
HETATM    9  C   UNL     1     -42.868  55.268 -56.278  1.00  0.00     0.001 A 
HETATM   10  C   UNL     1     -42.468  56.408 -55.582  1.00  0.00     0.013 A 
ENDROOT
BRANCH   1  11
HETATM   11  C   UNL     1     -42.711  58.458 -53.224  1.00  0.00     0.025 A 
HETATM   12  C   UNL     1     -42.736  59.569 -54.071  1.00  0.00     0.016 A 
HETATM   13  C   UNL     1     -41.846  59.971 -55.195  1.00  0.00     0.069 C 
HETATM   14  N   UNL     1     -43.810  60.347 -53.727  1.00  0.00    -0.359 N 
HETATM   15  H   UNL     1     -44.069  61.213 -54.178  1.00  0.00     0.166 HD
HETATM   16  C   UNL     1     -44.516  59.774 -52.702  1.00  0.00     0.043 A 
HETATM   17  C   UNL     1     -43.859  58.593 -52.354  1.00  0.00     0.003 A 
HETATM   18  C   UNL     1     -45.684  60.219 -52.071  1.00  0.00     0.030 A 
HETATM   19  C   UNL     1     -44.417  57.819 -51.312  1.00  0.00     0.014 A 
HETATM   20  C   UNL     1     -45.586  58.248 -50.670  1.00  0.00     0.001 A 
HETATM   21  C   UNL     1     -46.210  59.433 -51.045  1.00  0.00     0.002 A 
ENDBRANCH   1  11
BRANCH   1  22
HETATM   22  O   UNL     1     -40.395  57.767 -53.646  1.00  0.00    -0.371 OA
HETATM   23  H   UNL     1     -39.808  57.056 -53.329  1.00  0.00     0.212 HD
ENDBRANCH   1  22
BRANCH   4  24
HETATM   24  C   UNL     1     -41.609  54.082 -51.349  1.00  0.00     0.137 C 
BRANCH  24  25
HETATM   25  C   UNL     1     -40.135  53.668 -51.392  1.00  0.00     0.058 C 
BRANCH  25  26
HETATM   26  C   UNL     1     -40.003  52.270 -51.953  1.00  0.00    -0.057 A 
HETATM   27  C   UNL     1     -39.815  51.180 -51.089  1.00  0.00     0.007 A 
HETATM   28  C   UNL     1     -39.618  49.896 -51.601  1.00  0.00     0.001 A 
HETATM   29  C   UNL     1     -39.610  49.689 -52.979  1.00  0.00     0.000 A 
HETATM   30  C   UNL     1     -39.803  50.764 -53.846  1.00  0.00     0.001 A 
HETATM   31  C   UNL     1     -39.996  52.050 -53.336  1.00  0.00     0.007 A 
ENDBRANCH  25  26
ENDBRANCH  24  25
ENDBRANCH   4  24
TORSDOF 5
ENDMDL
MODEL 8
REMARK VINA RESULT:      -8.4      1.942      4.385
REMARK  5 active torsions:
REMARK  status: ('A' for Active; 'I' for Inactive)
REMARK    1  A    between atoms: C_7  and  C_8 
REMARK    2  A    between atoms: C_8  and  O_9 
REMARK    3  A    between atoms: N_12  and  C_13 
REMARK    4  A    between atoms: C_13  and  C_14 
REMARK    5  A    between atoms: C_14  and  C_15 
ROOT
HETATM    1  C   UNL     1     -43.739  56.871 -53.435  1.00  0.00     0.199 A 
HETATM    2  C   UNL     1     -42.792  56.185 -54.462  1.00  0.00     0.269 A 
HETATM    3  O   UNL     1     -42.575  56.565 -55.606  1.00  0.00    -0.269 OA
HETATM    4  N   UNL     1     -42.343  54.981 -53.884  1.00  0.00    -0.314 N 
HETATM    5  C   UNL     1     -42.903  54.809 -52.605  1.00  0.00     0.047 A 
HETATM    6  C   UNL     1     -43.718  55.901 -52.284  1.00  0.00     0.017 A 
HETATM    7  C   UNL     1     -42.751  53.746 -51.730  1.00  0.00     0.030 A 
HETATM    8  C   UNL     1     -43.440  53.787 -50.513  1.00  0.00     0.002 A 
HETATM    9  C   UNL     1     -44.268  54.874 -50.194  1.00  0.00     0.001 A 
HETATM   10  C   UNL     1     -44.415  55.939 -51.083  1.00  0.00     0.013 A 
ENDROOT
BRANCH   1  11
HETATM   11  C   UNL     1     -43.278  58.213 -52.915  1.00  0.00     0.025 A 
HETATM   12  C   UNL     1     -43.859  59.452 -53.202  1.00  0.00     0.016 A 
HETATM   13  C   UNL     1     -45.031  59.818 -54.044  1.00  0.00     0.069 C 
HETATM   14  N   UNL     1     -43.158  60.420 -52.533  1.00  0.00    -0.359 N 
HETATM   15  H   UNL     1     -43.363  61.409 -52.560  1.00  0.00     0.166 HD
HETATM   16  C   UNL     1     -42.153  59.864 -51.787  1.00  0.00     0.043 A 
HETATM   17  C   UNL     1     -42.190  58.485 -52.002  1.00  0.00     0.003 A 
HETATM   18  C   UNL     1     -41.225  60.486 -50.942  1.00  0.00     0.030 A 
HETATM   19  C   UNL     1     -41.239  57.693 -51.321  1.00  0.00     0.014 A 
HETATM   20  C   UNL     1     -40.304  58.298 -50.470  1.00  0.00     0.001 A 
HETATM   21  C   UNL     1     -40.299  59.676 -50.284  1.00  0.00     0.002 A 
ENDBRANCH   1  11
BRANCH   1  22
HETATM   22  O   UNL     1     -45.047  56.909 -54.007  1.00  0.00    -0.371 OA
HETATM   23  H   UNL     1     -45.382  57.794 -53.770  1.00  0.00     0.212 HD
ENDBRANCH   1  22
BRANCH   4  24
HETATM   24  C   UNL     1     -41.738  53.919 -54.664  1.00  0.00     0.137 C 
BRANCH  24  25
HETATM   25  C   UNL     1     -40.263  53.663 -54.339  1.00  0.00     0.058 C 
BRANCH  25  26
HETATM   26  C   UNL     1     -40.094  52.290 -53.728  1.00  0.00    -0.057 A 
HETATM   27  C   UNL     1     -39.758  52.160 -52.372  1.00  0.00     0.007 A 
HETATM   28  C   UNL     1     -39.527  50.900 -51.818  1.00  0.00     0.001 A 
HETATM   29  C   UNL     1     -39.634  49.759 -52.611  1.00  0.00     0.000 A 
HETATM   30  C   UNL     1     -39.974  49.877 -53.958  1.00  0.00     0.001 A 
HETATM   31  C   UNL     1     -40.202  51.137 -54.515  1.00  0.00     0.007 A 
ENDBRANCH  25  26
ENDBRANCH  24  25
ENDBRANCH   4  24
TORSDOF 5
ENDMDL
MODEL 9
REMARK VINA RESULT:      -8.2      2.026      7.072
REMARK  5 active torsions:
REMARK  status: ('A' for Active; 'I' for Inactive)
REMARK    1  A    between atoms: C_7  and  C_8 
REMARK    2  A    between atoms: C_8  and  O_9 
REMARK    3  A    between atoms: N_12  and  C_13 
REMARK    4  A    between atoms: C_13  and  C_14 
REMARK    5  A    between atoms: C_14  and  C_15 
ROOT
HETATM    1  C   UNL     1     -41.893  55.825 -51.593  1.00  0.00     0.199 A 
HETATM    2  C   UNL     1     -41.050  57.127 -51.698  1.00  0.00     0.269 A 
HETATM    3  O   UNL     1     -40.488  57.698 -50.771  1.00  0.00    -0.269 OA
HETATM    4  N   UNL     1     -41.166  57.601 -53.020  1.00  0.00    -0.314 N 
HETATM    5  C   UNL     1     -41.998  56.756 -53.776  1.00  0.00     0.047 A 
HETATM    6  C   UNL     1     -42.439  55.685 -52.990  1.00  0.00     0.017 A 
HETATM    7  C   UNL     1     -42.399  56.890 -55.095  1.00  0.00     0.030 A 
HETATM    8  C   UNL     1     -43.265  55.926 -55.624  1.00  0.00     0.002 A 
HETATM    9  C   UNL     1     -43.719  54.859 -54.835  1.00  0.00     0.001 A 
HETATM   10  C   UNL     1     -43.310  54.733 -53.508  1.00  0.00     0.013 A 
ENDROOT
BRANCH   1  11
HETATM   11  C   UNL     1     -41.119  54.567 -51.274  1.00  0.00     0.025 A 
HETATM   12  C   UNL     1     -40.786  54.107 -49.996  1.00  0.00     0.016 A 
HETATM   13  C   UNL     1     -41.070  54.662 -48.644  1.00  0.00     0.069 C 
HETATM   14  N   UNL     1     -40.092  52.933 -50.130  1.00  0.00    -0.359 N 
HETATM   15  H   UNL     1     -39.730  52.381 -49.365  1.00  0.00     0.166 HD
HETATM   16  C   UNL     1     -39.981  52.582 -51.450  1.00  0.00     0.043 A 
HETATM   17  C   UNL     1     -40.605  53.581 -52.199  1.00  0.00     0.003 A 
HETATM   18  C   UNL     1     -39.378  51.455 -52.022  1.00  0.00     0.030 A 
HETATM   19  C   UNL     1     -40.623  53.428 -53.604  1.00  0.00     0.014 A 
HETATM   20  C   UNL     1     -40.025  52.306 -54.194  1.00  0.00     0.001 A 
HETATM   21  C   UNL     1     -39.412  51.334 -53.412  1.00  0.00     0.002 A 
ENDBRANCH   1  11
BRANCH   1  22
HETATM   22  O   UNL     1     -42.965  56.071 -50.682  1.00  0.00    -0.371 OA
HETATM   23  H   UNL     1     -42.686  55.620 -49.864  1.00  0.00     0.212 HD
ENDBRANCH   1  22
BRANCH   4  24
HETATM   24  C   UNL     1     -40.815  58.956 -53.398  1.00  0.00     0.137 C 
BRANCH  24  25
HETATM   25  C   UNL     1     -42.017  59.855 -53.703  1.00  0.00     0.058 C 
BRANCH  25  26
HETATM   26  C   UNL     1     -42.887  59.997 -52.474  1.00  0.00    -0.057 A 
HETATM   27  C   UNL     1     -44.201  59.507 -52.482  1.00  0.00     0.007 A 
HETATM   28  C   UNL     1     -45.036  59.699 -51.379  1.00  0.00     0.001 A 
HETATM   29  C   UNL     1     -44.563  60.378 -50.258  1.00  0.00     0.000 A 
HETATM   30  C   UNL     1     -43.256  60.862 -50.237  1.00  0.00     0.001 A 
HETATM   31  C   UNL     1     -42.421  60.674 -51.340  1.00  0.00     0.007 A 
ENDBRANCH  25  26
ENDBRANCH  24  25
ENDBRANCH   4  24
TORSDOF 5
ENDMDL
MODEL 10
REMARK VINA RESULT:      -8.1      2.751      4.710
REMARK  5 active torsions:
REMARK  status: ('A' for Active; 'I' for Inactive)
REMARK    1  A    between atoms: C_7  and  C_8 
REMARK    2  A    between atoms: C_8  and  O_9 
REMARK    3  A    between atoms: N_12  and  C_13 
REMARK    4  A    between atoms: C_13  and  C_14 
REMARK    5  A    between atoms: C_14  and  C_15 
ROOT
HETATM    1  C   UNL     1     -42.263  59.041 -54.829  1.00  0.00     0.199 A 
HETATM    2  C   UNL     1     -41.439  58.154 -53.852  1.00  0.00     0.269 A 
HETATM    3  O   UNL     1     -40.755  58.555 -52.918  1.00  0.00    -0.269 OA
HETATM    4  N   UNL     1     -41.512  56.827 -54.322  1.00  0.00    -0.314 N 
HETATM    5  C   UNL     1     -42.282  56.762 -55.497  1.00  0.00     0.047 A 
HETATM    6  C   UNL     1     -42.763  58.034 -55.830  1.00  0.00     0.017 A 
HETATM    7  C   UNL     1     -42.560  55.661 -56.290  1.00  0.00     0.030 A 
HETATM    8  C   UNL     1     -43.332  55.852 -57.441  1.00  0.00     0.002 A 
HETATM    9  C   UNL     1     -43.805  57.127 -57.784  1.00  0.00     0.001 A 
HETATM   10  C   UNL     1     -43.519  58.230 -56.980  1.00  0.00     0.013 A 
ENDROOT
BRANCH   1  11
HETATM   11  C   UNL     1     -43.466  59.731 -54.230  1.00  0.00     0.025 A 
HETATM   12  C   UNL     1     -44.083  60.886 -54.721  1.00  0.00     0.016 A 
HETATM   13  C   UNL     1     -43.780  61.737 -55.904  1.00  0.00     0.069 C 
HETATM   14  N   UNL     1     -45.142  61.187 -53.905  1.00  0.00    -0.359 N 
HETATM   15  H   UNL     1     -45.765  61.972 -54.027  1.00  0.00     0.166 HD
HETATM   16  C   UNL     1     -45.267  60.255 -52.908  1.00  0.00     0.043 A 
HETATM   17  C   UNL     1     -44.235  59.330 -53.072  1.00  0.00     0.003 A 
HETATM   18  C   UNL     1     -46.220  60.171 -51.886  1.00  0.00     0.030 A 
HETATM   19  C   UNL     1     -44.167  58.259 -52.153  1.00  0.00     0.014 A 
HETATM   20  C   UNL     1     -45.112  58.158 -51.124  1.00  0.00     0.001 A 
HETATM   21  C   UNL     1     -46.125  59.102 -50.994  1.00  0.00     0.002 A 
ENDBRANCH   1  11
BRANCH   1  22
HETATM   22  O   UNL     1     -41.358  59.943 -55.467  1.00  0.00    -0.371 OA
HETATM   23  H   UNL     1     -41.335  59.639 -56.392  1.00  0.00     0.212 HD
ENDBRANCH   1  22
BRANCH   4  24
HETATM   24  C   UNL     1     -40.597  55.791 -53.883  1.00  0.00     0.137 C 
BRANCH  24  25
HETATM   25  C   UNL     1     -41.151  54.894 -52.773  1.00  0.00     0.058 C 
BRANCH  25  26
HETATM   26  C   UNL     1     -40.665  53.474 -52.959  1.00  0.00    -0.057 A 
HETATM   27  C   UNL     1     -39.995  52.817 -51.916  1.00  0.00     0.007 A 
HETATM   28  C   UNL     1     -39.477  51.535 -52.103  1.00  0.00     0.001 A 
HETATM   29  C   UNL     1     -39.628  50.895 -53.332  1.00  0.00     0.000 A 
HETATM   30  C   UNL     1     -40.298  51.536 -54.373  1.00  0.00     0.001 A 
HETATM   31  C   UNL     1     -40.813  52.821 -54.188  1.00  0.00     0.007 A 
ENDBRANCH  25  26
ENDBRANCH  24  25
ENDBRANCH   4  24
TORSDOF 5
ENDMDL
