MODEL 1
REMARK VINA RESULT:      -8.2      0.000      0.000
REMARK  9 active torsions:
REMARK  status: ('A' for Active; 'I' for Inactive)
REMARK    1  A    between atoms: C_3  and  N_4 
REMARK       I    between atoms: N_4  and  C_5 
REMARK    2  A    between atoms: C_5  and  C_6 
REMARK    3  A    between atoms: C_6  and  O_7 
REMARK    4  A    between atoms: O_7  and  C_8 
REMARK    5  A    between atoms: C_8  and  C_9 
REMARK    6  A    between atoms: C_9  and  N_10 
REMARK    7  A    between atoms: C_9  and  C_18 
REMARK       I    between atoms: N_10  and  C_11 
REMARK    8  A    between atoms: C_11  and  C_12 
REMARK    9  A    between atoms: C_18  and  C_19 
ROOT
HETATM    1  C   UNL     1     -42.725  57.425 -51.531  1.00  0.00     0.189 C 
ENDROOT
BRANCH   1   2
HETATM    2  C   UNL     1     -41.491  57.125 -50.665  1.00  0.00     0.282 C 
HETATM    3  O   UNL     1     -40.502  57.849 -50.576  1.00  0.00    -0.263 OA
BRANCH   2   4
HETATM    4  O   UNL     1     -41.644  55.961 -49.982  1.00  0.00    -0.311 OA
BRANCH   4   5
HETATM    5  C   UNL     1     -40.622  54.982 -50.163  1.00  0.00     0.281 C 
BRANCH   5   6
HETATM    6  C   UNL     1     -40.990  53.713 -50.954  1.00  0.00     0.246 C 
HETATM    7  N   UNL     1     -39.889  53.084 -51.509  1.00  0.00    -0.324 N 
HETATM    8  H   UNL     1     -39.025  53.623 -51.472  1.00  0.00     0.169 HD
HETATM    9  O   UNL     1     -42.165  53.407 -51.136  1.00  0.00    -0.271 OA
BRANCH   7  10
HETATM   10  C   UNL     1     -39.887  51.970 -52.378  1.00  0.00     0.046 A 
HETATM   11  C   UNL     1     -39.930  52.239 -53.770  1.00  0.00    -0.035 A 
HETATM   12  C   UNL     1     -40.026  53.640 -54.315  1.00  0.00     0.050 C 
HETATM   13  C   UNL     1     -39.919  51.176 -54.687  1.00  0.00     0.009 A 
HETATM   14  C   UNL     1     -39.869  49.860 -54.244  1.00  0.00     0.001 A 
HETATM   15  C   UNL     1     -39.801  49.595 -52.881  1.00  0.00     0.009 A 
HETATM   16  C   UNL     1     -39.779  50.636 -51.932  1.00  0.00    -0.035 A 
HETATM   17  C   UNL     1     -39.580  50.236 -50.496  1.00  0.00     0.050 C 
ENDBRANCH   7  10
ENDBRANCH   5   6
ENDBRANCH   4   5
ENDBRANCH   2   4
ENDBRANCH   1   2
BRANCH   1  18
HETATM   18  N   UNL     1     -43.457  58.573 -51.003  1.00  0.00    -0.341 N 
HETATM   19  C   UNL     1     -44.835  58.548 -50.914  1.00  0.00     0.276 C 
HETATM   20  O   UNL     1     -45.476  57.510 -51.048  1.00  0.00    -0.265 OA
HETATM   21  H   UNL     1     -43.034  59.495 -51.041  1.00  0.00     0.163 HD
BRANCH  19  22
HETATM   22  C   UNL     1     -45.448  59.840 -50.695  1.00  0.00     0.142 A 
HETATM   23  O   UNL     1     -45.242  60.496 -49.509  1.00  0.00    -0.317 OA
HETATM   24  C   UNL     1     -45.898  61.684 -49.592  1.00  0.00     0.143 A 
HETATM   25  C   UNL     1     -46.526  61.806 -50.808  1.00  0.00     0.027 A 
HETATM   26  C   UNL     1     -46.238  60.619 -51.521  1.00  0.00     0.045 A 
ENDBRANCH  19  22
ENDBRANCH   1  18
BRANCH   1  27
HETATM   27  C   UNL     1     -42.222  57.674 -52.967  1.00  0.00     0.074 C 
BRANCH  27  28
HETATM   28  C   UNL     1     -42.525  56.588 -53.978  1.00  0.00    -0.056 A 
HETATM   29  C   UNL     1     -43.298  55.484 -53.587  1.00  0.00     0.007 A 
HETATM   30  C   UNL     1     -43.627  54.482 -54.501  1.00  0.00     0.001 A 
HETATM   31  C   UNL     1     -43.194  54.575 -55.820  1.00  0.00     0.000 A 
HETATM   32  C   UNL     1     -42.438  55.673 -56.226  1.00  0.00     0.001 A 
HETATM   33  C   UNL     1     -42.110  56.678 -55.313  1.00  0.00     0.007 A 
ENDBRANCH  27  28
ENDBRANCH   1  27
TORSDOF 9
ENDMDL
MODEL 2
REMARK VINA RESULT:      -8.1      2.384      7.207
REMARK  9 active torsions:
REMARK  status: ('A' for Active; 'I' for Inactive)
REMARK    1  A    between atoms: C_3  and  N_4 
REMARK       I    between atoms: N_4  and  C_5 
REMARK    2  A    between atoms: C_5  and  C_6 
REMARK    3  A    between atoms: C_6  and  O_7 
REMARK    4  A    between atoms: O_7  and  C_8 
REMARK    5  A    between atoms: C_8  and  C_9 
REMARK    6  A    between atoms: C_9  and  N_10 
REMARK    7  A    between atoms: C_9  and  C_18 
REMARK       I    between atoms: N_10  and  C_11 
REMARK    8  A    between atoms: C_11  and  C_12 
REMARK    9  A    between atoms: C_18  and  C_19 
ROOT
HETATM    1  C   UNL     1     -42.042  53.968 -53.199  1.00  0.00     0.189 C 
ENDROOT
BRANCH   1   2
HETATM    2  C   UNL     1     -42.518  54.257 -51.766  1.00  0.00     0.282 C 
HETATM    3  O   UNL     1     -43.666  54.097 -51.360  1.00  0.00    -0.263 OA
BRANCH   2   4
HETATM    4  O   UNL     1     -41.492  54.692 -50.988  1.00  0.00    -0.311 OA
BRANCH   4   5
HETATM    5  C   UNL     1     -41.660  55.967 -50.373  1.00  0.00     0.281 C 
BRANCH   5   6
HETATM    6  C   UNL     1     -41.781  57.191 -51.301  1.00  0.00     0.246 C 
HETATM    7  N   UNL     1     -42.905  57.956 -51.043  1.00  0.00    -0.324 N 
HETATM    8  H   UNL     1     -43.579  57.526 -50.411  1.00  0.00     0.169 HD
HETATM    9  O   UNL     1     -40.993  57.353 -52.229  1.00  0.00    -0.271 OA
BRANCH   7  10
HETATM   10  C   UNL     1     -43.368  59.072 -51.776  1.00  0.00     0.046 A 
HETATM   11  C   UNL     1     -44.303  58.818 -52.813  1.00  0.00    -0.035 A 
HETATM   12  C   UNL     1     -44.754  57.425 -53.165  1.00  0.00     0.050 C 
HETATM   13  C   UNL     1     -44.810  59.885 -53.571  1.00  0.00     0.009 A 
HETATM   14  C   UNL     1     -44.403  61.189 -53.318  1.00  0.00     0.001 A 
HETATM   15  C   UNL     1     -43.506  61.443 -52.286  1.00  0.00     0.009 A 
HETATM   16  C   UNL     1     -43.000  60.402 -51.484  1.00  0.00    -0.035 A 
HETATM   17  C   UNL     1     -42.135  60.805 -50.321  1.00  0.00     0.050 C 
ENDBRANCH   7  10
ENDBRANCH   5   6
ENDBRANCH   4   5
ENDBRANCH   2   4
ENDBRANCH   1   2
BRANCH   1  18
HETATM   18  N   UNL     1     -42.314  55.107 -54.070  1.00  0.00    -0.341 N 
HETATM   19  C   UNL     1     -42.852  54.918 -55.328  1.00  0.00     0.276 C 
HETATM   20  O   UNL     1     -43.331  53.843 -55.675  1.00  0.00    -0.265 OA
HETATM   21  H   UNL     1     -41.800  55.973 -53.936  1.00  0.00     0.163 HD
BRANCH  19  22
HETATM   22  C   UNL     1     -42.762  56.069 -56.200  1.00  0.00     0.142 A 
HETATM   23  O   UNL     1     -43.183  55.968 -57.502  1.00  0.00    -0.317 OA
HETATM   24  C   UNL     1     -43.019  57.192 -58.069  1.00  0.00     0.143 A 
HETATM   25  C   UNL     1     -42.496  58.081 -57.161  1.00  0.00     0.027 A 
HETATM   26  C   UNL     1     -42.330  57.359 -55.956  1.00  0.00     0.045 A 
ENDBRANCH  19  22
ENDBRANCH   1  18
BRANCH   1  27
HETATM   27  C   UNL     1     -40.536  53.649 -53.121  1.00  0.00     0.074 C 
BRANCH  27  28
HETATM   28  C   UNL     1     -40.165  52.181 -53.086  1.00  0.00    -0.056 A 
HETATM   29  C   UNL     1     -39.767  51.603 -51.871  1.00  0.00     0.007 A 
HETATM   30  C   UNL     1     -39.453  50.246 -51.794  1.00  0.00     0.001 A 
HETATM   31  C   UNL     1     -39.540  49.447 -52.930  1.00  0.00     0.000 A 
HETATM   32  C   UNL     1     -39.947  50.004 -54.140  1.00  0.00     0.001 A 
HETATM   33  C   UNL     1     -40.265  51.362 -54.218  1.00  0.00     0.007 A 
ENDBRANCH  27  28
ENDBRANCH   1  27
TORSDOF 9
ENDMDL
MODEL 3
REMARK VINA RESULT:      -8.1      2.690      6.426
REMARK  9 active torsions:
REMARK  status: ('A' for Active; 'I' for Inactive)
REMARK    1  A    between atoms: C_3  and  N_4 
REMARK       I    between atoms: N_4  and  C_5 
REMARK    2  A    between atoms: C_5  and  C_6 
REMARK    3  A    between atoms: C_6  and  O_7 
REMARK    4  A    between atoms: O_7  and  C_8 
REMARK    5  A    between atoms: C_8  and  C_9 
REMARK    6  A    between atoms: C_9  and  N_10 
REMARK    7  A    between atoms: C_9  and  C_18 
REMARK       I    between atoms: N_10  and  C_11 
REMARK    8  A    between atoms: C_11  and  C_12 
REMARK    9  A    between atoms: C_18  and  C_19 
ROOT
HETATM    1  C   UNL     1     -41.477  54.724 -52.382  1.00  0.00     0.189 C 
ENDROOT
BRANCH   1   2
HETATM    2  C   UNL     1     -42.850  54.039 -52.467  1.00  0.00     0.282 C 
HETATM    3  O   UNL     1     -43.556  53.756 -51.503  1.00  0.00    -0.263 OA
BRANCH   2   4
HETATM    4  O   UNL     1     -43.202  53.807 -53.759  1.00  0.00    -0.311 OA
BRANCH   4   5
HETATM    5  C   UNL     1     -43.691  54.927 -54.494  1.00  0.00     0.281 C 
BRANCH   5   6
HETATM    6  C   UNL     1     -42.893  55.360 -55.738  1.00  0.00     0.246 C 
HETATM    7  N   UNL     1     -43.583  56.254 -56.538  1.00  0.00    -0.324 N 
HETATM    8  H   UNL     1     -44.567  56.370 -56.301  1.00  0.00     0.169 HD
HETATM    9  O   UNL     1     -41.810  54.842 -55.999  1.00  0.00    -0.271 OA
BRANCH   7  10
HETATM   10  C   UNL     1     -43.187  56.759 -57.798  1.00  0.00     0.046 A 
HETATM   11  C   UNL     1     -42.473  57.985 -57.805  1.00  0.00    -0.035 A 
HETATM   12  C   UNL     1     -42.187  58.755 -56.542  1.00  0.00     0.050 C 
HETATM   13  C   UNL     1     -42.042  58.534 -59.023  1.00  0.00     0.009 A 
HETATM   14  C   UNL     1     -42.309  57.888 -60.224  1.00  0.00     0.001 A 
HETATM   15  C   UNL     1     -42.986  56.673 -60.217  1.00  0.00     0.009 A 
HETATM   16  C   UNL     1     -43.407  56.077 -59.013  1.00  0.00    -0.035 A 
HETATM   17  C   UNL     1     -44.018  54.706 -59.116  1.00  0.00     0.050 C 
ENDBRANCH   7  10
ENDBRANCH   5   6
ENDBRANCH   4   5
ENDBRANCH   2   4
ENDBRANCH   1   2
BRANCH   1  18
HETATM   18  N   UNL     1     -41.593  56.028 -51.735  1.00  0.00    -0.341 N 
HETATM   19  C   UNL     1     -41.199  57.177 -52.392  1.00  0.00     0.276 C 
HETATM   20  O   UNL     1     -40.961  57.188 -53.596  1.00  0.00    -0.265 OA
HETATM   21  H   UNL     1     -41.607  56.083 -50.721  1.00  0.00     0.163 HD
BRANCH  19  22
HETATM   22  C   UNL     1     -41.053  58.338 -51.540  1.00  0.00     0.142 A 
HETATM   23  O   UNL     1     -39.831  58.624 -50.987  1.00  0.00    -0.317 OA
HETATM   24  C   UNL     1     -39.976  59.772 -50.274  1.00  0.00     0.143 A 
HETATM   25  C   UNL     1     -41.269  60.231 -50.352  1.00  0.00     0.027 A 
HETATM   26  C   UNL     1     -41.965  59.308 -51.168  1.00  0.00     0.045 A 
ENDBRANCH  19  22
ENDBRANCH   1  18
BRANCH   1  27
HETATM   27  C   UNL     1     -40.544  53.775 -51.604  1.00  0.00     0.074 C 
BRANCH  27  28
HETATM   28  C   UNL     1     -40.187  52.476 -52.294  1.00  0.00    -0.056 A 
HETATM   29  C   UNL     1     -39.851  51.357 -51.516  1.00  0.00     0.007 A 
HETATM   30  C   UNL     1     -39.551  50.133 -52.117  1.00  0.00     0.001 A 
HETATM   31  C   UNL     1     -39.591  50.010 -53.503  1.00  0.00     0.000 A 
HETATM   32  C   UNL     1     -39.937  51.109 -54.286  1.00  0.00     0.001 A 
HETATM   33  C   UNL     1     -40.241  52.334 -53.687  1.00  0.00     0.007 A 
ENDBRANCH  27  28
ENDBRANCH   1  27
TORSDOF 9
ENDMDL
MODEL 4
REMARK VINA RESULT:      -7.9      2.559      7.319
REMARK  9 active torsions:
REMARK  status: ('A' for Active; 'I' for Inactive)
REMARK    1  A    between atoms: C_3  and  N_4 
REMARK       I    between atoms: N_4  and  C_5 
REMARK    2  A    between atoms: C_5  and  C_6 
REMARK    3  A    between atoms: C_6  and  O_7 
REMARK    4  A    between atoms: O_7  and  C_8 
REMARK    5  A    between atoms: C_8  and  C_9 
REMARK    6  A    between atoms: C_9  and  N_10 
REMARK    7  A    between atoms: C_9  and  C_18 
REMARK       I    between atoms: N_10  and  C_11 
REMARK    8  A    between atoms: C_11  and  C_12 
REMARK    9  A    between atoms: C_18  and  C_19 
ROOT
HETATM    1  C   UNL     1     -41.799  54.073 -53.570  1.00  0.00     0.189 C 
ENDROOT
BRANCH   1   2
HETATM    2  C   UNL     1     -41.946  54.631 -52.145  1.00  0.00     0.282 C 
HETATM    3  O   UNL     1     -41.036  55.131 -51.489  1.00  0.00    -0.263 OA
BRANCH   2   4
HETATM    4  O   UNL     1     -43.228  54.524 -51.708  1.00  0.00    -0.311 OA
BRANCH   4   5
HETATM    5  C   UNL     1     -43.654  55.493 -50.753  1.00  0.00     0.281 C 
BRANCH   5   6
HETATM    6  C   UNL     1     -44.170  56.840 -51.295  1.00  0.00     0.246 C 
HETATM    7  N   UNL     1     -43.361  57.370 -52.285  1.00  0.00    -0.324 N 
HETATM    8  H   UNL     1     -42.463  56.903 -52.399  1.00  0.00     0.169 HD
HETATM    9  O   UNL     1     -45.140  57.391 -50.781  1.00  0.00    -0.271 OA
BRANCH   7  10
HETATM   10  C   UNL     1     -43.486  58.632 -52.909  1.00  0.00     0.046 A 
HETATM   11  C   UNL     1     -42.633  59.666 -52.446  1.00  0.00    -0.035 A 
HETATM   12  C   UNL     1     -41.668  59.462 -51.307  1.00  0.00     0.050 C 
HETATM   13  C   UNL     1     -42.700  60.941 -53.031  1.00  0.00     0.009 A 
HETATM   14  C   UNL     1     -43.596  61.200 -54.061  1.00  0.00     0.001 A 
HETATM   15  C   UNL     1     -44.415  60.180 -54.534  1.00  0.00     0.009 A 
HETATM   16  C   UNL     1     -44.355  58.882 -53.992  1.00  0.00    -0.035 A 
HETATM   17  C   UNL     1     -45.196  57.831 -54.663  1.00  0.00     0.050 C 
ENDBRANCH   7  10
ENDBRANCH   5   6
ENDBRANCH   4   5
ENDBRANCH   2   4
ENDBRANCH   1   2
BRANCH   1  18
HETATM   18  N   UNL     1     -42.118  55.099 -54.559  1.00  0.00    -0.341 N 
HETATM   19  C   UNL     1     -42.863  54.789 -55.680  1.00  0.00     0.276 C 
HETATM   20  O   UNL     1     -43.474  53.729 -55.781  1.00  0.00    -0.265 OA
HETATM   21  H   UNL     1     -41.523  55.918 -54.638  1.00  0.00     0.163 HD
BRANCH  19  22
HETATM   22  C   UNL     1     -42.825  55.789 -56.724  1.00  0.00     0.142 A 
HETATM   23  O   UNL     1     -43.296  55.483 -57.975  1.00  0.00    -0.317 OA
HETATM   24  C   UNL     1     -43.172  56.604 -58.733  1.00  0.00     0.143 A 
HETATM   25  C   UNL     1     -42.627  57.629 -57.997  1.00  0.00     0.027 A 
HETATM   26  C   UNL     1     -42.402  57.106 -56.702  1.00  0.00     0.045 A 
ENDBRANCH  19  22
ENDBRANCH   1  18
BRANCH   1  27
HETATM   27  C   UNL     1     -40.350  53.566 -53.712  1.00  0.00     0.074 C 
BRANCH  27  28
HETATM   28  C   UNL     1     -40.103  52.128 -53.307  1.00  0.00    -0.056 A 
HETATM   29  C   UNL     1     -40.180  51.119 -54.280  1.00  0.00     0.007 A 
HETATM   30  C   UNL     1     -39.924  49.788 -53.951  1.00  0.00     0.001 A 
HETATM   31  C   UNL     1     -39.580  49.448 -52.646  1.00  0.00     0.000 A 
HETATM   32  C   UNL     1     -39.486  50.441 -51.673  1.00  0.00     0.001 A 
HETATM   33  C   UNL     1     -39.739  51.775 -52.002  1.00  0.00     0.007 A 
ENDBRANCH  27  28
ENDBRANCH   1  27
TORSDOF 9
ENDMDL
MODEL 5
REMARK VINA RESULT:      -7.7      3.043      5.708
REMARK  9 active torsions:
REMARK  status: ('A' for Active; 'I' for Inactive)
REMARK    1  A    between atoms: C_3  and  N_4 
REMARK       I    between atoms: N_4  and  C_5 
REMARK    2  A    between atoms: C_5  and  C_6 
REMARK    3  A    between atoms: C_6  and  O_7 
REMARK    4  A    between atoms: O_7  and  C_8 
REMARK    5  A    between atoms: C_8  and  C_9 
REMARK    6  A    between atoms: C_9  and  N_10 
REMARK    7  A    between atoms: C_9  and  C_18 
REMARK       I    between atoms: N_10  and  C_11 
REMARK    8  A    between atoms: C_11  and  C_12 
REMARK    9  A    between atoms: C_18  and  C_19 
ROOT
HETATM    1  C   UNL     1     -42.581  58.276 -54.583  1.00  0.00     0.189 C 
ENDROOT
BRANCH   1   2
HETATM    2  C   UNL     1     -43.942  58.102 -53.890  1.00  0.00     0.282 C 
HETATM    3  O   UNL     1     -44.830  58.950 -53.860  1.00  0.00    -0.263 OA
BRANCH   2   4
HETATM    4  O   UNL     1     -44.053  56.868 -53.332  1.00  0.00    -0.311 OA
BRANCH   4   5
HETATM    5  C   UNL     1     -43.031  56.497 -52.409  1.00  0.00     0.281 C 
BRANCH   5   6
HETATM    6  C   UNL     1     -42.686  54.999 -52.300  1.00  0.00     0.246 C 
HETATM    7  N   UNL     1     -41.329  54.748 -52.398  1.00  0.00    -0.324 N 
HETATM    8  H   UNL     1     -40.768  55.543 -52.699  1.00  0.00     0.169 HD
HETATM    9  O   UNL     1     -43.576  54.154 -52.248  1.00  0.00    -0.271 OA
BRANCH   7  10
HETATM   10  C   UNL     1     -40.692  53.487 -52.449  1.00  0.00     0.046 A 
HETATM   11  C   UNL     1     -40.343  52.993 -53.732  1.00  0.00    -0.035 A 
HETATM   12  C   UNL     1     -40.675  53.740 -54.998  1.00  0.00     0.050 C 
HETATM   13  C   UNL     1     -39.699  51.751 -53.850  1.00  0.00     0.009 A 
HETATM   14  C   UNL     1     -39.401  50.999 -52.720  1.00  0.00     0.001 A 
HETATM   15  C   UNL     1     -39.719  51.493 -51.460  1.00  0.00     0.009 A 
HETATM   16  C   UNL     1     -40.338  52.748 -51.301  1.00  0.00    -0.035 A 
HETATM   17  C   UNL     1     -40.523  53.235 -49.889  1.00  0.00     0.050 C 
ENDBRANCH   7  10
ENDBRANCH   5   6
ENDBRANCH   4   5
ENDBRANCH   2   4
ENDBRANCH   1   2
BRANCH   1  18
HETATM   18  N   UNL     1     -42.740  58.273 -56.035  1.00  0.00    -0.341 N 
HETATM   19  C   UNL     1     -42.721  57.086 -56.742  1.00  0.00     0.276 C 
HETATM   20  O   UNL     1     -42.803  55.996 -56.184  1.00  0.00    -0.265 OA
HETATM   21  H   UNL     1     -42.504  59.106 -56.565  1.00  0.00     0.163 HD
BRANCH  19  22
HETATM   22  C   UNL     1     -42.554  57.239 -58.171  1.00  0.00     0.142 A 
HETATM   23  O   UNL     1     -43.004  56.257 -59.015  1.00  0.00    -0.317 OA
HETATM   24  C   UNL     1     -42.752  56.676 -60.283  1.00  0.00     0.143 A 
HETATM   25  C   UNL     1     -42.144  57.909 -60.275  1.00  0.00     0.027 A 
HETATM   26  C   UNL     1     -42.016  58.274 -58.914  1.00  0.00     0.045 A 
ENDBRANCH  19  22
ENDBRANCH   1  18
BRANCH   1  27
HETATM   27  C   UNL     1     -41.979  59.600 -54.072  1.00  0.00     0.074 C 
BRANCH  27  28
HETATM   28  C   UNL     1     -41.473  59.596 -52.645  1.00  0.00    -0.056 A 
HETATM   29  C   UNL     1     -40.245  58.979 -52.355  1.00  0.00     0.007 A 
HETATM   30  C   UNL     1     -39.731  58.988 -51.058  1.00  0.00     0.001 A 
HETATM   31  C   UNL     1     -40.432  59.619 -50.036  1.00  0.00     0.000 A 
HETATM   32  C   UNL     1     -41.645  60.247 -50.312  1.00  0.00     0.001 A 
HETATM   33  C   UNL     1     -42.160  60.243 -51.610  1.00  0.00     0.007 A 
ENDBRANCH  27  28
ENDBRANCH   1  27
TORSDOF 9
ENDMDL
MODEL 6
REMARK VINA RESULT:      -7.6      4.150      5.621
REMARK  9 active torsions:
REMARK  status: ('A' for Active; 'I' for Inactive)
REMARK    1  A    between atoms: C_3  and  N_4 
REMARK       I    between atoms: N_4  and  C_5 
REMARK    2  A    between atoms: C_5  and  C_6 
REMARK    3  A    between atoms: C_6  and  O_7 
REMARK    4  A    between atoms: O_7  and  C_8 
REMARK    5  A    between atoms: C_8  and  C_9 
REMARK    6  A    between atoms: C_9  and  N_10 
REMARK    7  A    between atoms: C_9  and  C_18 
REMARK       I    between atoms: N_10  and  C_11 
REMARK    8  A    between atoms: C_11  and  C_12 
REMARK    9  A    between atoms: C_18  and  C_19 
ROOT
HETATM    1  C   UNL     1     -42.597  58.678 -56.241  1.00  0.00     0.189 C 
ENDROOT
BRANCH   1   2
HETATM    2  C   UNL     1     -42.169  58.630 -54.766  1.00  0.00     0.282 C 
HETATM    3  O   UNL     1     -41.201  59.223 -54.295  1.00  0.00    -0.263 OA
BRANCH   2   4
HETATM    4  O   UNL     1     -43.018  57.862 -54.034  1.00  0.00    -0.311 OA
BRANCH   4   5
HETATM    5  C   UNL     1     -42.495  57.311 -52.828  1.00  0.00     0.281 C 
BRANCH   5   6
HETATM    6  C   UNL     1     -42.369  55.777 -52.747  1.00  0.00     0.246 C 
HETATM    7  N   UNL     1     -41.056  55.342 -52.729  1.00  0.00    -0.324 N 
HETATM    8  H   UNL     1     -40.365  56.060 -52.943  1.00  0.00     0.169 HD
HETATM    9  O   UNL     1     -43.367  55.064 -52.813  1.00  0.00    -0.271 OA
BRANCH   7  10
HETATM   10  C   UNL     1     -40.595  54.007 -52.770  1.00  0.00     0.046 A 
HETATM   11  C   UNL     1     -40.418  53.426 -54.052  1.00  0.00    -0.035 A 
HETATM   12  C   UNL     1     -40.750  54.166 -55.322  1.00  0.00     0.050 C 
HETATM   13  C   UNL     1     -39.952  52.106 -54.162  1.00  0.00     0.009 A 
HETATM   14  C   UNL     1     -39.664  51.361 -53.025  1.00  0.00     0.001 A 
HETATM   15  C   UNL     1     -39.813  51.937 -51.768  1.00  0.00     0.009 A 
HETATM   16  C   UNL     1     -40.248  53.268 -51.619  1.00  0.00    -0.035 A 
HETATM   17  C   UNL     1     -40.253  53.824 -50.222  1.00  0.00     0.050 C 
ENDBRANCH   7  10
ENDBRANCH   5   6
ENDBRANCH   4   5
ENDBRANCH   2   4
ENDBRANCH   1   2
BRANCH   1  18
HETATM   18  N   UNL     1     -41.836  59.692 -56.964  1.00  0.00    -0.341 N 
HETATM   19  C   UNL     1     -42.482  60.704 -57.647  1.00  0.00     0.276 C 
HETATM   20  O   UNL     1     -43.678  60.931 -57.492  1.00  0.00    -0.265 OA
HETATM   21  H   UNL     1     -40.894  59.480 -57.280  1.00  0.00     0.163 HD
BRANCH  19  22
HETATM   22  C   UNL     1     -41.648  61.431 -58.578  1.00  0.00     0.142 A 
HETATM   23  O   UNL     1     -40.421  61.893 -58.173  1.00  0.00    -0.317 OA
HETATM   24  C   UNL     1     -39.849  62.499 -59.246  1.00  0.00     0.143 A 
HETATM   25  C   UNL     1     -40.683  62.442 -60.337  1.00  0.00     0.027 A 
HETATM   26  C   UNL     1     -41.843  61.754 -59.909  1.00  0.00     0.045 A 
ENDBRANCH  19  22
ENDBRANCH   1  18
BRANCH   1  27
HETATM   27  C   UNL     1     -42.377  57.268 -56.824  1.00  0.00     0.074 C 
BRANCH  27  28
HETATM   28  C   UNL     1     -43.367  56.818 -57.877  1.00  0.00    -0.056 A 
HETATM   29  C   UNL     1     -44.532  57.571 -58.088  1.00  0.00     0.007 A 
HETATM   30  C   UNL     1     -45.450  57.207 -59.075  1.00  0.00     0.001 A 
HETATM   31  C   UNL     1     -45.210  56.090 -59.869  1.00  0.00     0.000 A 
HETATM   32  C   UNL     1     -44.050  55.342 -59.680  1.00  0.00     0.001 A 
HETATM   33  C   UNL     1     -43.129  55.706 -58.695  1.00  0.00     0.007 A 
ENDBRANCH  27  28
ENDBRANCH   1  27
TORSDOF 9
ENDMDL
MODEL 7
REMARK VINA RESULT:      -7.5      4.146      7.656
REMARK  9 active torsions:
REMARK  status: ('A' for Active; 'I' for Inactive)
REMARK    1  A    between atoms: C_3  and  N_4 
REMARK       I    between atoms: N_4  and  C_5 
REMARK    2  A    between atoms: C_5  and  C_6 
REMARK    3  A    between atoms: C_6  and  O_7 
REMARK    4  A    between atoms: O_7  and  C_8 
REMARK    5  A    between atoms: C_8  and  C_9 
REMARK    6  A    between atoms: C_9  and  N_10 
REMARK    7  A    between atoms: C_9  and  C_18 
REMARK       I    between atoms: N_10  and  C_11 
REMARK    8  A    between atoms: C_11  and  C_12 
REMARK    9  A    between atoms: C_18  and  C_19 
ROOT
HETATM    1  C   UNL     1     -42.218  55.794 -53.914  1.00  0.00     0.189 C 
ENDROOT
BRANCH   1   2
HETATM    2  C   UNL     1     -43.370  56.277 -54.810  1.00  0.00     0.282 C 
HETATM    3  O   UNL     1     -44.337  56.927 -54.422  1.00  0.00    -0.263 OA
BRANCH   2   4
HETATM    4  O   UNL     1     -43.169  55.912 -56.103  1.00  0.00    -0.311 OA
BRANCH   4   5
HETATM    5  C   UNL     1     -42.612  56.905 -56.962  1.00  0.00     0.281 C 
BRANCH   5   6
HETATM    6  C   UNL     1     -43.370  57.218 -58.266  1.00  0.00     0.246 C 
HETATM    7  N   UNL     1     -44.727  56.962 -58.178  1.00  0.00    -0.324 N 
HETATM    8  H   UNL     1     -45.012  56.448 -57.345  1.00  0.00     0.169 HD
HETATM    9  O   UNL     1     -42.760  57.548 -59.280  1.00  0.00    -0.271 OA
BRANCH   7  10
HETATM   10  C   UNL     1     -45.682  57.035 -59.217  1.00  0.00     0.046 A 
HETATM   11  C   UNL     1     -46.391  58.255 -59.355  1.00  0.00    -0.035 A 
HETATM   12  C   UNL     1     -46.187  59.414 -58.414  1.00  0.00     0.050 C 
HETATM   13  C   UNL     1     -47.346  58.396 -60.375  1.00  0.00     0.009 A 
HETATM   14  C   UNL     1     -47.605  57.349 -61.250  1.00  0.00     0.001 A 
HETATM   15  C   UNL     1     -46.893  56.160 -61.133  1.00  0.00     0.009 A 
HETATM   16  C   UNL     1     -45.906  55.993 -60.142  1.00  0.00    -0.035 A 
HETATM   17  C   UNL     1     -45.115  54.715 -60.187  1.00  0.00     0.050 C 
ENDBRANCH   7  10
ENDBRANCH   5   6
ENDBRANCH   4   5
ENDBRANCH   2   4
ENDBRANCH   1   2
BRANCH   1  18
HETATM   18  N   UNL     1     -41.984  56.739 -52.825  1.00  0.00    -0.341 N 
HETATM   19  C   UNL     1     -41.259  57.895 -53.040  1.00  0.00     0.276 C 
HETATM   20  O   UNL     1     -40.986  58.289 -54.170  1.00  0.00    -0.265 OA
HETATM   21  H   UNL     1     -42.017  56.412 -51.864  1.00  0.00     0.163 HD
BRANCH  19  22
HETATM   22  C   UNL     1     -40.822  58.564 -51.835  1.00  0.00     0.142 A 
HETATM   23  O   UNL     1     -39.576  59.137 -51.791  1.00  0.00    -0.317 OA
HETATM   24  C   UNL     1     -39.448  59.717 -50.569  1.00  0.00     0.143 A 
HETATM   25  C   UNL     1     -40.585  59.528 -49.820  1.00  0.00     0.027 A 
HETATM   26  C   UNL     1     -41.472  58.785 -50.635  1.00  0.00     0.045 A 
ENDBRANCH  19  22
ENDBRANCH   1  18
BRANCH   1  27
HETATM   27  C   UNL     1     -42.605  54.396 -53.391  1.00  0.00     0.074 C 
BRANCH  27  28
HETATM   28  C   UNL     1     -41.467  53.417 -53.197  1.00  0.00    -0.056 A 
HETATM   29  C   UNL     1     -40.872  53.300 -51.931  1.00  0.00     0.007 A 
HETATM   30  C   UNL     1     -39.845  52.383 -51.706  1.00  0.00     0.001 A 
HETATM   31  C   UNL     1     -39.404  51.565 -52.742  1.00  0.00     0.000 A 
HETATM   32  C   UNL     1     -39.995  51.661 -54.000  1.00  0.00     0.001 A 
HETATM   33  C   UNL     1     -41.025  52.576 -54.226  1.00  0.00     0.007 A 
ENDBRANCH  27  28
ENDBRANCH   1  27
TORSDOF 9
ENDMDL
MODEL 8
REMARK VINA RESULT:      -7.5      5.260      7.458
REMARK  9 active torsions:
REMARK  status: ('A' for Active; 'I' for Inactive)
REMARK    1  A    between atoms: C_3  and  N_4 
REMARK       I    between atoms: N_4  and  C_5 
REMARK    2  A    between atoms: C_5  and  C_6 
REMARK    3  A    between atoms: C_6  and  O_7 
REMARK    4  A    between atoms: O_7  and  C_8 
REMARK    5  A    between atoms: C_8  and  C_9 
REMARK    6  A    between atoms: C_9  and  N_10 
REMARK    7  A    between atoms: C_9  and  C_18 
REMARK       I    between atoms: N_10  and  C_11 
REMARK    8  A    between atoms: C_11  and  C_12 
REMARK    9  A    between atoms: C_18  and  C_19 
ROOT
HETATM    1  C   UNL     1     -42.127  59.058 -57.953  1.00  0.00     0.189 C 
ENDROOT
BRANCH   1   2
HETATM    2  C   UNL     1     -42.059  59.018 -56.418  1.00  0.00     0.282 C 
HETATM    3  O   UNL     1     -41.625  59.923 -55.710  1.00  0.00    -0.263 OA
BRANCH   2   4
HETATM    4  O   UNL     1     -42.568  57.854 -55.936  1.00  0.00    -0.311 OA
BRANCH   4   5
HETATM    5  C   UNL     1     -42.660  57.743 -54.518  1.00  0.00     0.281 C 
BRANCH   5   6
HETATM    6  C   UNL     1     -41.632  56.838 -53.811  1.00  0.00     0.246 C 
HETATM    7  N   UNL     1     -42.061  55.528 -53.685  1.00  0.00    -0.324 N 
HETATM    8  H   UNL     1     -43.044  55.377 -53.909  1.00  0.00     0.169 HD
HETATM    9  O   UNL     1     -40.607  57.313 -53.329  1.00  0.00    -0.271 OA
BRANCH   7  10
HETATM   10  C   UNL     1     -41.415  54.478 -52.995  1.00  0.00     0.046 A 
HETATM   11  C   UNL     1     -40.549  53.648 -53.752  1.00  0.00    -0.035 A 
HETATM   12  C   UNL     1     -40.355  53.829 -55.235  1.00  0.00     0.050 C 
HETATM   13  C   UNL     1     -39.869  52.593 -53.124  1.00  0.00     0.009 A 
HETATM   14  C   UNL     1     -40.036  52.352 -51.766  1.00  0.00     0.001 A 
HETATM   15  C   UNL     1     -40.864  53.181 -51.017  1.00  0.00     0.009 A 
HETATM   16  C   UNL     1     -41.540  54.267 -51.606  1.00  0.00    -0.035 A 
HETATM   17  C   UNL     1     -42.308  55.167 -50.678  1.00  0.00     0.050 C 
ENDBRANCH   7  10
ENDBRANCH   5   6
ENDBRANCH   4   5
ENDBRANCH   2   4
ENDBRANCH   1   2
BRANCH   1  18
HETATM   18  N   UNL     1     -43.026  58.023 -58.454  1.00  0.00    -0.341 N 
HETATM   19  C   UNL     1     -42.954  57.603 -59.768  1.00  0.00     0.276 C 
HETATM   20  O   UNL     1     -42.008  57.898 -60.493  1.00  0.00    -0.265 OA
HETATM   21  H   UNL     1     -43.917  57.867 -57.991  1.00  0.00     0.163 HD
BRANCH  19  22
HETATM   22  C   UNL     1     -44.093  56.834 -60.219  1.00  0.00     0.142 A 
HETATM   23  O   UNL     1     -43.896  55.609 -60.804  1.00  0.00    -0.317 OA
HETATM   24  C   UNL     1     -45.124  55.103 -61.092  1.00  0.00     0.143 A 
HETATM   25  C   UNL     1     -46.111  55.979 -60.708  1.00  0.00     0.027 A 
HETATM   26  C   UNL     1     -45.449  57.095 -60.145  1.00  0.00     0.045 A 
ENDBRANCH  19  22
ENDBRANCH   1  18
BRANCH   1  27
HETATM   27  C   UNL     1     -42.598  60.472 -58.349  1.00  0.00     0.074 C 
BRANCH  27  28
HETATM   28  C   UNL     1     -41.619  61.301 -59.153  1.00  0.00    -0.056 A 
HETATM   29  C   UNL     1     -41.808  61.434 -60.537  1.00  0.00     0.007 A 
HETATM   30  C   UNL     1     -40.946  62.220 -61.304  1.00  0.00     0.001 A 
HETATM   31  C   UNL     1     -39.889  62.889 -60.695  1.00  0.00     0.000 A 
HETATM   32  C   UNL     1     -39.698  62.778 -59.319  1.00  0.00     0.001 A 
HETATM   33  C   UNL     1     -40.562  61.994 -58.550  1.00  0.00     0.007 A 
ENDBRANCH  27  28
ENDBRANCH   1  27
TORSDOF 9
ENDMDL
MODEL 9
REMARK VINA RESULT:      -7.3      5.489      7.822
REMARK  9 active torsions:
REMARK  status: ('A' for Active; 'I' for Inactive)
REMARK    1  A    between atoms: C_3  and  N_4 
REMARK       I    between atoms: N_4  and  C_5 
REMARK    2  A    between atoms: C_5  and  C_6 
REMARK    3  A    between atoms: C_6  and  O_7 
REMARK    4  A    between atoms: O_7  and  C_8 
REMARK    5  A    between atoms: C_8  and  C_9 
REMARK    6  A    between atoms: C_9  and  N_10 
REMARK    7  A    between atoms: C_9  and  C_18 
REMARK       I    between atoms: N_10  and  C_11 
REMARK    8  A    between atoms: C_11  and  C_12 
REMARK    9  A    between atoms: C_18  and  C_19 
ROOT
HETATM    1  C   UNL     1     -42.187  59.377 -58.411  1.00  0.00     0.189 C 
ENDROOT
BRANCH   1   2
HETATM    2  C   UNL     1     -41.986  59.426 -56.888  1.00  0.00     0.282 C 
HETATM    3  O   UNL     1     -41.603  60.409 -56.260  1.00  0.00    -0.263 OA
BRANCH   2   4
HETATM    4  O   UNL     1     -42.314  58.239 -56.313  1.00  0.00    -0.311 OA
BRANCH   4   5
HETATM    5  C   UNL     1     -42.486  58.246 -54.898  1.00  0.00     0.281 C 
BRANCH   5   6
HETATM    6  C   UNL     1     -41.591  57.304 -54.072  1.00  0.00     0.246 C 
HETATM    7  N   UNL     1     -42.147  56.049 -53.892  1.00  0.00    -0.324 N 
HETATM    8  H   UNL     1     -43.124  55.971 -54.171  1.00  0.00     0.169 HD
HETATM    9  O   UNL     1     -40.556  57.717 -53.555  1.00  0.00    -0.271 OA
BRANCH   7  10
HETATM   10  C   UNL     1     -41.643  54.994 -53.098  1.00  0.00     0.046 A 
HETATM   11  C   UNL     1     -42.187  54.852 -51.796  1.00  0.00    -0.035 A 
HETATM   12  C   UNL     1     -43.218  55.804 -51.248  1.00  0.00     0.050 C 
HETATM   13  C   UNL     1     -41.737  53.818 -50.961  1.00  0.00     0.009 A 
HETATM   14  C   UNL     1     -40.761  52.931 -51.397  1.00  0.00     0.001 A 
HETATM   15  C   UNL     1     -40.245  53.052 -52.683  1.00  0.00     0.009 A 
HETATM   16  C   UNL     1     -40.693  54.059 -53.559  1.00  0.00    -0.035 A 
HETATM   17  C   UNL     1     -40.156  54.019 -54.964  1.00  0.00     0.050 C 
ENDBRANCH   7  10
ENDBRANCH   5   6
ENDBRANCH   4   5
ENDBRANCH   2   4
ENDBRANCH   1   2
BRANCH   1  18
HETATM   18  N   UNL     1     -43.203  58.390 -58.764  1.00  0.00    -0.341 N 
HETATM   19  C   UNL     1     -42.945  57.424 -59.716  1.00  0.00     0.276 C 
HETATM   20  O   UNL     1     -41.809  57.206 -60.129  1.00  0.00    -0.265 OA
HETATM   21  H   UNL     1     -44.184  58.605 -58.610  1.00  0.00     0.163 HD
BRANCH  19  22
HETATM   22  C   UNL     1     -44.117  56.733 -60.207  1.00  0.00     0.142 A 
HETATM   23  O   UNL     1     -43.969  55.640 -61.022  1.00  0.00    -0.317 OA
HETATM   24  C   UNL     1     -45.216  55.176 -61.297  1.00  0.00     0.143 A 
HETATM   25  C   UNL     1     -46.168  55.950 -60.679  1.00  0.00     0.027 A 
HETATM   26  C   UNL     1     -45.462  56.954 -59.975  1.00  0.00     0.045 A 
ENDBRANCH  19  22
ENDBRANCH   1  18
BRANCH   1  27
HETATM   27  C   UNL     1     -42.582  60.798 -58.862  1.00  0.00     0.074 C 
BRANCH  27  28
HETATM   28  C   UNL     1     -41.534  61.569 -59.636  1.00  0.00    -0.056 A 
HETATM   29  C   UNL     1     -41.647  61.664 -61.032  1.00  0.00     0.007 A 
HETATM   30  C   UNL     1     -40.719  62.396 -61.775  1.00  0.00     0.001 A 
HETATM   31  C   UNL     1     -39.672  63.049 -61.131  1.00  0.00     0.000 A 
HETATM   32  C   UNL     1     -39.557  62.974 -59.745  1.00  0.00     0.001 A 
HETATM   33  C   UNL     1     -40.486  62.244 -58.999  1.00  0.00     0.007 A 
ENDBRANCH  27  28
ENDBRANCH   1  27
TORSDOF 9
ENDMDL
MODEL 10
REMARK VINA RESULT:      -7.2      3.572      4.630
REMARK  9 active torsions:
REMARK  status: ('A' for Active; 'I' for Inactive)
REMARK    1  A    between atoms: C_3  and  N_4 
REMARK       I    between atoms: N_4  and  C_5 
REMARK    2  A    between atoms: C_5  and  C_6 
REMARK    3  A    between atoms: C_6  and  O_7 
REMARK    4  A    between atoms: O_7  and  C_8 
REMARK    5  A    between atoms: C_8  and  C_9 
REMARK    6  A    between atoms: C_9  and  N_10 
REMARK    7  A    between atoms: C_9  and  C_18 
REMARK       I    between atoms: N_10  and  C_11 
REMARK    8  A    between atoms: C_11  and  C_12 
REMARK    9  A    between atoms: C_18  and  C_19 
ROOT
HETATM    1  C   UNL     1     -42.921  57.786 -55.636  1.00  0.00     0.189 C 
ENDROOT
BRANCH   1   2
HETATM    2  C   UNL     1     -41.951  58.625 -54.789  1.00  0.00     0.282 C 
HETATM    3  O   UNL     1     -41.695  59.811 -54.981  1.00  0.00    -0.263 OA
BRANCH   2   4
HETATM    4  O   UNL     1     -41.426  57.890 -53.774  1.00  0.00    -0.311 OA
BRANCH   4   5
HETATM    5  C   UNL     1     -42.359  57.296 -52.874  1.00  0.00     0.281 C 
BRANCH   5   6
HETATM    6  C   UNL     1     -42.238  55.780 -52.629  1.00  0.00     0.246 C 
HETATM    7  N   UNL     1     -40.947  55.307 -52.792  1.00  0.00    -0.324 N 
HETATM    8  H   UNL     1     -40.299  55.971 -53.213  1.00  0.00     0.169 HD
HETATM    9  O   UNL     1     -43.238  55.097 -52.426  1.00  0.00    -0.271 OA
BRANCH   7  10
HETATM   10  C   UNL     1     -40.516  53.962 -52.750  1.00  0.00     0.046 A 
HETATM   11  C   UNL     1     -40.385  53.289 -53.992  1.00  0.00    -0.035 A 
HETATM   12  C   UNL     1     -40.734  53.945 -55.302  1.00  0.00     0.050 C 
HETATM   13  C   UNL     1     -39.951  51.954 -54.020  1.00  0.00     0.009 A 
HETATM   14  C   UNL     1     -39.650  51.284 -52.840  1.00  0.00     0.001 A 
HETATM   15  C   UNL     1     -39.753  51.950 -51.624  1.00  0.00     0.009 A 
HETATM   16  C   UNL     1     -40.156  53.297 -51.559  1.00  0.00    -0.035 A 
HETATM   17  C   UNL     1     -40.113  53.950 -50.204  1.00  0.00     0.050 C 
ENDBRANCH   7  10
ENDBRANCH   5   6
ENDBRANCH   4   5
ENDBRANCH   2   4
ENDBRANCH   1   2
BRANCH   1  18
HETATM   18  N   UNL     1     -43.946  58.636 -56.236  1.00  0.00    -0.341 N 
HETATM   19  C   UNL     1     -45.286  58.347 -56.067  1.00  0.00     0.276 C 
HETATM   20  O   UNL     1     -45.675  57.528 -55.239  1.00  0.00    -0.265 OA
HETATM   21  H   UNL     1     -43.716  59.199 -57.049  1.00  0.00     0.163 HD
BRANCH  19  22
HETATM   22  C   UNL     1     -46.172  59.052 -56.967  1.00  0.00     0.142 A 
HETATM   23  O   UNL     1     -46.048  60.409 -57.117  1.00  0.00    -0.317 OA
HETATM   24  C   UNL     1     -46.971  60.795 -58.037  1.00  0.00     0.143 A 
HETATM   25  C   UNL     1     -47.693  59.713 -58.481  1.00  0.00     0.027 A 
HETATM   26  C   UNL     1     -47.180  58.589 -57.793  1.00  0.00     0.045 A 
ENDBRANCH  19  22
ENDBRANCH   1  18
BRANCH   1  27
HETATM   27  C   UNL     1     -42.079  57.059 -56.703  1.00  0.00     0.074 C 
BRANCH  27  28
HETATM   28  C   UNL     1     -42.804  56.667 -57.973  1.00  0.00    -0.056 A 
HETATM   29  C   UNL     1     -42.751  57.522 -59.085  1.00  0.00     0.007 A 
HETATM   30  C   UNL     1     -43.377  57.176 -60.283  1.00  0.00     0.001 A 
HETATM   31  C   UNL     1     -44.059  55.967 -60.387  1.00  0.00     0.000 A 
HETATM   32  C   UNL     1     -44.108  55.103 -59.296  1.00  0.00     0.001 A 
HETATM   33  C   UNL     1     -43.479  55.446 -58.097  1.00  0.00     0.007 A 
ENDBRANCH  27  28
ENDBRANCH   1  27
TORSDOF 9
ENDMDL
