MODEL 1
REMARK VINA RESULT:      -9.2      0.000      0.000
REMARK  5 active torsions:
REMARK  status: ('A' for Active; 'I' for Inactive)
REMARK    1  A    between atoms: C_7  and  C_8 
REMARK    2  A    between atoms: C_16  and  C_17 
REMARK    3  A    between atoms: C_19  and  O_20 
REMARK    4  A    between atoms: C_24  and  C_25 
REMARK       I    between atoms: C_25  and  N_26 
REMARK    5  A    between atoms: N_26  and  C_27 
ROOT
HETATM    1  C   UNL     1     -43.105  58.545 -57.064  1.00  0.00     0.070 C 
HETATM    2  C   UNL     1     -42.657  57.840 -55.804  1.00  0.00     0.037 A 
HETATM    3  N   UNL     1     -41.989  56.637 -56.010  1.00  0.00    -0.192 N 
HETATM    4  C   UNL     1     -41.622  55.811 -55.016  1.00  0.00     0.726 A 
HETATM    5  N   UNL     1     -41.822  56.197 -53.727  1.00  0.00    -0.083 N 
HETATM    6  N   UNL     1     -41.534  55.205 -52.862  1.00  0.00    -0.135 NA
HETATM    7  C   UNL     1     -41.052  54.263 -53.695  1.00  0.00     0.199 A 
HETATM    8  N   UNL     1     -41.109  54.610 -55.035  1.00  0.00    -0.041 NA
HETATM    9  C   UNL     1     -42.422  57.477 -53.334  1.00  0.00     0.202 A 
HETATM   10  C   UNL     1     -42.895  58.290 -54.540  1.00  0.00     0.062 A 
HETATM   11  H   UNL     1     -41.871  56.322 -56.969  1.00  0.00     0.184 HD
ENDROOT
BRANCH  10  12
HETATM   12  C   UNL     1     -43.572  59.615 -54.311  1.00  0.00     0.256 C 
HETATM   13  N   UNL     1     -44.916  59.554 -53.998  1.00  0.00    -0.323 N 
HETATM   14  H   UNL     1     -45.341  58.659 -53.818  1.00  0.00     0.169 HD
HETATM   15  O   UNL     1     -42.912  60.649 -54.363  1.00  0.00    -0.267 OA
BRANCH  13  16
HETATM   16  C   UNL     1     -45.798  60.646 -53.826  1.00  0.00     0.035 A 
HETATM   17  C   UNL     1     -46.123  61.557 -54.833  1.00  0.00     0.029 A 
HETATM   18  C   UNL     1     -47.029  62.594 -54.587  1.00  0.00     0.002 A 
HETATM   19  C   UNL     1     -47.614  62.732 -53.331  1.00  0.00     0.000 A 
HETATM   20  C   UNL     1     -47.297  61.831 -52.319  1.00  0.00     0.002 A 
HETATM   21  C   UNL     1     -46.398  60.790 -52.567  1.00  0.00     0.029 A 
ENDBRANCH  13  16
ENDBRANCH  10  12
BRANCH   9  22
HETATM   22  C   UNL     1     -41.463  58.226 -52.412  1.00  0.00    -0.025 A 
HETATM   23  C   UNL     1     -40.144  58.527 -52.799  1.00  0.00     0.046 A 
HETATM   24  C   UNL     1     -39.298  59.197 -51.918  1.00  0.00     0.066 A 
HETATM   25  C   UNL     1     -39.729  59.562 -50.649  1.00  0.00     0.036 A 
HETATM   26  C   UNL     1     -41.026  59.253 -50.246  1.00  0.00     0.003 A 
HETATM   27  C   UNL     1     -41.887  58.588 -51.119  1.00  0.00     0.010 A 
BRANCH  24  28
HETATM   28  O   UNL     1     -38.018  59.512 -52.265  1.00  0.00    -0.361 OA
HETATM   29  H   UNL     1     -37.418  59.218 -51.561  1.00  0.00     0.217 HD
ENDBRANCH  24  28
ENDBRANCH   9  22
BRANCH   7  30
HETATM   30  C   UNL     1     -40.535  52.974 -53.246  1.00  0.00     0.016 A 
HETATM   31  C   UNL     1     -40.323  51.929 -54.157  1.00  0.00     0.039 A 
HETATM   32  C   UNL     1     -39.831  50.702 -53.715  1.00  0.00     0.035 A 
HETATM   33 CL   UNL     1     -39.575  49.428 -54.842  1.00  0.00    -0.084 Cl
HETATM   34  C   UNL     1     -39.544  50.496 -52.366  1.00  0.00     0.024 A 
HETATM   35  C   UNL     1     -39.751  51.528 -51.452  1.00  0.00     0.003 A 
HETATM   36  C   UNL     1     -40.244  52.760 -51.890  1.00  0.00     0.015 A 
ENDBRANCH   7  30
TORSDOF 5
ENDMDL
MODEL 2
REMARK VINA RESULT:      -9.1      1.574      1.604
REMARK  5 active torsions:
REMARK  status: ('A' for Active; 'I' for Inactive)
REMARK    1  A    between atoms: C_7  and  C_8 
REMARK    2  A    between atoms: C_16  and  C_17 
REMARK    3  A    between atoms: C_19  and  O_20 
REMARK    4  A    between atoms: C_24  and  C_25 
REMARK       I    between atoms: C_25  and  N_26 
REMARK    5  A    between atoms: N_26  and  C_27 
ROOT
HETATM    1  C   UNL     1     -43.604  58.442 -56.652  1.00  0.00     0.070 C 
HETATM    2  C   UNL     1     -43.019  57.763 -55.434  1.00  0.00     0.037 A 
HETATM    3  N   UNL     1     -42.354  56.567 -55.691  1.00  0.00    -0.192 N 
HETATM    4  C   UNL     1     -41.874  55.763 -54.728  1.00  0.00     0.726 A 
HETATM    5  N   UNL     1     -41.949  56.165 -53.431  1.00  0.00    -0.083 N 
HETATM    6  N   UNL     1     -41.557  55.190 -52.587  1.00  0.00    -0.135 NA
HETATM    7  C   UNL     1     -41.146  54.243 -53.452  1.00  0.00     0.199 A 
HETATM    8  N   UNL     1     -41.345  54.570 -54.783  1.00  0.00    -0.041 NA
HETATM    9  C   UNL     1     -42.528  57.441 -52.996  1.00  0.00     0.202 A 
HETATM   10  C   UNL     1     -43.135  58.228 -54.159  1.00  0.00     0.062 A 
HETATM   11  H   UNL     1     -42.329  56.241 -56.653  1.00  0.00     0.184 HD
ENDROOT
BRANCH  10  12
HETATM   12  C   UNL     1     -43.808  59.546 -53.879  1.00  0.00     0.256 C 
HETATM   13  N   UNL     1     -42.991  60.657 -53.936  1.00  0.00    -0.323 N 
HETATM   14  H   UNL     1     -42.047  60.561 -54.273  1.00  0.00     0.169 HD
HETATM   15  O   UNL     1     -45.016  59.576 -53.667  1.00  0.00    -0.267 OA
BRANCH  13  16
HETATM   16  C   UNL     1     -43.349  61.991 -53.627  1.00  0.00     0.035 A 
HETATM   17  C   UNL     1     -43.729  62.940 -54.578  1.00  0.00     0.029 A 
HETATM   18  C   UNL     1     -44.097  64.231 -54.183  1.00  0.00     0.002 A 
HETATM   19  C   UNL     1     -44.084  64.585 -52.837  1.00  0.00     0.000 A 
HETATM   20  C   UNL     1     -43.706  63.647 -51.881  1.00  0.00     0.002 A 
HETATM   21  C   UNL     1     -43.347  62.355 -52.274  1.00  0.00     0.029 A 
ENDBRANCH  13  16
ENDBRANCH  10  12
BRANCH   9  22
HETATM   22  C   UNL     1     -41.494  58.218 -52.186  1.00  0.00    -0.025 A 
HETATM   23  C   UNL     1     -40.212  58.498 -52.693  1.00  0.00     0.046 A 
HETATM   24  C   UNL     1     -39.293  59.196 -51.911  1.00  0.00     0.066 A 
HETATM   25  C   UNL     1     -39.616  59.609 -50.625  1.00  0.00     0.036 A 
HETATM   26  C   UNL     1     -40.875  59.322 -50.104  1.00  0.00     0.003 A 
HETATM   27  C   UNL     1     -41.808  58.629 -50.877  1.00  0.00     0.010 A 
BRANCH  24  28
HETATM   28  O   UNL     1     -38.046  59.492 -52.376  1.00  0.00    -0.361 OA
HETATM   29  H   UNL     1     -38.091  60.308 -52.901  1.00  0.00     0.217 HD
ENDBRANCH  24  28
ENDBRANCH   9  22
BRANCH   7  30
HETATM   30  C   UNL     1     -40.564  52.970 -53.041  1.00  0.00     0.016 A 
HETATM   31  C   UNL     1     -40.285  51.971 -53.985  1.00  0.00     0.039 A 
HETATM   32  C   UNL     1     -39.731  50.758 -53.578  1.00  0.00     0.035 A 
HETATM   33 CL   UNL     1     -39.392  49.540 -54.746  1.00  0.00    -0.084 Cl
HETATM   34  C   UNL     1     -39.449  50.521 -52.234  1.00  0.00     0.024 A 
HETATM   35  C   UNL     1     -39.723  51.506 -51.287  1.00  0.00     0.003 A 
HETATM   36  C   UNL     1     -40.278  52.724 -51.689  1.00  0.00     0.015 A 
ENDBRANCH   7  30
TORSDOF 5
ENDMDL
MODEL 3
REMARK VINA RESULT:      -9.0      1.890      2.065
REMARK  5 active torsions:
REMARK  status: ('A' for Active; 'I' for Inactive)
REMARK    1  A    between atoms: C_7  and  C_8 
REMARK    2  A    between atoms: C_16  and  C_17 
REMARK    3  A    between atoms: C_19  and  O_20 
REMARK    4  A    between atoms: C_24  and  C_25 
REMARK       I    between atoms: C_25  and  N_26 
REMARK    5  A    between atoms: N_26  and  C_27 
ROOT
HETATM    1  C   UNL     1     -43.041  57.951 -57.484  1.00  0.00     0.070 C 
HETATM    2  C   UNL     1     -42.626  57.254 -56.208  1.00  0.00     0.037 A 
HETATM    3  N   UNL     1     -41.936  56.059 -56.389  1.00  0.00    -0.192 N 
HETATM    4  C   UNL     1     -41.591  55.240 -55.382  1.00  0.00     0.726 A 
HETATM    5  N   UNL     1     -41.838  55.626 -54.100  1.00  0.00    -0.083 N 
HETATM    6  N   UNL     1     -41.565  54.639 -53.225  1.00  0.00    -0.135 NA
HETATM    7  C   UNL     1     -41.044  53.702 -54.039  1.00  0.00     0.199 A 
HETATM    8  N   UNL     1     -41.061  54.045 -55.381  1.00  0.00    -0.041 NA
HETATM    9  C   UNL     1     -42.468  56.898 -53.731  1.00  0.00     0.202 A 
HETATM   10  C   UNL     1     -42.912  57.703 -54.954  1.00  0.00     0.062 A 
HETATM   11  H   UNL     1     -41.783  55.744 -57.343  1.00  0.00     0.184 HD
ENDROOT
BRANCH  10  12
HETATM   12  C   UNL     1     -43.613  59.019 -54.749  1.00  0.00     0.256 C 
HETATM   13  N   UNL     1     -42.810  60.141 -54.817  1.00  0.00    -0.323 N 
HETATM   14  H   UNL     1     -41.852  60.046 -55.114  1.00  0.00     0.169 HD
HETATM   15  O   UNL     1     -44.829  59.038 -54.585  1.00  0.00    -0.267 OA
BRANCH  13  16
HETATM   16  C   UNL     1     -43.198  61.479 -54.573  1.00  0.00     0.035 A 
HETATM   17  C   UNL     1     -43.783  62.312 -55.528  1.00  0.00     0.029 A 
HETATM   18  C   UNL     1     -44.165  63.616 -55.194  1.00  0.00     0.002 A 
HETATM   19  C   UNL     1     -43.962  64.099 -53.904  1.00  0.00     0.000 A 
HETATM   20  C   UNL     1     -43.378  63.278 -52.944  1.00  0.00     0.002 A 
HETATM   21  C   UNL     1     -43.004  61.972 -53.275  1.00  0.00     0.029 A 
ENDBRANCH  13  16
ENDBRANCH  10  12
BRANCH   9  22
HETATM   22  C   UNL     1     -41.549  57.661 -52.779  1.00  0.00    -0.025 A 
HETATM   23  C   UNL     1     -40.315  58.188 -53.201  1.00  0.00     0.046 A 
HETATM   24  C   UNL     1     -39.501  58.862 -52.294  1.00  0.00     0.066 A 
HETATM   25  C   UNL     1     -39.880  59.012 -50.966  1.00  0.00     0.036 A 
HETATM   26  C   UNL     1     -41.090  58.479 -50.530  1.00  0.00     0.003 A 
HETATM   27  C   UNL     1     -41.919  57.806 -51.429  1.00  0.00     0.010 A 
BRANCH  24  28
HETATM   28  O   UNL     1     -38.304  59.393 -52.673  1.00  0.00    -0.361 OA
HETATM   29  H   UNL     1     -37.713  59.419 -51.904  1.00  0.00     0.217 HD
ENDBRANCH  24  28
ENDBRANCH   9  22
BRANCH   7  30
HETATM   30  C   UNL     1     -40.525  52.421 -53.571  1.00  0.00     0.016 A 
HETATM   31  C   UNL     1     -40.468  52.127 -52.201  1.00  0.00     0.039 A 
HETATM   32  C   UNL     1     -39.968  50.900 -51.767  1.00  0.00     0.035 A 
HETATM   33 CL   UNL     1     -39.903  50.550 -50.083  1.00  0.00    -0.084 Cl
HETATM   34  C   UNL     1     -39.518  49.952 -52.685  1.00  0.00     0.024 A 
HETATM   35  C   UNL     1     -39.569  50.233 -54.049  1.00  0.00     0.003 A 
HETATM   36  C   UNL     1     -40.070  51.462 -54.489  1.00  0.00     0.015 A 
ENDBRANCH   7  30
TORSDOF 5
ENDMDL
MODEL 4
REMARK VINA RESULT:      -8.8      3.519      9.117
REMARK  5 active torsions:
REMARK  status: ('A' for Active; 'I' for Inactive)
REMARK    1  A    between atoms: C_7  and  C_8 
REMARK    2  A    between atoms: C_16  and  C_17 
REMARK    3  A    between atoms: C_19  and  O_20 
REMARK    4  A    between atoms: C_24  and  C_25 
REMARK       I    between atoms: C_25  and  N_26 
REMARK    5  A    between atoms: N_26  and  C_27 
ROOT
HETATM    1  C   UNL     1     -40.950  56.360 -49.902  1.00  0.00     0.070 C 
HETATM    2  C   UNL     1     -41.996  56.702 -50.939  1.00  0.00     0.037 A 
HETATM    3  N   UNL     1     -42.363  58.044 -50.983  1.00  0.00    -0.192 N 
HETATM    4  C   UNL     1     -43.358  58.518 -51.751  1.00  0.00     0.726 A 
HETATM    5  N   UNL     1     -43.993  57.673 -52.608  1.00  0.00    -0.083 N 
HETATM    6  N   UNL     1     -45.050  58.265 -53.196  1.00  0.00    -0.135 NA
HETATM    7  C   UNL     1     -44.939  59.524 -52.730  1.00  0.00     0.199 A 
HETATM    8  N   UNL     1     -43.907  59.701 -51.823  1.00  0.00    -0.041 NA
HETATM    9  C   UNL     1     -43.662  56.251 -52.758  1.00  0.00     0.202 A 
HETATM   10  C   UNL     1     -42.590  55.797 -51.766  1.00  0.00     0.062 A 
HETATM   11  H   UNL     1     -41.922  58.674 -50.318  1.00  0.00     0.184 HD
ENDROOT
BRANCH  10  12
HETATM   12  C   UNL     1     -42.162  54.354 -51.760  1.00  0.00     0.256 C 
HETATM   13  N   UNL     1     -41.047  54.057 -52.519  1.00  0.00    -0.323 N 
HETATM   14  H   UNL     1     -40.513  54.808 -52.926  1.00  0.00     0.169 HD
HETATM   15  O   UNL     1     -42.773  53.544 -51.069  1.00  0.00    -0.267 OA
BRANCH  13  16
HETATM   16  C   UNL     1     -40.497  52.776 -52.755  1.00  0.00     0.035 A 
HETATM   17  C   UNL     1     -39.821  52.024 -51.792  1.00  0.00     0.029 A 
HETATM   18  C   UNL     1     -39.333  50.750 -52.101  1.00  0.00     0.002 A 
HETATM   19  C   UNL     1     -39.512  50.218 -53.375  1.00  0.00     0.000 A 
HETATM   20  C   UNL     1     -40.183  50.959 -54.343  1.00  0.00     0.002 A 
HETATM   21  C   UNL     1     -40.678  52.229 -54.033  1.00  0.00     0.029 A 
ENDBRANCH  13  16
ENDBRANCH  10  12
BRANCH   9  22
HETATM   22  C   UNL     1     -43.327  55.960 -54.219  1.00  0.00    -0.025 A 
HETATM   23  C   UNL     1     -42.777  56.940 -55.064  1.00  0.00     0.046 A 
HETATM   24  C   UNL     1     -42.503  56.635 -56.396  1.00  0.00     0.066 A 
HETATM   25  C   UNL     1     -42.780  55.376 -56.913  1.00  0.00     0.036 A 
HETATM   26  C   UNL     1     -43.342  54.401 -56.092  1.00  0.00     0.003 A 
HETATM   27  C   UNL     1     -43.617  54.691 -54.755  1.00  0.00     0.010 A 
BRANCH  24  28
HETATM   28  O   UNL     1     -41.960  57.559 -57.238  1.00  0.00    -0.361 OA
HETATM   29  H   UNL     1     -42.389  58.416 -57.084  1.00  0.00     0.217 HD
ENDBRANCH  24  28
ENDBRANCH   9  22
BRANCH   7  30
HETATM   30  C   UNL     1     -45.833  60.611 -53.114  1.00  0.00     0.016 A 
HETATM   31  C   UNL     1     -45.696  61.247 -54.356  1.00  0.00     0.039 A 
HETATM   32  C   UNL     1     -46.556  62.287 -54.710  1.00  0.00     0.035 A 
HETATM   33 CL   UNL     1     -46.379  63.060 -56.237  1.00  0.00    -0.084 Cl
HETATM   34  C   UNL     1     -47.558  62.708 -53.837  1.00  0.00     0.024 A 
HETATM   35  C   UNL     1     -47.703  62.083 -52.600  1.00  0.00     0.003 A 
HETATM   36  C   UNL     1     -46.844  61.041 -52.240  1.00  0.00     0.015 A 
ENDBRANCH   7  30
TORSDOF 5
ENDMDL
MODEL 5
REMARK VINA RESULT:      -8.8      2.162      2.591
REMARK  5 active torsions:
REMARK  status: ('A' for Active; 'I' for Inactive)
REMARK    1  A    between atoms: C_7  and  C_8 
REMARK    2  A    between atoms: C_16  and  C_17 
REMARK    3  A    between atoms: C_19  and  O_20 
REMARK    4  A    between atoms: C_24  and  C_25 
REMARK       I    between atoms: C_25  and  N_26 
REMARK    5  A    between atoms: N_26  and  C_27 
ROOT
HETATM    1  C   UNL     1     -43.275  57.978 -58.250  1.00  0.00     0.070 C 
HETATM    2  C   UNL     1     -43.192  57.328 -56.888  1.00  0.00     0.037 A 
HETATM    3  N   UNL     1     -42.125  56.451 -56.719  1.00  0.00    -0.192 N 
HETATM    4  C   UNL     1     -41.953  55.692 -55.624  1.00  0.00     0.726 A 
HETATM    5  N   UNL     1     -42.806  55.841 -54.574  1.00  0.00    -0.083 N 
HETATM    6  N   UNL     1     -42.585  54.914 -53.622  1.00  0.00    -0.135 NA
HETATM    7  C   UNL     1     -41.497  54.289 -54.110  1.00  0.00     0.199 A 
HETATM    8  N   UNL     1     -41.095  54.744 -55.355  1.00  0.00    -0.041 NA
HETATM    9  C   UNL     1     -43.923  56.792 -54.550  1.00  0.00     0.202 A 
HETATM   10  C   UNL     1     -44.088  57.527 -55.880  1.00  0.00     0.062 A 
HETATM   11  H   UNL     1     -41.507  56.304 -57.512  1.00  0.00     0.184 HD
ENDROOT
BRANCH  10  12
HETATM   12  C   UNL     1     -45.215  58.513 -56.038  1.00  0.00     0.256 C 
HETATM   13  N   UNL     1     -44.898  59.831 -55.775  1.00  0.00    -0.323 N 
HETATM   14  H   UNL     1     -43.936  60.086 -55.619  1.00  0.00     0.169 HD
HETATM   15  O   UNL     1     -46.312  58.121 -56.424  1.00  0.00    -0.267 OA
BRANCH  13  16
HETATM   16  C   UNL     1     -45.787  60.931 -55.760  1.00  0.00     0.035 A 
HETATM   17  C   UNL     1     -46.380  61.475 -56.900  1.00  0.00     0.029 A 
HETATM   18  C   UNL     1     -47.273  62.547 -56.793  1.00  0.00     0.002 A 
HETATM   19  C   UNL     1     -47.576  63.087 -55.546  1.00  0.00     0.000 A 
HETATM   20  C   UNL     1     -46.991  62.553 -54.403  1.00  0.00     0.002 A 
HETATM   21  C   UNL     1     -46.105  61.477 -54.508  1.00  0.00     0.029 A 
ENDBRANCH  13  16
ENDBRANCH  10  12
BRANCH   9  22
HETATM   22  C   UNL     1     -43.780  57.711 -53.339  1.00  0.00    -0.025 A 
HETATM   23  C   UNL     1     -44.697  57.683 -52.273  1.00  0.00     0.046 A 
HETATM   24  C   UNL     1     -44.536  58.553 -51.196  1.00  0.00     0.066 A 
HETATM   25  C   UNL     1     -43.490  59.465 -51.162  1.00  0.00     0.036 A 
HETATM   26  C   UNL     1     -42.585  59.517 -52.220  1.00  0.00     0.003 A 
HETATM   27  C   UNL     1     -42.729  58.648 -53.303  1.00  0.00     0.010 A 
BRANCH  24  28
HETATM   28  O   UNL     1     -45.401  58.544 -50.143  1.00  0.00    -0.361 OA
HETATM   29  H   UNL     1     -45.998  59.306 -50.218  1.00  0.00     0.217 HD
ENDBRANCH  24  28
ENDBRANCH   9  22
BRANCH   7  30
HETATM   30  C   UNL     1     -40.805  53.208 -53.416  1.00  0.00     0.016 A 
HETATM   31  C   UNL     1     -40.404  52.054 -54.104  1.00  0.00     0.039 A 
HETATM   32  C   UNL     1     -39.745  51.028 -53.428  1.00  0.00     0.035 A 
HETATM   33 CL   UNL     1     -39.258  49.616 -54.283  1.00  0.00    -0.084 Cl
HETATM   34  C   UNL     1     -39.478  51.133 -52.064  1.00  0.00     0.024 A 
HETATM   35  C   UNL     1     -39.872  52.275 -51.370  1.00  0.00     0.003 A 
HETATM   36  C   UNL     1     -40.533  53.307 -52.042  1.00  0.00     0.015 A 
ENDBRANCH   7  30
TORSDOF 5
ENDMDL
MODEL 6
REMARK VINA RESULT:      -8.6      2.907      4.959
REMARK  5 active torsions:
REMARK  status: ('A' for Active; 'I' for Inactive)
REMARK    1  A    between atoms: C_7  and  C_8 
REMARK    2  A    between atoms: C_16  and  C_17 
REMARK    3  A    between atoms: C_19  and  O_20 
REMARK    4  A    between atoms: C_24  and  C_25 
REMARK       I    between atoms: C_25  and  N_26 
REMARK    5  A    between atoms: N_26  and  C_27 
ROOT
HETATM    1  C   UNL     1     -45.179  59.481 -53.844  1.00  0.00     0.070 C 
HETATM    2  C   UNL     1     -44.154  58.482 -54.332  1.00  0.00     0.037 A 
HETATM    3  N   UNL     1     -44.011  57.350 -53.535  1.00  0.00    -0.192 N 
HETATM    4  C   UNL     1     -43.071  56.412 -53.738  1.00  0.00     0.726 A 
HETATM    5  N   UNL     1     -42.265  56.508 -54.830  1.00  0.00    -0.083 N 
HETATM    6  N   UNL     1     -41.292  55.576 -54.810  1.00  0.00    -0.135 NA
HETATM    7  C   UNL     1     -41.632  54.864 -53.719  1.00  0.00     0.199 A 
HETATM    8  N   UNL     1     -42.722  55.371 -53.030  1.00  0.00    -0.041 NA
HETATM    9  C   UNL     1     -42.350  57.584 -55.824  1.00  0.00     0.202 A 
HETATM   10  C   UNL     1     -43.380  58.648 -55.441  1.00  0.00     0.062 A 
HETATM   11  H   UNL     1     -44.581  57.291 -52.695  1.00  0.00     0.184 HD
ENDROOT
BRANCH  10  12
HETATM   12  C   UNL     1     -43.564  59.844 -56.336  1.00  0.00     0.256 C 
HETATM   13  N   UNL     1     -42.537  60.767 -56.318  1.00  0.00    -0.323 N 
HETATM   14  H   UNL     1     -41.685  60.550 -55.826  1.00  0.00     0.169 HD
HETATM   15  O   UNL     1     -44.560  59.919 -57.049  1.00  0.00    -0.267 OA
BRANCH  13  16
HETATM   16  C   UNL     1     -42.502  62.012 -56.989  1.00  0.00     0.035 A 
HETATM   17  C   UNL     1     -43.226  63.137 -56.591  1.00  0.00     0.029 A 
HETATM   18  C   UNL     1     -43.111  64.340 -57.296  1.00  0.00     0.002 A 
HETATM   19  C   UNL     1     -42.277  64.427 -58.407  1.00  0.00     0.000 A 
HETATM   20  C   UNL     1     -41.552  63.312 -58.814  1.00  0.00     0.002 A 
HETATM   21  C   UNL     1     -41.659  62.112 -58.105  1.00  0.00     0.029 A 
ENDBRANCH  13  16
ENDBRANCH  10  12
BRANCH   9  22
HETATM   22  C   UNL     1     -42.561  56.978 -57.209  1.00  0.00    -0.025 A 
HETATM   23  C   UNL     1     -42.013  57.562 -58.366  1.00  0.00     0.046 A 
HETATM   24  C   UNL     1     -42.244  56.985 -59.612  1.00  0.00     0.066 A 
HETATM   25  C   UNL     1     -43.026  55.843 -59.738  1.00  0.00     0.036 A 
HETATM   26  C   UNL     1     -43.590  55.265 -58.604  1.00  0.00     0.003 A 
HETATM   27  C   UNL     1     -43.362  55.829 -57.348  1.00  0.00     0.010 A 
BRANCH  24  28
HETATM   28  O   UNL     1     -41.720  57.520 -60.751  1.00  0.00    -0.361 OA
HETATM   29  H   UNL     1     -41.913  56.928 -61.496  1.00  0.00     0.217 HD
ENDBRANCH  24  28
ENDBRANCH   9  22
BRANCH   7  30
HETATM   30  C   UNL     1     -40.911  53.677 -53.270  1.00  0.00     0.016 A 
HETATM   31  C   UNL     1     -40.729  52.582 -54.126  1.00  0.00     0.039 A 
HETATM   32  C   UNL     1     -40.041  51.453 -53.684  1.00  0.00     0.035 A 
HETATM   33 CL   UNL     1     -39.824  50.115 -54.744  1.00  0.00    -0.084 Cl
HETATM   34  C   UNL     1     -39.527  51.396 -52.389  1.00  0.00     0.024 A 
HETATM   35  C   UNL     1     -39.702  52.479 -51.530  1.00  0.00     0.003 A 
HETATM   36  C   UNL     1     -40.391  53.613 -51.968  1.00  0.00     0.015 A 
ENDBRANCH   7  30
TORSDOF 5
ENDMDL
MODEL 7
REMARK VINA RESULT:      -8.6      3.885      8.091
REMARK  5 active torsions:
REMARK  status: ('A' for Active; 'I' for Inactive)
REMARK    1  A    between atoms: C_7  and  C_8 
REMARK    2  A    between atoms: C_16  and  C_17 
REMARK    3  A    between atoms: C_19  and  O_20 
REMARK    4  A    between atoms: C_24  and  C_25 
REMARK       I    between atoms: C_25  and  N_26 
REMARK    5  A    between atoms: N_26  and  C_27 
ROOT
HETATM    1  C   UNL     1     -43.063  54.378 -55.462  1.00  0.00     0.070 C 
HETATM    2  C   UNL     1     -42.780  55.862 -55.511  1.00  0.00     0.037 A 
HETATM    3  N   UNL     1     -42.795  56.422 -56.785  1.00  0.00    -0.192 N 
HETATM    4  C   UNL     1     -42.451  57.694 -57.042  1.00  0.00     0.726 A 
HETATM    5  N   UNL     1     -42.157  58.524 -56.004  1.00  0.00    -0.083 N 
HETATM    6  N   UNL     1     -41.697  59.714 -56.436  1.00  0.00    -0.135 NA
HETATM    7  C   UNL     1     -41.839  59.583 -57.768  1.00  0.00     0.199 A 
HETATM    8  N   UNL     1     -42.291  58.336 -58.169  1.00  0.00    -0.041 NA
HETATM    9  C   UNL     1     -42.191  58.120 -54.594  1.00  0.00     0.202 A 
HETATM   10  C   UNL     1     -42.493  56.631 -54.423  1.00  0.00     0.062 A 
HETATM   11  H   UNL     1     -42.974  55.800 -57.569  1.00  0.00     0.184 HD
ENDROOT
BRANCH  10  12
HETATM   12  C   UNL     1     -42.525  56.044 -53.037  1.00  0.00     0.256 C 
HETATM   13  N   UNL     1     -41.297  55.711 -52.500  1.00  0.00    -0.323 N 
HETATM   14  H   UNL     1     -40.456  55.979 -52.985  1.00  0.00     0.169 HD
HETATM   15  O   UNL     1     -43.597  55.937 -52.450  1.00  0.00    -0.267 OA
BRANCH  13  16
HETATM   16  C   UNL     1     -41.058  55.065 -51.265  1.00  0.00     0.035 A 
HETATM   17  C   UNL     1     -41.249  55.664 -50.018  1.00  0.00     0.029 A 
HETATM   18  C   UNL     1     -41.017  54.943 -48.842  1.00  0.00     0.002 A 
HETATM   19  C   UNL     1     -40.586  53.620 -48.901  1.00  0.00     0.000 A 
HETATM   20  C   UNL     1     -40.390  53.014 -50.138  1.00  0.00     0.002 A 
HETATM   21  C   UNL     1     -40.631  53.731 -51.314  1.00  0.00     0.029 A 
ENDBRANCH  13  16
ENDBRANCH  10  12
BRANCH   9  22
HETATM   22  C   UNL     1     -43.134  59.043 -53.825  1.00  0.00    -0.025 A 
HETATM   23  C   UNL     1     -42.677  59.876 -52.788  1.00  0.00     0.046 A 
HETATM   24  C   UNL     1     -43.576  60.689 -52.102  1.00  0.00     0.066 A 
HETATM   25  C   UNL     1     -44.930  60.682 -52.415  1.00  0.00     0.036 A 
HETATM   26  C   UNL     1     -45.399  59.848 -53.426  1.00  0.00     0.003 A 
HETATM   27  C   UNL     1     -44.510  59.032 -54.126  1.00  0.00     0.010 A 
BRANCH  24  28
HETATM   28  O   UNL     1     -43.164  61.515 -51.100  1.00  0.00    -0.361 OA
HETATM   29  H   UNL     1     -42.199  61.613 -51.149  1.00  0.00     0.217 HD
ENDBRANCH  24  28
ENDBRANCH   9  22
BRANCH   7  30
HETATM   30  C   UNL     1     -41.525  60.641 -58.723  1.00  0.00     0.016 A 
HETATM   31  C   UNL     1     -40.781  61.763 -58.333  1.00  0.00     0.039 A 
HETATM   32  C   UNL     1     -40.490  62.767 -59.255  1.00  0.00     0.035 A 
HETATM   33 CL   UNL     1     -39.574  64.139 -58.764  1.00  0.00    -0.084 Cl
HETATM   34  C   UNL     1     -40.934  62.671 -60.573  1.00  0.00     0.024 A 
HETATM   35  C   UNL     1     -41.675  61.561 -60.972  1.00  0.00     0.003 A 
HETATM   36  C   UNL     1     -41.970  60.551 -60.052  1.00  0.00     0.015 A 
ENDBRANCH   7  30
TORSDOF 5
ENDMDL
MODEL 8
REMARK VINA RESULT:      -8.5      4.124      9.298
REMARK  5 active torsions:
REMARK  status: ('A' for Active; 'I' for Inactive)
REMARK    1  A    between atoms: C_7  and  C_8 
REMARK    2  A    between atoms: C_16  and  C_17 
REMARK    3  A    between atoms: C_19  and  O_20 
REMARK    4  A    between atoms: C_24  and  C_25 
REMARK       I    between atoms: C_25  and  N_26 
REMARK    5  A    between atoms: N_26  and  C_27 
ROOT
HETATM    1  C   UNL     1     -39.559  58.880 -50.906  1.00  0.00     0.070 C 
HETATM    2  C   UNL     1     -41.038  59.128 -51.093  1.00  0.00     0.037 A 
HETATM    3  N   UNL     1     -41.538  60.240 -50.420  1.00  0.00    -0.192 N 
HETATM    4  C   UNL     1     -42.843  60.553 -50.368  1.00  0.00     0.726 A 
HETATM    5  N   UNL     1     -43.731  59.809 -51.081  1.00  0.00    -0.083 N 
HETATM    6  N   UNL     1     -45.002  60.162 -50.810  1.00  0.00    -0.135 NA
HETATM    7  C   UNL     1     -44.815  61.216 -49.994  1.00  0.00     0.199 A 
HETATM    8  N   UNL     1     -43.486  61.469 -49.695  1.00  0.00    -0.041 NA
HETATM    9  C   UNL     1     -43.359  58.665 -51.922  1.00  0.00     0.202 A 
HETATM   10  C   UNL     1     -41.869  58.335 -51.826  1.00  0.00     0.062 A 
HETATM   11  H   UNL     1     -40.887  60.777 -49.853  1.00  0.00     0.184 HD
ENDROOT
BRANCH  10  12
HETATM   12  C   UNL     1     -41.328  57.161 -52.598  1.00  0.00     0.256 C 
HETATM   13  N   UNL     1     -41.668  55.916 -52.108  1.00  0.00    -0.323 N 
HETATM   14  H   UNL     1     -42.341  55.845 -51.361  1.00  0.00     0.169 HD
HETATM   15  O   UNL     1     -40.672  57.356 -53.616  1.00  0.00    -0.267 OA
BRANCH  13  16
HETATM   16  C   UNL     1     -41.220  54.663 -52.587  1.00  0.00     0.035 A 
HETATM   17  C   UNL     1     -41.408  54.211 -53.895  1.00  0.00     0.029 A 
HETATM   18  C   UNL     1     -40.905  52.969 -54.296  1.00  0.00     0.002 A 
HETATM   19  C   UNL     1     -40.214  52.166 -53.393  1.00  0.00     0.000 A 
HETATM   20  C   UNL     1     -40.021  52.605 -52.087  1.00  0.00     0.002 A 
HETATM   21  C   UNL     1     -40.516  53.850 -51.688  1.00  0.00     0.029 A 
ENDBRANCH  13  16
ENDBRANCH  10  12
BRANCH   9  22
HETATM   22  C   UNL     1     -43.859  58.898 -53.345  1.00  0.00    -0.025 A 
HETATM   23  C   UNL     1     -44.845  58.082 -53.929  1.00  0.00     0.046 A 
HETATM   24  C   UNL     1     -45.259  58.321 -55.238  1.00  0.00     0.066 A 
HETATM   25  C   UNL     1     -44.701  59.348 -55.989  1.00  0.00     0.036 A 
HETATM   26  C   UNL     1     -43.711  60.151 -55.430  1.00  0.00     0.003 A 
HETATM   27  C   UNL     1     -43.290  59.928 -54.118  1.00  0.00     0.010 A 
BRANCH  24  28
HETATM   28  O   UNL     1     -46.220  57.555 -55.829  1.00  0.00    -0.361 OA
HETATM   29  H   UNL     1     -45.790  56.866 -56.360  1.00  0.00     0.217 HD
ENDBRANCH  24  28
ENDBRANCH   9  22
BRANCH   7  30
HETATM   30  C   UNL     1     -45.903  62.017 -49.442  1.00  0.00     0.016 A 
HETATM   31  C   UNL     1     -46.098  62.104 -48.057  1.00  0.00     0.039 A 
HETATM   32  C   UNL     1     -47.143  62.871 -47.543  1.00  0.00     0.035 A 
HETATM   33 CL   UNL     1     -47.373  62.971 -45.840  1.00  0.00    -0.084 Cl
HETATM   34  C   UNL     1     -48.006  63.558 -48.396  1.00  0.00     0.024 A 
HETATM   35  C   UNL     1     -47.821  63.478 -49.775  1.00  0.00     0.003 A 
HETATM   36  C   UNL     1     -46.775  62.711 -50.295  1.00  0.00     0.015 A 
ENDBRANCH   7  30
TORSDOF 5
ENDMDL
MODEL 9
REMARK VINA RESULT:      -8.5      4.388      8.906
REMARK  5 active torsions:
REMARK  status: ('A' for Active; 'I' for Inactive)
REMARK    1  A    between atoms: C_7  and  C_8 
REMARK    2  A    between atoms: C_16  and  C_17 
REMARK    3  A    between atoms: C_19  and  O_20 
REMARK    4  A    between atoms: C_24  and  C_25 
REMARK       I    between atoms: C_25  and  N_26 
REMARK    5  A    between atoms: N_26  and  C_27 
ROOT
HETATM    1  C   UNL     1     -43.500  55.317 -58.366  1.00  0.00     0.070 C 
HETATM    2  C   UNL     1     -42.965  56.670 -57.953  1.00  0.00     0.037 A 
HETATM    3  N   UNL     1     -43.046  57.657 -58.931  1.00  0.00    -0.192 N 
HETATM    4  C   UNL     1     -42.517  58.884 -58.793  1.00  0.00     0.726 A 
HETATM    5  N   UNL     1     -41.947  59.230 -57.607  1.00  0.00    -0.083 N 
HETATM    6  N   UNL     1     -41.342  60.432 -57.681  1.00  0.00    -0.135 NA
HETATM    7  C   UNL     1     -41.678  60.820 -58.926  1.00  0.00     0.199 A 
HETATM    8  N   UNL     1     -42.394  59.872 -59.639  1.00  0.00    -0.041 NA
HETATM    9  C   UNL     1     -41.868  58.343 -56.442  1.00  0.00     0.202 A 
HETATM   10  C   UNL     1     -42.406  56.943 -56.741  1.00  0.00     0.062 A 
HETATM   11  H   UNL     1     -43.434  57.395 -59.833  1.00  0.00     0.184 HD
ENDROOT
BRANCH  10  12
HETATM   12  C   UNL     1     -42.361  55.895 -55.661  1.00  0.00     0.256 C 
HETATM   13  N   UNL     1     -41.099  55.515 -55.249  1.00  0.00    -0.323 N 
HETATM   14  H   UNL     1     -40.296  56.023 -55.582  1.00  0.00     0.169 HD
HETATM   15  O   UNL     1     -43.410  55.476 -55.180  1.00  0.00    -0.267 OA
BRANCH  13  16
HETATM   16  C   UNL     1     -40.780  54.494 -54.324  1.00  0.00     0.035 A 
HETATM   17  C   UNL     1     -40.913  54.621 -52.939  1.00  0.00     0.029 A 
HETATM   18  C   UNL     1     -40.603  53.549 -52.095  1.00  0.00     0.002 A 
HETATM   19  C   UNL     1     -40.151  52.344 -52.627  1.00  0.00     0.000 A 
HETATM   20  C   UNL     1     -40.013  52.207 -54.004  1.00  0.00     0.002 A 
HETATM   21  C   UNL     1     -40.332  53.274 -54.849  1.00  0.00     0.029 A 
ENDBRANCH  13  16
ENDBRANCH  10  12
BRANCH   9  22
HETATM   22  C   UNL     1     -42.523  59.022 -55.242  1.00  0.00    -0.025 A 
HETATM   23  C   UNL     1     -43.917  59.184 -55.150  1.00  0.00     0.046 A 
HETATM   24  C   UNL     1     -44.471  59.826 -54.043  1.00  0.00     0.066 A 
HETATM   25  C   UNL     1     -43.665  60.327 -53.029  1.00  0.00     0.036 A 
HETATM   26  C   UNL     1     -42.282  60.191 -53.116  1.00  0.00     0.003 A 
HETATM   27  C   UNL     1     -41.713  59.545 -54.216  1.00  0.00     0.010 A 
BRANCH  24  28
HETATM   28  O   UNL     1     -45.818  59.990 -53.919  1.00  0.00    -0.361 OA
HETATM   29  H   UNL     1     -46.267  59.237 -54.336  1.00  0.00     0.217 HD
ENDBRANCH  24  28
ENDBRANCH   9  22
BRANCH   7  30
HETATM   30  C   UNL     1     -41.308  62.110 -59.499  1.00  0.00     0.016 A 
HETATM   31  C   UNL     1     -40.032  62.650 -59.286  1.00  0.00     0.039 A 
HETATM   32  C   UNL     1     -39.692  63.884 -59.838  1.00  0.00     0.035 A 
HETATM   33 CL   UNL     1     -38.122  64.537 -59.570  1.00  0.00    -0.084 Cl
HETATM   34  C   UNL     1     -40.612  64.597 -60.606  1.00  0.00     0.024 A 
HETATM   35  C   UNL     1     -41.883  64.069 -60.824  1.00  0.00     0.003 A 
HETATM   36  C   UNL     1     -42.229  62.833 -60.273  1.00  0.00     0.015 A 
ENDBRANCH   7  30
TORSDOF 5
ENDMDL
MODEL 10
REMARK VINA RESULT:      -8.3      2.902      5.096
REMARK  5 active torsions:
REMARK  status: ('A' for Active; 'I' for Inactive)
REMARK    1  A    between atoms: C_7  and  C_8 
REMARK    2  A    between atoms: C_16  and  C_17 
REMARK    3  A    between atoms: C_19  and  O_20 
REMARK    4  A    between atoms: C_24  and  C_25 
REMARK       I    between atoms: C_25  and  N_26 
REMARK    5  A    between atoms: N_26  and  C_27 
ROOT
HETATM    1  C   UNL     1     -45.215  59.820 -54.128  1.00  0.00     0.070 C 
HETATM    2  C   UNL     1     -44.206  58.789 -54.579  1.00  0.00     0.037 A 
HETATM    3  N   UNL     1     -44.084  57.682 -53.745  1.00  0.00    -0.192 N 
HETATM    4  C   UNL     1     -43.159  56.722 -53.915  1.00  0.00     0.726 A 
HETATM    5  N   UNL     1     -42.349  56.769 -55.007  1.00  0.00    -0.083 N 
HETATM    6  N   UNL     1     -41.392  55.822 -54.954  1.00  0.00    -0.135 NA
HETATM    7  C   UNL     1     -41.746  55.152 -53.841  1.00  0.00     0.199 A 
HETATM    8  N   UNL     1     -42.829  55.699 -53.173  1.00  0.00    -0.041 NA
HETATM    9  C   UNL     1     -42.414  57.813 -56.036  1.00  0.00     0.202 A 
HETATM   10  C   UNL     1     -43.426  58.905 -55.691  1.00  0.00     0.062 A 
HETATM   11  H   UNL     1     -44.657  57.660 -52.906  1.00  0.00     0.184 HD
ENDROOT
BRANCH  10  12
HETATM   12  C   UNL     1     -43.588  60.075 -56.625  1.00  0.00     0.256 C 
HETATM   13  N   UNL     1     -44.588  59.951 -57.569  1.00  0.00    -0.323 N 
HETATM   14  H   UNL     1     -45.225  59.173 -57.517  1.00  0.00     0.169 HD
HETATM   15  O   UNL     1     -42.882  61.068 -56.480  1.00  0.00    -0.267 OA
BRANCH  13  16
HETATM   16  C   UNL     1     -44.886  60.858 -58.614  1.00  0.00     0.035 A 
HETATM   17  C   UNL     1     -44.161  60.948 -59.804  1.00  0.00     0.029 A 
HETATM   18  C   UNL     1     -44.542  61.854 -60.799  1.00  0.00     0.002 A 
HETATM   19  C   UNL     1     -45.648  62.680 -60.613  1.00  0.00     0.000 A 
HETATM   20  C   UNL     1     -46.377  62.599 -59.431  1.00  0.00     0.002 A 
HETATM   21  C   UNL     1     -46.002  61.688 -58.439  1.00  0.00     0.029 A 
ENDBRANCH  13  16
ENDBRANCH  10  12
BRANCH   9  22
HETATM   22  C   UNL     1     -42.631  57.166 -57.402  1.00  0.00    -0.025 A 
HETATM   23  C   UNL     1     -43.456  56.039 -57.567  1.00  0.00     0.046 A 
HETATM   24  C   UNL     1     -43.612  55.471 -58.830  1.00  0.00     0.066 A 
HETATM   25  C   UNL     1     -42.950  55.991 -59.935  1.00  0.00     0.036 A 
HETATM   26  C   UNL     1     -42.115  57.095 -59.782  1.00  0.00     0.003 A 
HETATM   27  C   UNL     1     -41.954  57.678 -58.525  1.00  0.00     0.010 A 
BRANCH  24  28
HETATM   28  O   UNL     1     -44.411  54.385 -59.025  1.00  0.00    -0.361 OA
HETATM   29  H   UNL     1     -44.908  54.208 -58.210  1.00  0.00     0.217 HD
ENDBRANCH  24  28
ENDBRANCH   9  22
BRANCH   7  30
HETATM   30  C   UNL     1     -41.046  53.969 -53.352  1.00  0.00     0.016 A 
HETATM   31  C   UNL     1     -40.844  52.859 -54.185  1.00  0.00     0.039 A 
HETATM   32  C   UNL     1     -40.176  51.734 -53.704  1.00  0.00     0.035 A 
HETATM   33 CL   UNL     1     -39.933  50.378 -54.736  1.00  0.00    -0.084 Cl
HETATM   34  C   UNL     1     -39.703  51.695 -52.393  1.00  0.00     0.024 A 
HETATM   35  C   UNL     1     -39.898  52.792 -51.556  1.00  0.00     0.003 A 
HETATM   36  C   UNL     1     -40.567  53.922 -52.033  1.00  0.00     0.015 A 
ENDBRANCH   7  30
TORSDOF 5
ENDMDL
