MODEL 1
REMARK VINA RESULT:      -7.7      0.000      0.000
REMARK  6 active torsions:
REMARK  status: ('A' for Active; 'I' for Inactive)
REMARK    1  A    between atoms: C_2  and  O_3 
REMARK    2  A    between atoms: O_3  and  C_4 
REMARK    3  A    between atoms: C_4  and  C_5 
REMARK    4  A    between atoms: C_6  and  O_7 
REMARK    5  A    between atoms: C_12  and  O_13 
REMARK    6  A    between atoms: C_17  and  C_18 
ROOT
HETATM    1  C   UNL     1     -41.032  56.581 -52.677  1.00  0.00     0.133 C 
HETATM    2  C   UNL     1     -40.807  58.047 -52.180  1.00  0.00     0.073 C 
HETATM    3  C   UNL     1     -39.875  58.841 -53.108  1.00  0.00     0.047 C 
HETATM    4  C   UNL     1     -42.117  58.854 -51.934  1.00  0.00     0.097 C 
HETATM    5  C   UNL     1     -43.177  57.968 -51.387  1.00  0.00     0.042 A 
HETATM    6  C   UNL     1     -43.187  56.589 -51.354  1.00  0.00     0.030 A 
HETATM    7  C   UNL     1     -44.422  56.288 -50.761  1.00  0.00     0.190 A 
HETATM    8  N   UNL     1     -45.141  57.361 -50.452  1.00  0.00    -0.149 NA
HETATM    9  N   UNL     1     -44.352  58.383 -50.829  1.00  0.00    -0.279 N 
HETATM   10  H   UNL     1     -44.686  59.329 -50.680  1.00  0.00     0.189 HD
HETATM   11  C   UNL     1     -42.087  55.745 -51.899  1.00  0.00     0.075 C 
ENDROOT
BRANCH  11  12
HETATM   12  C   UNL     1     -41.495  54.944 -50.745  1.00  0.00    -0.045 A 
HETATM   13  C   UNL     1     -41.037  53.639 -51.002  1.00  0.00     0.050 A 
HETATM   14  C   UNL     1     -40.472  52.875 -49.984  1.00  0.00     0.117 A 
HETATM   15  F   UNL     1     -40.050  51.632 -50.254  1.00  0.00    -0.206 F 
HETATM   16  C   UNL     1     -40.337  53.379 -48.699  1.00  0.00     0.042 A 
HETATM   17  C   UNL     1     -40.771  54.673 -48.427  1.00  0.00     0.004 A 
HETATM   18  C   UNL     1     -41.339  55.449 -49.442  1.00  0.00     0.008 A 
ENDBRANCH  11  12
BRANCH   1  19
HETATM   19  C   UNL     1     -41.394  56.476 -54.147  1.00  0.00     0.267 C 
HETATM   20  O   UNL     1     -42.294  57.140 -54.646  1.00  0.00    -0.265 OA
BRANCH  19  21
HETATM   21  O   UNL     1     -40.570  55.642 -54.823  1.00  0.00    -0.316 OA
BRANCH  21  22
HETATM   22  C   UNL     1     -41.023  54.332 -55.231  1.00  0.00     0.123 C 
HETATM   23  C   UNL     1     -42.534  54.188 -55.091  1.00  0.00     0.040 C 
HETATM   24  C   UNL     1     -40.244  53.210 -54.555  1.00  0.00     0.040 C 
ENDBRANCH  21  22
ENDBRANCH  19  21
ENDBRANCH   1  19
BRANCH   2  25
HETATM   25  O   UNL     1     -40.112  57.997 -50.914  1.00  0.00    -0.389 OA
HETATM   26  H   UNL     1     -40.464  58.696 -50.335  1.00  0.00     0.210 HD
ENDBRANCH   2  25
BRANCH   7  27
HETATM   27  O   UNL     1     -44.957  55.103 -50.462  1.00  0.00    -0.343 OA
HETATM   28  H   UNL     1     -45.537  54.821 -51.183  1.00  0.00     0.219 HD
ENDBRANCH   7  27
TORSDOF 6
ENDMDL
MODEL 2
REMARK VINA RESULT:      -7.6      2.298      4.870
REMARK  6 active torsions:
REMARK  status: ('A' for Active; 'I' for Inactive)
REMARK    1  A    between atoms: C_2  and  O_3 
REMARK    2  A    between atoms: O_3  and  C_4 
REMARK    3  A    between atoms: C_4  and  C_5 
REMARK    4  A    between atoms: C_6  and  O_7 
REMARK    5  A    between atoms: C_12  and  O_13 
REMARK    6  A    between atoms: C_17  and  C_18 
ROOT
HETATM    1  C   UNL     1     -41.768  54.696 -51.039  1.00  0.00     0.133 C 
HETATM    2  C   UNL     1     -43.298  54.775 -51.354  1.00  0.00     0.073 C 
HETATM    3  C   UNL     1     -44.138  55.058 -50.099  1.00  0.00     0.047 C 
HETATM    4  C   UNL     1     -43.676  55.785 -52.479  1.00  0.00     0.097 C 
HETATM    5  C   UNL     1     -42.632  55.799 -53.535  1.00  0.00     0.042 A 
HETATM    6  C   UNL     1     -41.361  55.266 -53.469  1.00  0.00     0.030 A 
HETATM    7  C   UNL     1     -40.811  55.586 -54.720  1.00  0.00     0.190 A 
HETATM    8  N   UNL     1     -41.637  56.264 -55.508  1.00  0.00    -0.149 NA
HETATM    9  N   UNL     1     -42.755  56.370 -54.769  1.00  0.00    -0.279 N 
HETATM   10  H   UNL     1     -43.554  56.850 -55.171  1.00  0.00     0.189 HD
HETATM   11  C   UNL     1     -40.820  54.576 -52.265  1.00  0.00     0.075 C 
ENDROOT
BRANCH  11  12
HETATM   12  C   UNL     1     -40.509  53.134 -52.652  1.00  0.00    -0.045 A 
HETATM   13  C   UNL     1     -39.874  52.309 -51.706  1.00  0.00     0.050 A 
HETATM   14  C   UNL     1     -39.586  50.980 -52.007  1.00  0.00     0.117 A 
HETATM   15  F   UNL     1     -38.975  50.218 -51.091  1.00  0.00    -0.206 F 
HETATM   16  C   UNL     1     -39.923  50.433 -53.237  1.00  0.00     0.042 A 
HETATM   17  C   UNL     1     -40.564  51.229 -54.182  1.00  0.00     0.004 A 
HETATM   18  C   UNL     1     -40.859  52.565 -53.890  1.00  0.00     0.008 A 
ENDBRANCH  11  12
BRANCH   1  19
HETATM   19  C   UNL     1     -41.250  55.850 -50.202  1.00  0.00     0.267 C 
HETATM   20  O   UNL     1     -41.224  55.808 -48.978  1.00  0.00    -0.265 OA
BRANCH  19  21
HETATM   21  O   UNL     1     -40.766  56.860 -50.960  1.00  0.00    -0.316 OA
BRANCH  21  22
HETATM   22  C   UNL     1     -40.985  58.237 -50.577  1.00  0.00     0.123 C 
HETATM   23  C   UNL     1     -42.267  58.794 -51.183  1.00  0.00     0.040 C 
HETATM   24  C   UNL     1     -39.765  59.114 -50.834  1.00  0.00     0.040 C 
ENDBRANCH  21  22
ENDBRANCH  19  21
ENDBRANCH   1  19
BRANCH   2  25
HETATM   25  O   UNL     1     -43.739  53.474 -51.805  1.00  0.00    -0.389 OA
HETATM   26  H   UNL     1     -43.935  53.522 -52.758  1.00  0.00     0.210 HD
ENDBRANCH   2  25
BRANCH   7  27
HETATM   27  O   UNL     1     -39.607  55.301 -55.217  1.00  0.00    -0.343 OA
HETATM   28  H   UNL     1     -39.130  56.124 -55.397  1.00  0.00     0.219 HD
ENDBRANCH   7  27
TORSDOF 6
ENDMDL
MODEL 3
REMARK VINA RESULT:      -7.5      2.904      5.210
REMARK  6 active torsions:
REMARK  status: ('A' for Active; 'I' for Inactive)
REMARK    1  A    between atoms: C_2  and  O_3 
REMARK    2  A    between atoms: O_3  and  C_4 
REMARK    3  A    between atoms: C_4  and  C_5 
REMARK    4  A    between atoms: C_6  and  O_7 
REMARK    5  A    between atoms: C_12  and  O_13 
REMARK    6  A    between atoms: C_17  and  C_18 
ROOT
HETATM    1  C   UNL     1     -42.193  55.139 -52.702  1.00  0.00     0.133 C 
HETATM    2  C   UNL     1     -43.223  55.425 -51.560  1.00  0.00     0.073 C 
HETATM    3  C   UNL     1     -43.803  54.134 -50.962  1.00  0.00     0.047 C 
HETATM    4  C   UNL     1     -42.685  56.338 -50.418  1.00  0.00     0.097 C 
HETATM    5  C   UNL     1     -41.779  57.379 -50.970  1.00  0.00     0.042 A 
HETATM    6  C   UNL     1     -41.213  57.421 -52.227  1.00  0.00     0.030 A 
HETATM    7  C   UNL     1     -40.441  58.592 -52.195  1.00  0.00     0.190 A 
HETATM    8  N   UNL     1     -40.495  59.235 -51.034  1.00  0.00    -0.149 NA
HETATM    9  N   UNL     1     -41.335  58.483 -50.301  1.00  0.00    -0.279 N 
HETATM   10  H   UNL     1     -41.550  58.783 -49.356  1.00  0.00     0.189 HD
HETATM   11  C   UNL     1     -41.427  56.371 -53.261  1.00  0.00     0.075 C 
ENDROOT
BRANCH  11  12
HETATM   12  C   UNL     1     -42.116  57.023 -54.455  1.00  0.00    -0.045 A 
HETATM   13  C   UNL     1     -42.065  56.367 -55.698  1.00  0.00     0.050 A 
HETATM   14  C   UNL     1     -42.694  56.914 -56.813  1.00  0.00     0.117 A 
HETATM   15  F   UNL     1     -42.624  56.273 -57.987  1.00  0.00    -0.206 F 
HETATM   16  C   UNL     1     -43.393  58.110 -56.728  1.00  0.00     0.042 A 
HETATM   17  C   UNL     1     -43.468  58.768 -55.504  1.00  0.00     0.004 A 
HETATM   18  C   UNL     1     -42.840  58.227 -54.378  1.00  0.00     0.008 A 
ENDBRANCH  11  12
BRANCH   1  19
HETATM   19  C   UNL     1     -41.145  54.103 -52.343  1.00  0.00     0.267 C 
HETATM   20  O   UNL     1     -40.349  54.269 -51.427  1.00  0.00    -0.265 OA
BRANCH  19  21
HETATM   21  O   UNL     1     -41.253  52.980 -53.090  1.00  0.00    -0.316 OA
BRANCH  21  22
HETATM   22  C   UNL     1     -40.174  52.568 -53.960  1.00  0.00     0.123 C 
HETATM   23  C   UNL     1     -40.045  53.484 -55.172  1.00  0.00     0.040 C 
HETATM   24  C   UNL     1     -40.252  51.091 -54.326  1.00  0.00     0.040 C 
ENDBRANCH  21  22
ENDBRANCH  19  21
ENDBRANCH   1  19
BRANCH   2  25
HETATM   25  O   UNL     1     -44.360  56.109 -52.132  1.00  0.00    -0.389 OA
HETATM   26  H   UNL     1     -44.980  55.447 -52.485  1.00  0.00     0.210 HD
ENDBRANCH   2  25
BRANCH   7  27
HETATM   27  O   UNL     1     -39.688  59.141 -53.149  1.00  0.00    -0.343 OA
HETATM   28  H   UNL     1     -40.231  59.736 -53.686  1.00  0.00     0.219 HD
ENDBRANCH   7  27
TORSDOF 6
ENDMDL
MODEL 4
REMARK VINA RESULT:      -7.4      2.789      4.711
REMARK  6 active torsions:
REMARK  status: ('A' for Active; 'I' for Inactive)
REMARK    1  A    between atoms: C_2  and  O_3 
REMARK    2  A    between atoms: O_3  and  C_4 
REMARK    3  A    between atoms: C_4  and  C_5 
REMARK    4  A    between atoms: C_6  and  O_7 
REMARK    5  A    between atoms: C_12  and  O_13 
REMARK    6  A    between atoms: C_17  and  C_18 
ROOT
HETATM    1  C   UNL     1     -42.631  58.229 -53.239  1.00  0.00     0.133 C 
HETATM    2  C   UNL     1     -44.146  58.331 -53.614  1.00  0.00     0.073 C 
HETATM    3  C   UNL     1     -44.744  59.701 -53.257  1.00  0.00     0.047 C 
HETATM    4  C   UNL     1     -44.470  57.986 -55.098  1.00  0.00     0.097 C 
HETATM    5  C   UNL     1     -43.590  56.891 -55.580  1.00  0.00     0.042 A 
HETATM    6  C   UNL     1     -42.446  56.405 -54.982  1.00  0.00     0.030 A 
HETATM    7  C   UNL     1     -42.014  55.408 -55.869  1.00  0.00     0.190 A 
HETATM    8  N   UNL     1     -42.793  55.271 -56.936  1.00  0.00    -0.149 NA
HETATM    9  N   UNL     1     -43.764  56.178 -56.731  1.00  0.00    -0.279 N 
HETATM   10  H   UNL     1     -44.502  56.256 -57.423  1.00  0.00     0.189 HD
HETATM   11  C   UNL     1     -41.892  56.944 -53.708  1.00  0.00     0.075 C 
ENDROOT
BRANCH  11  12
HETATM   12  C   UNL     1     -41.914  55.822 -52.676  1.00  0.00    -0.045 A 
HETATM   13  C   UNL     1     -40.933  55.819 -51.668  1.00  0.00     0.050 A 
HETATM   14  C   UNL     1     -40.922  54.826 -50.693  1.00  0.00     0.117 A 
HETATM   15  F   UNL     1     -39.973  54.843 -49.748  1.00  0.00    -0.206 F 
HETATM   16  C   UNL     1     -41.880  53.821 -50.682  1.00  0.00     0.042 A 
HETATM   17  C   UNL     1     -42.867  53.813 -51.662  1.00  0.00     0.004 A 
HETATM   18  C   UNL     1     -42.887  54.806 -52.646  1.00  0.00     0.008 A 
ENDBRANCH  11  12
BRANCH   1  19
HETATM   19  C   UNL     1     -41.797  59.405 -53.712  1.00  0.00     0.267 C 
HETATM   20  O   UNL     1     -41.609  59.636 -54.900  1.00  0.00    -0.265 OA
BRANCH  19  21
HETATM   21  O   UNL     1     -41.373  60.181 -52.688  1.00  0.00    -0.316 OA
BRANCH  21  22
HETATM   22  C   UNL     1     -41.451  59.707 -51.325  1.00  0.00     0.123 C 
HETATM   23  C   UNL     1     -42.266  60.649 -50.446  1.00  0.00     0.040 C 
HETATM   24  C   UNL     1     -40.082  59.373 -50.745  1.00  0.00     0.040 C 
ENDBRANCH  21  22
ENDBRANCH  19  21
ENDBRANCH   1  19
BRANCH   2  25
HETATM   25  O   UNL     1     -44.881  57.386 -52.804  1.00  0.00    -0.389 OA
HETATM   26  H   UNL     1     -44.368  56.561 -52.742  1.00  0.00     0.210 HD
ENDBRANCH   2  25
BRANCH   7  27
HETATM   27  O   UNL     1     -40.962  54.593 -55.786  1.00  0.00    -0.343 OA
HETATM   28  H   UNL     1     -40.814  54.170 -56.644  1.00  0.00     0.219 HD
ENDBRANCH   7  27
TORSDOF 6
ENDMDL
MODEL 5
REMARK VINA RESULT:      -7.3      2.303      2.976
REMARK  6 active torsions:
REMARK  status: ('A' for Active; 'I' for Inactive)
REMARK    1  A    between atoms: C_2  and  O_3 
REMARK    2  A    between atoms: O_3  and  C_4 
REMARK    3  A    between atoms: C_4  and  C_5 
REMARK    4  A    between atoms: C_6  and  O_7 
REMARK    5  A    between atoms: C_12  and  O_13 
REMARK    6  A    between atoms: C_17  and  C_18 
ROOT
HETATM    1  C   UNL     1     -42.292  56.096 -54.355  1.00  0.00     0.133 C 
HETATM    2  C   UNL     1     -41.801  57.382 -53.612  1.00  0.00     0.073 C 
HETATM    3  C   UNL     1     -41.483  58.530 -54.583  1.00  0.00     0.047 C 
HETATM    4  C   UNL     1     -42.761  57.889 -52.494  1.00  0.00     0.097 C 
HETATM    5  C   UNL     1     -43.392  56.742 -51.793  1.00  0.00     0.042 A 
HETATM    6  C   UNL     1     -43.418  55.422 -52.193  1.00  0.00     0.030 A 
HETATM    7  C   UNL     1     -44.158  54.792 -51.182  1.00  0.00     0.190 A 
HETATM    8  N   UNL     1     -44.577  55.620 -50.233  1.00  0.00    -0.149 NA
HETATM    9  N   UNL     1     -44.082  56.809 -50.617  1.00  0.00    -0.279 N 
HETATM   10  H   UNL     1     -44.263  57.618 -50.031  1.00  0.00     0.189 HD
HETATM   11  C   UNL     1     -42.795  54.933 -53.455  1.00  0.00     0.075 C 
ENDROOT
BRANCH  11  12
HETATM   12  C   UNL     1     -41.702  53.938 -53.083  1.00  0.00    -0.045 A 
HETATM   13  C   UNL     1     -41.324  52.971 -54.033  1.00  0.00     0.050 A 
HETATM   14  C   UNL     1     -40.318  52.052 -53.747  1.00  0.00     0.117 A 
HETATM   15  F   UNL     1     -39.983  51.139 -54.667  1.00  0.00    -0.206 F 
HETATM   16  C   UNL     1     -39.658  52.069 -52.527  1.00  0.00     0.042 A 
HETATM   17  C   UNL     1     -40.006  53.025 -51.578  1.00  0.00     0.004 A 
HETATM   18  C   UNL     1     -41.015  53.953 -51.855  1.00  0.00     0.008 A 
ENDBRANCH  11  12
BRANCH   1  19
HETATM   19  C   UNL     1     -43.380  56.353 -55.381  1.00  0.00     0.267 C 
HETATM   20  O   UNL     1     -44.389  56.993 -55.115  1.00  0.00    -0.265 OA
BRANCH  19  21
HETATM   21  O   UNL     1     -43.061  55.867 -56.603  1.00  0.00    -0.316 OA
BRANCH  21  22
HETATM   22  C   UNL     1     -43.420  56.595 -57.800  1.00  0.00     0.123 C 
HETATM   23  C   UNL     1     -43.617  55.662 -58.989  1.00  0.00     0.040 C 
HETATM   24  C   UNL     1     -42.466  57.747 -58.088  1.00  0.00     0.040 C 
ENDBRANCH  21  22
ENDBRANCH  19  21
ENDBRANCH   1  19
BRANCH   2  25
HETATM   25  O   UNL     1     -40.542  57.085 -52.968  1.00  0.00    -0.389 OA
HETATM   26  H   UNL     1     -39.850  57.649 -53.355  1.00  0.00     0.210 HD
ENDBRANCH   2  25
BRANCH   7  27
HETATM   27  O   UNL     1     -44.483  53.506 -51.041  1.00  0.00    -0.343 OA
HETATM   28  H   UNL     1     -45.438  53.400 -51.159  1.00  0.00     0.219 HD
ENDBRANCH   7  27
TORSDOF 6
ENDMDL
MODEL 6
REMARK VINA RESULT:      -7.3      2.502      4.722
REMARK  6 active torsions:
REMARK  status: ('A' for Active; 'I' for Inactive)
REMARK    1  A    between atoms: C_2  and  O_3 
REMARK    2  A    between atoms: O_3  and  C_4 
REMARK    3  A    between atoms: C_4  and  C_5 
REMARK    4  A    between atoms: C_6  and  O_7 
REMARK    5  A    between atoms: C_12  and  O_13 
REMARK    6  A    between atoms: C_17  and  C_18 
ROOT
HETATM    1  C   UNL     1     -41.871  56.268 -52.030  1.00  0.00     0.133 C 
HETATM    2  C   UNL     1     -43.428  56.121 -52.037  1.00  0.00     0.073 C 
HETATM    3  C   UNL     1     -44.111  57.109 -51.078  1.00  0.00     0.047 C 
HETATM    4  C   UNL     1     -44.081  56.221 -53.448  1.00  0.00     0.097 C 
HETATM    5  C   UNL     1     -43.206  55.592 -54.470  1.00  0.00     0.042 A 
HETATM    6  C   UNL     1     -41.883  55.226 -54.335  1.00  0.00     0.030 A 
HETATM    7  C   UNL     1     -41.557  54.713 -55.599  1.00  0.00     0.190 A 
HETATM    8  N   UNL     1     -42.563  54.754 -56.466  1.00  0.00    -0.149 NA
HETATM    9  N   UNL     1     -43.571  55.281 -55.748  1.00  0.00    -0.279 N 
HETATM   10  H   UNL     1     -44.470  55.405 -56.201  1.00  0.00     0.189 HD
HETATM   11  C   UNL     1     -41.097  55.428 -53.085  1.00  0.00     0.075 C 
ENDROOT
BRANCH  11  12
HETATM   12  C   UNL     1     -40.670  54.057 -52.574  1.00  0.00    -0.045 A 
HETATM   13  C   UNL     1     -40.292  53.079 -53.513  1.00  0.00     0.050 A 
HETATM   14  C   UNL     1     -39.877  51.818 -53.093  1.00  0.00     0.117 A 
HETATM   15  F   UNL     1     -39.529  50.904 -54.008  1.00  0.00    -0.206 F 
HETATM   16  C   UNL     1     -39.816  51.495 -51.745  1.00  0.00     0.042 A 
HETATM   17  C   UNL     1     -40.172  52.451 -50.799  1.00  0.00     0.004 A 
HETATM   18  C   UNL     1     -40.590  53.721 -51.210  1.00  0.00     0.008 A 
ENDBRANCH  11  12
BRANCH   1  19
HETATM   19  C   UNL     1     -41.385  57.697 -52.174  1.00  0.00     0.267 C 
HETATM   20  O   UNL     1     -41.604  58.364 -53.177  1.00  0.00    -0.265 OA
BRANCH  19  21
HETATM   21  O   UNL     1     -40.769  58.147 -51.055  1.00  0.00    -0.316 OA
BRANCH  21  22
HETATM   22  C   UNL     1     -40.484  59.555 -50.889  1.00  0.00     0.123 C 
HETATM   23  C   UNL     1     -39.133  59.781 -50.220  1.00  0.00     0.040 C 
HETATM   24  C   UNL     1     -41.626  60.305 -50.215  1.00  0.00     0.040 C 
ENDBRANCH  21  22
ENDBRANCH  19  21
ENDBRANCH   1  19
BRANCH   2  25
HETATM   25  O   UNL     1     -43.765  54.814 -51.520  1.00  0.00    -0.389 OA
HETATM   26  H   UNL     1     -44.474  54.432 -52.068  1.00  0.00     0.210 HD
ENDBRANCH   2  25
BRANCH   7  27
HETATM   27  O   UNL     1     -40.410  54.195 -56.038  1.00  0.00    -0.343 OA
HETATM   28  H   UNL     1     -39.730  54.295 -55.356  1.00  0.00     0.219 HD
ENDBRANCH   7  27
TORSDOF 6
ENDMDL
MODEL 7
REMARK VINA RESULT:      -7.0      3.799      6.440
REMARK  6 active torsions:
REMARK  status: ('A' for Active; 'I' for Inactive)
REMARK    1  A    between atoms: C_2  and  O_3 
REMARK    2  A    between atoms: O_3  and  C_4 
REMARK    3  A    between atoms: C_4  and  C_5 
REMARK    4  A    between atoms: C_6  and  O_7 
REMARK    5  A    between atoms: C_12  and  O_13 
REMARK    6  A    between atoms: C_17  and  C_18 
ROOT
HETATM    1  C   UNL     1     -42.611  55.418 -55.076  1.00  0.00     0.133 C 
HETATM    2  C   UNL     1     -43.548  55.682 -53.852  1.00  0.00     0.073 C 
HETATM    3  C   UNL     1     -43.609  54.482 -52.894  1.00  0.00     0.047 C 
HETATM    4  C   UNL     1     -43.217  56.977 -53.051  1.00  0.00     0.097 C 
HETATM    5  C   UNL     1     -42.764  58.053 -53.970  1.00  0.00     0.042 A 
HETATM    6  C   UNL     1     -42.381  57.927 -55.289  1.00  0.00     0.030 A 
HETATM    7  C   UNL     1     -42.034  59.237 -55.652  1.00  0.00     0.190 A 
HETATM    8  N   UNL     1     -42.168  60.116 -54.666  1.00  0.00    -0.149 NA
HETATM    9  N   UNL     1     -42.634  59.373 -53.647  1.00  0.00    -0.279 N 
HETATM   10  H   UNL     1     -42.831  59.835 -52.766  1.00  0.00     0.189 HD
HETATM   11  C   UNL     1     -42.353  56.628 -56.017  1.00  0.00     0.075 C 
ENDROOT
BRANCH  11  12
HETATM   12  C   UNL     1     -43.340  56.717 -57.174  1.00  0.00    -0.045 A 
HETATM   13  C   UNL     1     -43.229  55.786 -58.223  1.00  0.00     0.050 A 
HETATM   14  C   UNL     1     -44.120  55.816 -59.293  1.00  0.00     0.117 A 
HETATM   15  F   UNL     1     -43.988  54.922 -60.282  1.00  0.00    -0.206 F 
HETATM   16  C   UNL     1     -45.141  56.754 -59.351  1.00  0.00     0.042 A 
HETATM   17  C   UNL     1     -45.277  57.675 -58.317  1.00  0.00     0.004 A 
HETATM   18  C   UNL     1     -44.388  57.654 -57.237  1.00  0.00     0.008 A 
ENDBRANCH  11  12
BRANCH   1  19
HETATM   19  C   UNL     1     -41.251  54.860 -54.702  1.00  0.00     0.267 C 
HETATM   20  O   UNL     1     -40.310  55.583 -54.399  1.00  0.00    -0.265 OA
BRANCH  19  21
HETATM   21  O   UNL     1     -41.238  53.507 -54.674  1.00  0.00    -0.316 OA
BRANCH  21  22
HETATM   22  C   UNL     1     -40.234  52.797 -53.913  1.00  0.00     0.123 C 
HETATM   23  C   UNL     1     -40.135  51.336 -54.335  1.00  0.00     0.040 C 
HETATM   24  C   UNL     1     -40.405  52.981 -52.410  1.00  0.00     0.040 C 
ENDBRANCH  21  22
ENDBRANCH  19  21
ENDBRANCH   1  19
BRANCH   2  25
HETATM   25  O   UNL     1     -44.901  55.835 -54.337  1.00  0.00    -0.389 OA
HETATM   26  H   UNL     1     -45.324  54.958 -54.370  1.00  0.00     0.210 HD
ENDBRANCH   2  25
BRANCH   7  27
HETATM   27  O   UNL     1     -41.607  59.711 -56.823  1.00  0.00    -0.343 OA
HETATM   28  H   UNL     1     -40.776  60.190 -56.694  1.00  0.00     0.219 HD
ENDBRANCH   7  27
TORSDOF 6
ENDMDL
MODEL 8
REMARK VINA RESULT:      -6.8      2.373      4.274
REMARK  6 active torsions:
REMARK  status: ('A' for Active; 'I' for Inactive)
REMARK    1  A    between atoms: C_2  and  O_3 
REMARK    2  A    between atoms: O_3  and  C_4 
REMARK    3  A    between atoms: C_4  and  C_5 
REMARK    4  A    between atoms: C_6  and  O_7 
REMARK    5  A    between atoms: C_12  and  O_13 
REMARK    6  A    between atoms: C_17  and  C_18 
ROOT
HETATM    1  C   UNL     1     -42.553  57.378 -51.599  1.00  0.00     0.133 C 
HETATM    2  C   UNL     1     -44.066  57.080 -51.857  1.00  0.00     0.073 C 
HETATM    3  C   UNL     1     -44.989  58.055 -51.108  1.00  0.00     0.047 C 
HETATM    4  C   UNL     1     -44.468  57.025 -53.361  1.00  0.00     0.097 C 
HETATM    5  C   UNL     1     -43.376  56.422 -54.168  1.00  0.00     0.042 A 
HETATM    6  C   UNL     1     -42.071  56.196 -53.782  1.00  0.00     0.030 A 
HETATM    7  C   UNL     1     -41.486  55.639 -54.929  1.00  0.00     0.190 A 
HETATM    8  N   UNL     1     -42.324  55.527 -55.954  1.00  0.00    -0.149 NA
HETATM    9  N   UNL     1     -43.483  55.997 -55.461  1.00  0.00    -0.279 N 
HETATM   10  H   UNL     1     -44.297  56.002 -56.067  1.00  0.00     0.189 HD
HETATM   11  C   UNL     1     -41.537  56.553 -52.438  1.00  0.00     0.075 C 
ENDROOT
BRANCH  11  12
HETATM   12  C   UNL     1     -41.091  55.265 -51.755  1.00  0.00    -0.045 A 
HETATM   13  C   UNL     1     -40.541  55.349 -50.462  1.00  0.00     0.050 A 
HETATM   14  C   UNL     1     -40.135  54.199 -49.790  1.00  0.00     0.117 A 
HETATM   15  F   UNL     1     -39.609  54.307 -48.563  1.00  0.00    -0.206 F 
HETATM   16  C   UNL     1     -40.269  52.945 -50.368  1.00  0.00     0.042 A 
HETATM   17  C   UNL     1     -40.823  52.839 -51.640  1.00  0.00     0.004 A 
HETATM   18  C   UNL     1     -41.234  53.987 -52.325  1.00  0.00     0.008 A 
ENDBRANCH  11  12
BRANCH   1  19
HETATM   19  C   UNL     1     -42.173  58.837 -51.771  1.00  0.00     0.267 C 
HETATM   20  O   UNL     1     -42.336  59.663 -50.882  1.00  0.00    -0.265 OA
BRANCH  19  21
HETATM   21  O   UNL     1     -41.580  59.078 -52.963  1.00  0.00    -0.316 OA
BRANCH  21  22
HETATM   22  C   UNL     1     -42.119  60.072 -53.865  1.00  0.00     0.123 C 
HETATM   23  C   UNL     1     -43.527  60.494 -53.463  1.00  0.00     0.040 C 
HETATM   24  C   UNL     1     -42.007  59.655 -55.326  1.00  0.00     0.040 C 
ENDBRANCH  21  22
ENDBRANCH  19  21
ENDBRANCH   1  19
BRANCH   2  25
HETATM   25  O   UNL     1     -44.376  55.781 -51.302  1.00  0.00    -0.389 OA
HETATM   26  H   UNL     1     -43.654  55.166 -51.521  1.00  0.00     0.210 HD
ENDBRANCH   2  25
BRANCH   7  27
HETATM   27  O   UNL     1     -40.239  55.208 -55.125  1.00  0.00    -0.343 OA
HETATM   28  H   UNL     1     -40.226  54.241 -55.107  1.00  0.00     0.219 HD
ENDBRANCH   7  27
TORSDOF 6
ENDMDL
MODEL 9
REMARK VINA RESULT:      -6.7      3.296      5.135
REMARK  6 active torsions:
REMARK  status: ('A' for Active; 'I' for Inactive)
REMARK    1  A    between atoms: C_2  and  O_3 
REMARK    2  A    between atoms: O_3  and  C_4 
REMARK    3  A    between atoms: C_4  and  C_5 
REMARK    4  A    between atoms: C_6  and  O_7 
REMARK    5  A    between atoms: C_12  and  O_13 
REMARK    6  A    between atoms: C_17  and  C_18 
ROOT
HETATM    1  C   UNL     1     -42.771  58.300 -53.486  1.00  0.00     0.133 C 
HETATM    2  C   UNL     1     -44.321  58.400 -53.300  1.00  0.00     0.073 C 
HETATM    3  C   UNL     1     -44.715  59.454 -52.253  1.00  0.00     0.047 C 
HETATM    4  C   UNL     1     -45.116  58.643 -54.617  1.00  0.00     0.097 C 
HETATM    5  C   UNL     1     -44.483  57.916 -55.747  1.00  0.00     0.042 A 
HETATM    6  C   UNL     1     -43.228  57.342 -55.782  1.00  0.00     0.030 A 
HETATM    7  C   UNL     1     -43.145  56.824 -57.083  1.00  0.00     0.190 A 
HETATM    8  N   UNL     1     -44.229  57.048 -57.816  1.00  0.00    -0.149 NA
HETATM    9  N   UNL     1     -45.045  57.705 -56.973  1.00  0.00    -0.279 N 
HETATM   10  H   UNL     1     -45.962  57.981 -57.309  1.00  0.00     0.189 HD
HETATM   11  C   UNL     1     -42.275  57.381 -54.638  1.00  0.00     0.075 C 
ENDROOT
BRANCH  11  12
HETATM   12  C   UNL     1     -42.013  55.945 -54.198  1.00  0.00    -0.045 A 
HETATM   13  C   UNL     1     -40.892  55.278 -54.725  1.00  0.00     0.050 A 
HETATM   14  C   UNL     1     -40.601  53.972 -54.339  1.00  0.00     0.117 A 
HETATM   15  F   UNL     1     -39.531  53.356 -54.860  1.00  0.00    -0.206 F 
HETATM   16  C   UNL     1     -41.397  53.299 -53.423  1.00  0.00     0.042 A 
HETATM   17  C   UNL     1     -42.503  53.946 -52.880  1.00  0.00     0.004 A 
HETATM   18  C   UNL     1     -42.805  55.258 -53.260  1.00  0.00     0.008 A 
ENDBRANCH  11  12
BRANCH   1  19
HETATM   19  C   UNL     1     -42.084  59.640 -53.674  1.00  0.00     0.267 C 
HETATM   20  O   UNL     1     -42.482  60.469 -54.483  1.00  0.00    -0.265 OA
BRANCH  19  21
HETATM   21  O   UNL     1     -41.062  59.821 -52.807  1.00  0.00    -0.316 OA
BRANCH  21  22
HETATM   22  C   UNL     1     -41.150  59.325 -51.452  1.00  0.00     0.123 C 
HETATM   23  C   UNL     1     -41.746  60.363 -50.509  1.00  0.00     0.040 C 
HETATM   24  C   UNL     1     -39.830  58.746 -50.957  1.00  0.00     0.040 C 
ENDBRANCH  21  22
ENDBRANCH  19  21
ENDBRANCH   1  19
BRANCH   2  25
HETATM   25  O   UNL     1     -44.796  57.147 -52.759  1.00  0.00    -0.389 OA
HETATM   26  H   UNL     1     -45.168  56.613 -53.483  1.00  0.00     0.210 HD
ENDBRANCH   2  25
BRANCH   7  27
HETATM   27  O   UNL     1     -42.157  56.145 -57.666  1.00  0.00    -0.343 OA
HETATM   28  H   UNL     1     -42.531  55.494 -58.278  1.00  0.00     0.219 HD
ENDBRANCH   7  27
TORSDOF 6
ENDMDL
MODEL 10
REMARK VINA RESULT:      -6.5      2.392      4.673
REMARK  6 active torsions:
REMARK  status: ('A' for Active; 'I' for Inactive)
REMARK    1  A    between atoms: C_2  and  O_3 
REMARK    2  A    between atoms: O_3  and  C_4 
REMARK    3  A    between atoms: C_4  and  C_5 
REMARK    4  A    between atoms: C_6  and  O_7 
REMARK    5  A    between atoms: C_12  and  O_13 
REMARK    6  A    between atoms: C_17  and  C_18 
ROOT
HETATM    1  C   UNL     1     -43.580  56.714 -52.003  1.00  0.00     0.133 C 
HETATM    2  C   UNL     1     -43.407  56.671 -53.557  1.00  0.00     0.073 C 
HETATM    3  C   UNL     1     -44.751  56.538 -54.290  1.00  0.00     0.047 C 
HETATM    4  C   UNL     1     -42.600  57.864 -54.151  1.00  0.00     0.097 C 
HETATM    5  C   UNL     1     -41.508  58.263 -53.227  1.00  0.00     0.042 A 
HETATM    6  C   UNL     1     -41.346  57.896 -51.907  1.00  0.00     0.030 A 
HETATM    7  C   UNL     1     -40.179  58.572 -51.523  1.00  0.00     0.190 A 
HETATM    8  N   UNL     1     -39.647  59.309 -52.491  1.00  0.00    -0.149 NA
HETATM    9  N   UNL     1     -40.468  59.092 -53.534  1.00  0.00    -0.279 N 
HETATM   10  H   UNL     1     -40.258  59.550 -54.415  1.00  0.00     0.189 HD
HETATM   11  C   UNL     1     -42.297  57.012 -51.177  1.00  0.00     0.075 C 
ENDROOT
BRANCH  11  12
HETATM   12  C   UNL     1     -41.541  55.756 -50.758  1.00  0.00    -0.045 A 
HETATM   13  C   UNL     1     -41.407  55.483 -49.384  1.00  0.00     0.050 A 
HETATM   14  C   UNL     1     -40.741  54.339 -48.952  1.00  0.00     0.117 A 
HETATM   15  F   UNL     1     -40.621  54.106 -47.639  1.00  0.00    -0.206 F 
HETATM   16  C   UNL     1     -40.202  53.437 -49.858  1.00  0.00     0.042 A 
HETATM   17  C   UNL     1     -40.336  53.681 -51.222  1.00  0.00     0.004 A 
HETATM   18  C   UNL     1     -41.003  54.827 -51.667  1.00  0.00     0.008 A 
ENDBRANCH  11  12
BRANCH   1  19
HETATM   19  C   UNL     1     -44.639  57.690 -51.527  1.00  0.00     0.267 C 
HETATM   20  O   UNL     1     -45.538  57.357 -50.765  1.00  0.00    -0.265 OA
BRANCH  19  21
HETATM   21  O   UNL     1     -44.419  58.948 -51.974  1.00  0.00    -0.316 OA
BRANCH  21  22
HETATM   22  C   UNL     1     -44.441  60.068 -51.061  1.00  0.00     0.123 C 
HETATM   23  C   UNL     1     -45.758  60.832 -51.135  1.00  0.00     0.040 C 
HETATM   24  C   UNL     1     -43.216  60.962 -51.206  1.00  0.00     0.040 C 
ENDBRANCH  21  22
ENDBRANCH  19  21
ENDBRANCH   1  19
BRANCH   2  25
HETATM   25  O   UNL     1     -42.679  55.471 -53.902  1.00  0.00    -0.389 OA
HETATM   26  H   UNL     1     -41.818  55.485 -53.448  1.00  0.00     0.210 HD
ENDBRANCH   2  25
BRANCH   7  27
HETATM   27  O   UNL     1     -39.540  58.570 -50.353  1.00  0.00    -0.343 OA
HETATM   28  H   UNL     1     -39.494  57.665 -50.013  1.00  0.00     0.219 HD
ENDBRANCH   7  27
TORSDOF 6
ENDMDL
