MODEL 1
REMARK VINA RESULT:      -8.6      0.000      0.000
REMARK  4 active torsions:
REMARK  status: ('A' for Active; 'I' for Inactive)
REMARK    1  A    between atoms: C_2  and  C_3 
REMARK       I    between atoms: C_3  and  N_4 
REMARK    2  A    between atoms: N_4  and  C_5 
REMARK    3  A    between atoms: C_12  and  C_13 
REMARK       I    between atoms: C_13  and  N_14 
REMARK    4  A    between atoms: C_19  and  C_20 
ROOT
HETATM    1  C   UNL     1     -42.595  54.935 -55.154  1.00  0.00     0.036 A 
HETATM    2  C   UNL     1     -42.508  55.148 -56.537  1.00  0.00     0.046 A 
HETATM    3  C   UNL     1     -43.159  56.261 -57.112  1.00  0.00     0.030 A 
HETATM    4  C   UNL     1     -43.856  57.132 -56.284  1.00  0.00     0.063 A 
HETATM    5  N   UNL     1     -44.354  58.099 -57.111  1.00  0.00    -0.277 N 
HETATM    6  H   UNL     1     -44.910  58.906 -56.847  1.00  0.00     0.189 HD
HETATM    7  N   UNL     1     -44.063  57.926 -58.410  1.00  0.00    -0.168 NA
HETATM    8  C   UNL     1     -43.329  56.789 -58.428  1.00  0.00     0.156 A 
HETATM    9  C   UNL     1     -43.962  56.952 -54.903  1.00  0.00     0.034 A 
HETATM   10  C   UNL     1     -43.327  55.829 -54.360  1.00  0.00     0.032 A 
ENDROOT
BRANCH   1  11
HETATM   11  N   UNL     1     -41.997  53.842 -54.495  1.00  0.00    -0.323 N 
HETATM   12  C   UNL     1     -40.652  53.556 -54.402  1.00  0.00     0.251 C 
HETATM   13  O   UNL     1     -39.708  54.234 -54.782  1.00  0.00    -0.268 OA
HETATM   14  H   UNL     1     -42.623  53.201 -54.028  1.00  0.00     0.169 HD
BRANCH  12  15
HETATM   15  C   UNL     1     -40.392  52.281 -53.669  1.00  0.00     0.007 C 
HETATM   16  C   UNL     1     -40.127  51.107 -54.560  1.00  0.00     0.054 C 
HETATM   17  C   UNL     1     -40.426  52.191 -52.325  1.00  0.00     0.023 C 
BRANCH  17  18
HETATM   18  C   UNL     1     -40.757  53.256 -51.366  1.00  0.00    -0.034 A 
HETATM   19  C   UNL     1     -42.063  53.764 -51.341  1.00  0.00     0.035 A 
HETATM   20  C   UNL     1     -42.394  54.801 -50.466  1.00  0.00     0.034 A 
HETATM   21 CL   UNL     1     -44.002  55.412 -50.441  1.00  0.00    -0.084 Cl
HETATM   22  C   UNL     1     -41.434  55.347 -49.617  1.00  0.00     0.024 A 
HETATM   23  C   UNL     1     -40.130  54.859 -49.648  1.00  0.00     0.003 A 
HETATM   24  C   UNL     1     -39.791  53.825 -50.526  1.00  0.00     0.011 A 
ENDBRANCH  17  18
ENDBRANCH  12  15
ENDBRANCH   1  11
BRANCH   8  25
HETATM   25  C   UNL     1     -42.824  56.232 -59.691  1.00  0.00     0.270 C 
HETATM   26  N   UNL     1     -41.547  56.614 -59.998  1.00  0.00    -0.365 N 
HETATM   27  H   UNL     1     -41.064  57.241 -59.365  1.00  0.00     0.159 HD
HETATM   28  H   UNL     1     -41.125  56.300 -60.857  1.00  0.00     0.159 HD
HETATM   29  O   UNL     1     -43.463  55.498 -60.437  1.00  0.00    -0.266 OA
ENDBRANCH   8  25
TORSDOF 4
ENDMDL
MODEL 2
REMARK VINA RESULT:      -8.4      1.748      2.182
REMARK  4 active torsions:
REMARK  status: ('A' for Active; 'I' for Inactive)
REMARK    1  A    between atoms: C_2  and  C_3 
REMARK       I    between atoms: C_3  and  N_4 
REMARK    2  A    between atoms: N_4  and  C_5 
REMARK    3  A    between atoms: C_12  and  C_13 
REMARK       I    between atoms: C_13  and  N_14 
REMARK    4  A    between atoms: C_19  and  C_20 
ROOT
HETATM    1  C   UNL     1     -42.485  55.288 -56.149  1.00  0.00     0.036 A 
HETATM    2  C   UNL     1     -43.093  54.949 -57.366  1.00  0.00     0.046 A 
HETATM    3  C   UNL     1     -43.483  55.972 -58.257  1.00  0.00     0.030 A 
HETATM    4  C   UNL     1     -43.234  57.294 -57.911  1.00  0.00     0.063 A 
HETATM    5  N   UNL     1     -43.700  58.038 -58.959  1.00  0.00    -0.277 N 
HETATM    6  H   UNL     1     -43.675  59.047 -59.054  1.00  0.00     0.189 HD
HETATM    7  N   UNL     1     -44.252  57.320 -59.950  1.00  0.00    -0.168 NA
HETATM    8  C   UNL     1     -44.131  56.040 -59.528  1.00  0.00     0.156 A 
HETATM    9  C   UNL     1     -42.629  57.667 -56.709  1.00  0.00     0.034 A 
HETATM   10  C   UNL     1     -42.272  56.636 -55.832  1.00  0.00     0.032 A 
ENDROOT
BRANCH   1  11
HETATM   11  N   UNL     1     -42.082  54.337 -55.189  1.00  0.00    -0.323 N 
HETATM   12  C   UNL     1     -40.794  54.014 -54.821  1.00  0.00     0.251 C 
HETATM   13  O   UNL     1     -39.751  54.547 -55.175  1.00  0.00    -0.268 OA
HETATM   14  H   UNL     1     -42.821  53.844 -54.707  1.00  0.00     0.169 HD
BRANCH  12  15
HETATM   15  C   UNL     1     -40.750  52.919 -53.806  1.00  0.00     0.007 C 
HETATM   16  C   UNL     1     -40.201  51.627 -54.326  1.00  0.00     0.054 C 
HETATM   17  C   UNL     1     -41.196  53.075 -52.545  1.00  0.00     0.023 C 
BRANCH  17  18
HETATM   18  C   UNL     1     -41.827  54.268 -51.959  1.00  0.00    -0.034 A 
HETATM   19  C   UNL     1     -41.027  55.379 -51.659  1.00  0.00     0.035 A 
HETATM   20  C   UNL     1     -41.594  56.510 -51.068  1.00  0.00     0.034 A 
HETATM   21 CL   UNL     1     -40.603  57.870 -50.710  1.00  0.00    -0.084 Cl
HETATM   22  C   UNL     1     -42.952  56.545 -50.762  1.00  0.00     0.024 A 
HETATM   23  C   UNL     1     -43.750  55.438 -51.041  1.00  0.00     0.003 A 
HETATM   24  C   UNL     1     -43.187  54.301 -51.627  1.00  0.00     0.011 A 
ENDBRANCH  17  18
ENDBRANCH  12  15
ENDBRANCH   1  11
BRANCH   8  25
HETATM   25  C   UNL     1     -44.645  54.923 -60.334  1.00  0.00     0.270 C 
HETATM   26  N   UNL     1     -45.078  53.855 -59.597  1.00  0.00    -0.365 N 
HETATM   27  H   UNL     1     -45.003  53.902 -58.587  1.00  0.00     0.159 HD
HETATM   28  H   UNL     1     -45.425  53.034 -60.065  1.00  0.00     0.159 HD
HETATM   29  O   UNL     1     -44.687  54.906 -61.560  1.00  0.00    -0.266 OA
ENDBRANCH   8  25
TORSDOF 4
ENDMDL
MODEL 3
REMARK VINA RESULT:      -8.2      3.539      6.815
REMARK  4 active torsions:
REMARK  status: ('A' for Active; 'I' for Inactive)
REMARK    1  A    between atoms: C_2  and  C_3 
REMARK       I    between atoms: C_3  and  N_4 
REMARK    2  A    between atoms: N_4  and  C_5 
REMARK    3  A    between atoms: C_12  and  C_13 
REMARK       I    between atoms: C_13  and  N_14 
REMARK    4  A    between atoms: C_19  and  C_20 
ROOT
HETATM    1  C   UNL     1     -40.684  54.392 -52.824  1.00  0.00     0.036 A 
HETATM    2  C   UNL     1     -40.467  53.125 -53.383  1.00  0.00     0.046 A 
HETATM    3  C   UNL     1     -40.172  52.033 -52.539  1.00  0.00     0.030 A 
HETATM    4  C   UNL     1     -40.125  52.240 -51.166  1.00  0.00     0.063 A 
HETATM    5  N   UNL     1     -39.839  51.019 -50.624  1.00  0.00    -0.277 N 
HETATM    6  H   UNL     1     -39.738  50.792 -49.640  1.00  0.00     0.189 HD
HETATM    7  N   UNL     1     -39.674  50.035 -51.522  1.00  0.00    -0.168 NA
HETATM    8  C   UNL     1     -39.870  50.648 -52.712  1.00  0.00     0.156 A 
HETATM    9  C   UNL     1     -40.337  53.487 -50.575  1.00  0.00     0.034 A 
HETATM   10  C   UNL     1     -40.605  54.559 -51.435  1.00  0.00     0.032 A 
ENDROOT
BRANCH   1  11
HETATM   11  N   UNL     1     -40.963  55.543 -53.588  1.00  0.00    -0.323 N 
HETATM   12  C   UNL     1     -42.182  56.164 -53.752  1.00  0.00     0.251 C 
HETATM   13  O   UNL     1     -43.241  55.906 -53.196  1.00  0.00    -0.268 OA
HETATM   14  H   UNL     1     -40.178  55.969 -54.062  1.00  0.00     0.169 HD
BRANCH  12  15
HETATM   15  C   UNL     1     -42.105  57.332 -54.679  1.00  0.00     0.007 C 
HETATM   16  C   UNL     1     -42.347  56.988 -56.116  1.00  0.00     0.054 C 
HETATM   17  C   UNL     1     -41.812  58.578 -54.261  1.00  0.00     0.023 C 
BRANCH  17  18
HETATM   18  C   UNL     1     -41.477  59.008 -52.894  1.00  0.00    -0.034 A 
HETATM   19  C   UNL     1     -40.147  58.924 -52.464  1.00  0.00     0.035 A 
HETATM   20  C   UNL     1     -39.808  59.290 -51.160  1.00  0.00     0.034 A 
HETATM   21 CL   UNL     1     -38.169  59.188 -50.646  1.00  0.00    -0.084 Cl
HETATM   22  C   UNL     1     -40.785  59.732 -50.270  1.00  0.00     0.024 A 
HETATM   23  C   UNL     1     -42.112  59.802 -50.685  1.00  0.00     0.003 A 
HETATM   24  C   UNL     1     -42.458  59.431 -51.987  1.00  0.00     0.011 A 
ENDBRANCH  17  18
ENDBRANCH  12  15
ENDBRANCH   1  11
BRANCH   8  25
HETATM   25  C   UNL     1     -39.753  49.906 -53.976  1.00  0.00     0.270 C 
HETATM   26  N   UNL     1     -40.916  49.838 -54.693  1.00  0.00    -0.365 N 
HETATM   27  H   UNL     1     -41.747  50.274 -54.311  1.00  0.00     0.159 HD
HETATM   28  H   UNL     1     -40.937  49.329 -55.562  1.00  0.00     0.159 HD
HETATM   29  O   UNL     1     -38.727  49.371 -54.381  1.00  0.00    -0.266 OA
ENDBRANCH   8  25
TORSDOF 4
ENDMDL
MODEL 4
REMARK VINA RESULT:      -8.1      2.723      4.226
REMARK  4 active torsions:
REMARK  status: ('A' for Active; 'I' for Inactive)
REMARK    1  A    between atoms: C_2  and  C_3 
REMARK       I    between atoms: C_3  and  N_4 
REMARK    2  A    between atoms: N_4  and  C_5 
REMARK    3  A    between atoms: C_12  and  C_13 
REMARK       I    between atoms: C_13  and  N_14 
REMARK    4  A    between atoms: C_19  and  C_20 
ROOT
HETATM    1  C   UNL     1     -42.919  56.807 -52.190  1.00  0.00     0.036 A 
HETATM    2  C   UNL     1     -42.928  56.845 -53.592  1.00  0.00     0.046 A 
HETATM    3  C   UNL     1     -43.877  57.648 -54.260  1.00  0.00     0.030 A 
HETATM    4  C   UNL     1     -44.770  58.399 -53.507  1.00  0.00     0.063 A 
HETATM    5  N   UNL     1     -45.538  59.071 -54.416  1.00  0.00    -0.277 N 
HETATM    6  H   UNL     1     -46.290  59.723 -54.221  1.00  0.00     0.189 HD
HETATM    7  N   UNL     1     -45.241  58.808 -55.699  1.00  0.00    -0.168 NA
HETATM    8  C   UNL     1     -44.220  57.924 -55.619  1.00  0.00     0.156 A 
HETATM    9  C   UNL     1     -44.788  58.387 -52.110  1.00  0.00     0.034 A 
HETATM   10  C   UNL     1     -43.851  57.566 -51.471  1.00  0.00     0.032 A 
ENDROOT
BRANCH   1  11
HETATM   11  N   UNL     1     -42.023  56.020 -51.439  1.00  0.00    -0.323 N 
HETATM   12  C   UNL     1     -42.284  54.819 -50.818  1.00  0.00     0.251 C 
HETATM   13  O   UNL     1     -43.304  54.146 -50.873  1.00  0.00    -0.268 OA
HETATM   14  H   UNL     1     -41.079  56.371 -51.353  1.00  0.00     0.169 HD
BRANCH  12  15
HETATM   15  C   UNL     1     -41.103  54.299 -50.066  1.00  0.00     0.007 C 
HETATM   16  C   UNL     1     -40.983  54.835 -48.672  1.00  0.00     0.054 C 
HETATM   17  C   UNL     1     -40.208  53.450 -50.606  1.00  0.00     0.023 C 
BRANCH  17  18
HETATM   18  C   UNL     1     -40.185  52.932 -51.983  1.00  0.00    -0.034 A 
HETATM   19  C   UNL     1     -39.849  51.588 -52.196  1.00  0.00     0.035 A 
HETATM   20  C   UNL     1     -39.783  51.081 -53.495  1.00  0.00     0.034 A 
HETATM   21 CL   UNL     1     -39.375  49.427 -53.743  1.00  0.00    -0.084 Cl
HETATM   22  C   UNL     1     -40.039  51.901 -54.592  1.00  0.00     0.024 A 
HETATM   23  C   UNL     1     -40.357  53.242 -54.389  1.00  0.00     0.003 A 
HETATM   24  C   UNL     1     -40.419  53.757 -53.091  1.00  0.00     0.011 A 
ENDBRANCH  17  18
ENDBRANCH  12  15
ENDBRANCH   1  11
BRANCH   8  25
HETATM   25  C   UNL     1     -43.610  57.358 -56.831  1.00  0.00     0.270 C 
HETATM   26  N   UNL     1     -44.512  56.994 -57.792  1.00  0.00    -0.365 N 
HETATM   27  H   UNL     1     -45.499  57.121 -57.603  1.00  0.00     0.159 HD
HETATM   28  H   UNL     1     -44.187  56.575 -58.649  1.00  0.00     0.159 HD
HETATM   29  O   UNL     1     -42.405  57.199 -57.000  1.00  0.00    -0.266 OA
ENDBRANCH   8  25
TORSDOF 4
ENDMDL
MODEL 5
REMARK VINA RESULT:      -8.0      3.449      7.152
REMARK  4 active torsions:
REMARK  status: ('A' for Active; 'I' for Inactive)
REMARK    1  A    between atoms: C_2  and  C_3 
REMARK       I    between atoms: C_3  and  N_4 
REMARK    2  A    between atoms: N_4  and  C_5 
REMARK    3  A    between atoms: C_12  and  C_13 
REMARK       I    between atoms: C_13  and  N_14 
REMARK    4  A    between atoms: C_19  and  C_20 
ROOT
HETATM    1  C   UNL     1     -40.858  54.841 -54.020  1.00  0.00     0.036 A 
HETATM    2  C   UNL     1     -40.904  54.768 -52.621  1.00  0.00     0.046 A 
HETATM    3  C   UNL     1     -40.563  53.560 -51.975  1.00  0.00     0.030 A 
HETATM    4  C   UNL     1     -40.171  52.474 -52.748  1.00  0.00     0.063 A 
HETATM    5  N   UNL     1     -39.895  51.475 -51.857  1.00  0.00    -0.277 N 
HETATM    6  H   UNL     1     -39.571  50.538 -52.067  1.00  0.00     0.189 HD
HETATM    7  N   UNL     1     -40.094  51.805 -50.570  1.00  0.00    -0.168 NA
HETATM    8  C   UNL     1     -40.514  53.090 -50.628  1.00  0.00     0.156 A 
HETATM    9  C   UNL     1     -40.112  52.511 -54.142  1.00  0.00     0.034 A 
HETATM   10  C   UNL     1     -40.476  53.714 -54.760  1.00  0.00     0.032 A 
ENDROOT
BRANCH   1  11
HETATM   11  N   UNL     1     -41.200  55.996 -54.752  1.00  0.00    -0.323 N 
HETATM   12  C   UNL     1     -42.463  56.433 -55.083  1.00  0.00     0.251 C 
HETATM   13  O   UNL     1     -43.539  55.968 -54.732  1.00  0.00    -0.268 OA
HETATM   14  H   UNL     1     -40.431  56.577 -55.060  1.00  0.00     0.169 HD
BRANCH  12  15
HETATM   15  C   UNL     1     -42.436  57.674 -55.913  1.00  0.00     0.007 C 
HETATM   16  C   UNL     1     -42.439  57.421 -57.390  1.00  0.00     0.054 C 
HETATM   17  C   UNL     1     -42.381  58.909 -55.379  1.00  0.00     0.023 C 
BRANCH  17  18
HETATM   18  C   UNL     1     -42.290  59.264 -53.954  1.00  0.00    -0.034 A 
HETATM   19  C   UNL     1     -41.060  59.124 -53.298  1.00  0.00     0.035 A 
HETATM   20  C   UNL     1     -40.955  59.419 -51.937  1.00  0.00     0.034 A 
HETATM   21 CL   UNL     1     -39.438  59.250 -51.145  1.00  0.00    -0.084 Cl
HETATM   22  C   UNL     1     -42.068  59.844 -51.215  1.00  0.00     0.024 A 
HETATM   23  C   UNL     1     -43.298  59.968 -51.856  1.00  0.00     0.003 A 
HETATM   24  C   UNL     1     -43.411  59.670 -53.217  1.00  0.00     0.011 A 
ENDBRANCH  17  18
ENDBRANCH  12  15
ENDBRANCH   1  11
BRANCH   8  25
HETATM   25  C   UNL     1     -40.868  53.827 -49.406  1.00  0.00     0.270 C 
HETATM   26  N   UNL     1     -39.846  53.936 -48.504  1.00  0.00    -0.365 N 
HETATM   27  H   UNL     1     -38.956  53.505 -48.726  1.00  0.00     0.159 HD
HETATM   28  H   UNL     1     -40.003  54.405 -47.626  1.00  0.00     0.159 HD
HETATM   29  O   UNL     1     -41.973  54.306 -49.173  1.00  0.00    -0.266 OA
ENDBRANCH   8  25
TORSDOF 4
ENDMDL
MODEL 6
REMARK VINA RESULT:      -7.7      3.374      8.161
REMARK  4 active torsions:
REMARK  status: ('A' for Active; 'I' for Inactive)
REMARK    1  A    between atoms: C_2  and  C_3 
REMARK       I    between atoms: C_3  and  N_4 
REMARK    2  A    between atoms: N_4  and  C_5 
REMARK    3  A    between atoms: C_12  and  C_13 
REMARK       I    between atoms: C_13  and  N_14 
REMARK    4  A    between atoms: C_19  and  C_20 
ROOT
HETATM    1  C   UNL     1     -42.376  54.859 -53.974  1.00  0.00     0.036 A 
HETATM    2  C   UNL     1     -42.046  54.801 -52.613  1.00  0.00     0.046 A 
HETATM    3  C   UNL     1     -41.160  53.802 -52.154  1.00  0.00     0.030 A 
HETATM    4  C   UNL     1     -40.622  52.909 -53.073  1.00  0.00     0.063 A 
HETATM    5  N   UNL     1     -39.807  52.088 -52.346  1.00  0.00    -0.277 N 
HETATM    6  H   UNL     1     -39.242  51.320 -52.694  1.00  0.00     0.189 HD
HETATM    7  N   UNL     1     -39.782  52.349 -51.030  1.00  0.00    -0.168 NA
HETATM    8  C   UNL     1     -40.619  53.403 -50.894  1.00  0.00     0.156 A 
HETATM    9  C   UNL     1     -40.928  52.939 -54.435  1.00  0.00     0.034 A 
HETATM   10  C   UNL     1     -41.825  53.926 -54.862  1.00  0.00     0.032 A 
ENDROOT
BRANCH   1  11
HETATM   11  N   UNL     1     -43.266  55.807 -54.520  1.00  0.00    -0.323 N 
HETATM   12  C   UNL     1     -42.966  57.075 -54.966  1.00  0.00     0.251 C 
HETATM   13  O   UNL     1     -41.865  57.598 -55.072  1.00  0.00    -0.268 OA
HETATM   14  H   UNL     1     -44.232  55.521 -54.603  1.00  0.00     0.169 HD
BRANCH  12  15
HETATM   15  C   UNL     1     -44.178  57.815 -55.431  1.00  0.00     0.007 C 
HETATM   16  C   UNL     1     -45.086  58.256 -54.325  1.00  0.00     0.054 C 
HETATM   17  C   UNL     1     -44.443  58.037 -56.733  1.00  0.00     0.023 C 
BRANCH  17  18
HETATM   18  C   UNL     1     -43.667  57.577 -57.895  1.00  0.00    -0.034 A 
HETATM   19  C   UNL     1     -43.134  58.530 -58.774  1.00  0.00     0.035 A 
HETATM   20  C   UNL     1     -42.426  58.120 -59.905  1.00  0.00     0.034 A 
HETATM   21 CL   UNL     1     -41.771  59.300 -60.972  1.00  0.00    -0.084 Cl
HETATM   22  C   UNL     1     -42.248  56.766 -60.179  1.00  0.00     0.024 A 
HETATM   23  C   UNL     1     -42.790  55.813 -59.320  1.00  0.00     0.003 A 
HETATM   24  C   UNL     1     -43.505  56.217 -58.190  1.00  0.00     0.011 A 
ENDBRANCH  17  18
ENDBRANCH  12  15
ENDBRANCH   1  11
BRANCH   8  25
HETATM   25  C   UNL     1     -40.891  53.991 -49.575  1.00  0.00     0.270 C 
HETATM   26  N   UNL     1     -39.794  54.068 -48.761  1.00  0.00    -0.365 N 
HETATM   27  H   UNL     1     -38.909  53.716 -49.107  1.00  0.00     0.159 HD
HETATM   28  H   UNL     1     -39.890  54.436 -47.828  1.00  0.00     0.159 HD
HETATM   29  O   UNL     1     -41.991  54.378 -49.193  1.00  0.00    -0.266 OA
ENDBRANCH   8  25
TORSDOF 4
ENDMDL
MODEL 7
REMARK VINA RESULT:      -7.7      2.809      3.543
REMARK  4 active torsions:
REMARK  status: ('A' for Active; 'I' for Inactive)
REMARK    1  A    between atoms: C_2  and  C_3 
REMARK       I    between atoms: C_3  and  N_4 
REMARK    2  A    between atoms: N_4  and  C_5 
REMARK    3  A    between atoms: C_12  and  C_13 
REMARK       I    between atoms: C_13  and  N_14 
REMARK    4  A    between atoms: C_19  and  C_20 
ROOT
HETATM    1  C   UNL     1     -42.729  56.347 -55.927  1.00  0.00     0.036 A 
HETATM    2  C   UNL     1     -43.248  55.611 -57.001  1.00  0.00     0.046 A 
HETATM    3  C   UNL     1     -43.326  56.205 -58.279  1.00  0.00     0.030 A 
HETATM    4  C   UNL     1     -42.865  57.505 -58.443  1.00  0.00     0.063 A 
HETATM    5  N   UNL     1     -43.053  57.793 -59.766  1.00  0.00    -0.277 N 
HETATM    6  H   UNL     1     -42.821  58.656 -60.245  1.00  0.00     0.189 HD
HETATM    7  N   UNL     1     -43.618  56.804 -60.477  1.00  0.00    -0.168 NA
HETATM    8  C   UNL     1     -43.799  55.817 -59.570  1.00  0.00     0.156 A 
HETATM    9  C   UNL     1     -42.340  58.266 -57.397  1.00  0.00     0.034 A 
HETATM   10  C   UNL     1     -42.295  57.663 -56.135  1.00  0.00     0.032 A 
ENDROOT
BRANCH   1  11
HETATM   11  N   UNL     1     -42.632  55.845 -54.614  1.00  0.00    -0.323 N 
HETATM   12  C   UNL     1     -41.483  55.548 -53.915  1.00  0.00     0.251 C 
HETATM   13  O   UNL     1     -40.323  55.749 -54.248  1.00  0.00    -0.268 OA
HETATM   14  H   UNL     1     -43.504  55.695 -54.124  1.00  0.00     0.169 HD
BRANCH  12  15
HETATM   15  C   UNL     1     -41.770  54.983 -52.562  1.00  0.00     0.007 C 
HETATM   16  C   UNL     1     -41.958  53.497 -52.548  1.00  0.00     0.054 C 
HETATM   17  C   UNL     1     -41.882  55.749 -51.460  1.00  0.00     0.023 C 
BRANCH  17  18
HETATM   18  C   UNL     1     -41.800  57.215 -51.377  1.00  0.00    -0.034 A 
HETATM   19  C   UNL     1     -40.603  57.804 -50.949  1.00  0.00     0.035 A 
HETATM   20  C   UNL     1     -40.510  59.192 -50.826  1.00  0.00     0.034 A 
HETATM   21 CL   UNL     1     -39.032  59.903 -50.306  1.00  0.00    -0.084 Cl
HETATM   22  C   UNL     1     -41.603  60.005 -51.115  1.00  0.00     0.024 A 
HETATM   23  C   UNL     1     -42.803  59.426 -51.524  1.00  0.00     0.003 A 
HETATM   24  C   UNL     1     -42.903  58.037 -51.644  1.00  0.00     0.011 A 
ENDBRANCH  17  18
ENDBRANCH  12  15
ENDBRANCH   1  11
BRANCH   8  25
HETATM   25  C   UNL     1     -44.425  54.543 -59.950  1.00  0.00     0.270 C 
HETATM   26  N   UNL     1     -44.906  54.517 -61.231  1.00  0.00    -0.365 N 
HETATM   27  H   UNL     1     -44.813  55.350 -61.799  1.00  0.00     0.159 HD
HETATM   28  H   UNL     1     -45.373  53.692 -61.572  1.00  0.00     0.159 HD
HETATM   29  O   UNL     1     -44.539  53.570 -59.211  1.00  0.00    -0.266 OA
ENDBRANCH   8  25
TORSDOF 4
ENDMDL
MODEL 8
REMARK VINA RESULT:      -7.7      4.361      6.040
REMARK  4 active torsions:
REMARK  status: ('A' for Active; 'I' for Inactive)
REMARK    1  A    between atoms: C_2  and  C_3 
REMARK       I    between atoms: C_3  and  N_4 
REMARK    2  A    between atoms: N_4  and  C_5 
REMARK    3  A    between atoms: C_12  and  C_13 
REMARK       I    between atoms: C_13  and  N_14 
REMARK    4  A    between atoms: C_19  and  C_20 
ROOT
HETATM    1  C   UNL     1     -42.014  57.773 -53.003  1.00  0.00     0.036 A 
HETATM    2  C   UNL     1     -43.272  58.219 -52.573  1.00  0.00     0.046 A 
HETATM    3  C   UNL     1     -43.355  59.157 -51.521  1.00  0.00     0.030 A 
HETATM    4  C   UNL     1     -42.180  59.629 -50.949  1.00  0.00     0.063 A 
HETATM    5  N   UNL     1     -42.576  60.517 -49.988  1.00  0.00    -0.277 N 
HETATM    6  H   UNL     1     -41.980  61.063 -49.375  1.00  0.00     0.189 HD
HETATM    7  N   UNL     1     -43.906  60.650 -49.865  1.00  0.00    -0.168 NA
HETATM    8  C   UNL     1     -44.403  59.810 -50.803  1.00  0.00     0.156 A 
HETATM    9  C   UNL     1     -40.912  59.208 -51.353  1.00  0.00     0.034 A 
HETATM   10  C   UNL     1     -40.857  58.262 -52.383  1.00  0.00     0.032 A 
ENDROOT
BRANCH   1  11
HETATM   11  N   UNL     1     -41.834  56.825 -54.030  1.00  0.00    -0.323 N 
HETATM   12  C   UNL     1     -42.494  55.626 -54.187  1.00  0.00     0.251 C 
HETATM   13  O   UNL     1     -43.430  55.187 -53.532  1.00  0.00    -0.268 OA
HETATM   14  H   UNL     1     -41.151  57.054 -54.739  1.00  0.00     0.169 HD
BRANCH  12  15
HETATM   15  C   UNL     1     -42.002  54.855 -55.368  1.00  0.00     0.007 C 
HETATM   16  C   UNL     1     -42.545  55.335 -56.679  1.00  0.00     0.054 C 
HETATM   17  C   UNL     1     -41.170  53.802 -55.258  1.00  0.00     0.023 C 
BRANCH  17  18
HETATM   18  C   UNL     1     -40.648  53.200 -54.021  1.00  0.00    -0.034 A 
HETATM   19  C   UNL     1     -40.351  51.831 -54.007  1.00  0.00     0.035 A 
HETATM   20  C   UNL     1     -39.890  51.226 -52.836  1.00  0.00     0.034 A 
HETATM   21 CL   UNL     1     -39.523  49.546 -52.833  1.00  0.00    -0.084 Cl
HETATM   22  C   UNL     1     -39.728  51.971 -51.669  1.00  0.00     0.024 A 
HETATM   23  C   UNL     1     -40.037  53.329 -51.671  1.00  0.00     0.003 A 
HETATM   24  C   UNL     1     -40.505  53.938 -52.839  1.00  0.00     0.011 A 
ENDBRANCH  17  18
ENDBRANCH  12  15
ENDBRANCH   1  11
BRANCH   8  25
HETATM   25  C   UNL     1     -45.852  59.642 -50.979  1.00  0.00     0.270 C 
HETATM   26  N   UNL     1     -46.399  60.470 -51.921  1.00  0.00    -0.365 N 
HETATM   27  H   UNL     1     -45.793  61.125 -52.401  1.00  0.00     0.159 HD
HETATM   28  H   UNL     1     -47.391  60.442 -52.094  1.00  0.00     0.159 HD
HETATM   29  O   UNL     1     -46.547  58.852 -50.350  1.00  0.00    -0.266 OA
ENDBRANCH   8  25
TORSDOF 4
ENDMDL
MODEL 9
REMARK VINA RESULT:      -7.6      2.912      4.624
REMARK  4 active torsions:
REMARK  status: ('A' for Active; 'I' for Inactive)
REMARK    1  A    between atoms: C_2  and  C_3 
REMARK       I    between atoms: C_3  and  N_4 
REMARK    2  A    between atoms: N_4  and  C_5 
REMARK    3  A    between atoms: C_12  and  C_13 
REMARK       I    between atoms: C_13  and  N_14 
REMARK    4  A    between atoms: C_19  and  C_20 
ROOT
HETATM    1  C   UNL     1     -43.501  56.755 -57.747  1.00  0.00     0.036 A 
HETATM    2  C   UNL     1     -44.468  57.534 -58.398  1.00  0.00     0.046 A 
HETATM    3  C   UNL     1     -45.218  56.973 -59.454  1.00  0.00     0.030 A 
HETATM    4  C   UNL     1     -44.989  55.650 -59.810  1.00  0.00     0.063 A 
HETATM    5  N   UNL     1     -45.859  55.393 -60.832  1.00  0.00    -0.277 N 
HETATM    6  H   UNL     1     -45.976  54.519 -61.333  1.00  0.00     0.189 HD
HETATM    7  N   UNL     1     -46.621  56.438 -61.192  1.00  0.00    -0.168 NA
HETATM    8  C   UNL     1     -46.232  57.425 -60.353  1.00  0.00     0.156 A 
HETATM    9  C   UNL     1     -44.036  54.845 -59.183  1.00  0.00     0.034 A 
HETATM   10  C   UNL     1     -43.290  55.431 -58.153  1.00  0.00     0.032 A 
ENDROOT
BRANCH   1  11
HETATM   11  N   UNL     1     -42.692  57.236 -56.697  1.00  0.00    -0.323 N 
HETATM   12  C   UNL     1     -42.973  57.216 -55.349  1.00  0.00     0.251 C 
HETATM   13  O   UNL     1     -43.924  56.695 -54.783  1.00  0.00    -0.268 OA
HETATM   14  H   UNL     1     -41.800  57.630 -56.962  1.00  0.00     0.169 HD
BRANCH  12  15
HETATM   15  C   UNL     1     -41.900  57.863 -54.535  1.00  0.00     0.007 C 
HETATM   16  C   UNL     1     -41.924  59.360 -54.575  1.00  0.00     0.054 C 
HETATM   17  C   UNL     1     -40.975  57.160 -53.855  1.00  0.00     0.023 C 
BRANCH  17  18
HETATM   18  C   UNL     1     -40.811  55.699 -53.817  1.00  0.00    -0.034 A 
HETATM   19  C   UNL     1     -40.982  55.029 -52.598  1.00  0.00     0.035 A 
HETATM   20  C   UNL     1     -40.795  53.647 -52.526  1.00  0.00     0.034 A 
HETATM   21 CL   UNL     1     -41.015  52.836 -51.025  1.00  0.00    -0.084 Cl
HETATM   22  C   UNL     1     -40.429  52.921 -53.657  1.00  0.00     0.024 A 
HETATM   23  C   UNL     1     -40.240  53.582 -54.869  1.00  0.00     0.003 A 
HETATM   24  C   UNL     1     -40.420  54.966 -54.945  1.00  0.00     0.011 A 
ENDBRANCH  17  18
ENDBRANCH  12  15
ENDBRANCH   1  11
BRANCH   8  25
HETATM   25  C   UNL     1     -46.821  58.769 -60.437  1.00  0.00     0.270 C 
HETATM   26  N   UNL     1     -46.204  59.594 -61.337  1.00  0.00    -0.365 N 
HETATM   27  H   UNL     1     -45.406  59.240 -61.851  1.00  0.00     0.159 HD
HETATM   28  H   UNL     1     -46.525  60.543 -61.446  1.00  0.00     0.159 HD
HETATM   29  O   UNL     1     -47.773  59.159 -59.769  1.00  0.00    -0.266 OA
ENDBRANCH   8  25
TORSDOF 4
ENDMDL
MODEL 10
REMARK VINA RESULT:      -7.5      3.943      5.599
REMARK  4 active torsions:
REMARK  status: ('A' for Active; 'I' for Inactive)
REMARK    1  A    between atoms: C_2  and  C_3 
REMARK       I    between atoms: C_3  and  N_4 
REMARK    2  A    between atoms: N_4  and  C_5 
REMARK    3  A    between atoms: C_12  and  C_13 
REMARK       I    between atoms: C_13  and  N_14 
REMARK    4  A    between atoms: C_19  and  C_20 
ROOT
HETATM    1  C   UNL     1     -43.669  57.243 -53.114  1.00  0.00     0.036 A 
HETATM    2  C   UNL     1     -44.351  58.459 -53.260  1.00  0.00     0.046 A 
HETATM    3  C   UNL     1     -45.029  59.014 -52.153  1.00  0.00     0.030 A 
HETATM    4  C   UNL     1     -44.987  58.345 -50.936  1.00  0.00     0.063 A 
HETATM    5  N   UNL     1     -45.707  59.120 -50.071  1.00  0.00    -0.277 N 
HETATM    6  H   UNL     1     -45.881  58.943 -49.088  1.00  0.00     0.189 HD
HETATM    7  N   UNL     1     -46.237  60.225 -50.620  1.00  0.00    -0.168 NA
HETATM    8  C   UNL     1     -45.831  60.171 -51.910  1.00  0.00     0.156 A 
HETATM    9  C   UNL     1     -44.317  57.134 -50.754  1.00  0.00     0.034 A 
HETATM   10  C   UNL     1     -43.671  56.593 -51.872  1.00  0.00     0.032 A 
ENDROOT
BRANCH   1  11
HETATM   11  N   UNL     1     -42.982  56.604 -54.166  1.00  0.00    -0.323 N 
HETATM   12  C   UNL     1     -43.183  55.327 -54.641  1.00  0.00     0.251 C 
HETATM   13  O   UNL     1     -44.052  54.529 -54.319  1.00  0.00    -0.268 OA
HETATM   14  H   UNL     1     -42.269  57.147 -54.633  1.00  0.00     0.169 HD
BRANCH  12  15
HETATM   15  C   UNL     1     -42.229  54.971 -55.735  1.00  0.00     0.007 C 
HETATM   16  C   UNL     1     -42.601  55.530 -57.074  1.00  0.00     0.054 C 
HETATM   17  C   UNL     1     -41.151  54.190 -55.538  1.00  0.00     0.023 C 
BRANCH  17  18
HETATM   18  C   UNL     1     -40.743  53.525 -54.290  1.00  0.00    -0.034 A 
HETATM   19  C   UNL     1     -40.753  54.259 -53.097  1.00  0.00     0.035 A 
HETATM   20  C   UNL     1     -40.335  53.663 -51.905  1.00  0.00     0.034 A 
HETATM   21 CL   UNL     1     -40.359  54.572 -50.445  1.00  0.00    -0.084 Cl
HETATM   22  C   UNL     1     -39.896  52.341 -51.889  1.00  0.00     0.024 A 
HETATM   23  C   UNL     1     -39.866  51.610 -53.074  1.00  0.00     0.003 A 
HETATM   24  C   UNL     1     -40.278  52.204 -54.271  1.00  0.00     0.011 A 
ENDBRANCH  17  18
ENDBRANCH  12  15
ENDBRANCH   1  11
BRANCH   8  25
HETATM   25  C   UNL     1     -46.227  61.208 -52.874  1.00  0.00     0.270 C 
HETATM   26  N   UNL     1     -47.575  61.435 -52.927  1.00  0.00    -0.365 N 
HETATM   27  H   UNL     1     -48.183  60.884 -52.333  1.00  0.00     0.159 HD
HETATM   28  H   UNL     1     -47.941  62.112 -53.577  1.00  0.00     0.159 HD
HETATM   29  O   UNL     1     -45.451  61.827 -53.593  1.00  0.00    -0.266 OA
ENDBRANCH   8  25
TORSDOF 4
ENDMDL
