MODEL 1
REMARK VINA RESULT:      -8.4      0.000      0.000
REMARK  8 active torsions:
REMARK  status: ('A' for Active; 'I' for Inactive)
REMARK    1  A    between atoms: C_2  and  N_3 
REMARK    2  A    between atoms: N_7  and  C_8 
REMARK    3  A    between atoms: C_8  and  C_9 
REMARK    4  A    between atoms: C_10  and  C_11 
REMARK    5  A    between atoms: C_16  and  C_17 
REMARK       I    between atoms: C_17  and  N_18 
REMARK    6  A    between atoms: N_18  and  C_19 
REMARK    7  A    between atoms: C_21  and  O_22 
REMARK    8  A    between atoms: O_22  and  C_23 
ROOT
HETATM    1  C   UNL     1     -44.411  59.296 -52.910  1.00  0.00     0.256 C 
HETATM    2  N   UNL     1     -45.465  59.425 -52.022  1.00  0.00    -0.323 N 
HETATM    3  O   UNL     1     -43.901  60.207 -53.553  1.00  0.00    -0.267 OA
HETATM    4  H   UNL     1     -45.800  58.604 -51.549  1.00  0.00     0.169 HD
ENDROOT
BRANCH   1   5
HETATM    5  C   UNL     1     -43.842  57.914 -53.091  1.00  0.00     0.033 A 
HETATM    6  C   UNL     1     -44.002  56.995 -52.039  1.00  0.00     0.034 A 
HETATM    7  C   UNL     1     -43.502  55.676 -52.108  1.00  0.00     0.056 A 
HETATM    8  C   UNL     1     -42.809  55.275 -53.272  1.00  0.00    -0.015 A 
HETATM    9  C   UNL     1     -42.660  56.194 -54.327  1.00  0.00     0.011 A 
HETATM   10  C   UNL     1     -43.161  57.496 -54.237  1.00  0.00     0.017 A 
BRANCH   7  11
HETATM   11  C   UNL     1     -43.692  54.773 -50.902  1.00  0.00     0.418 C 
HETATM   12  F   UNL     1     -44.676  55.186 -50.053  1.00  0.00    -0.166 F 
HETATM   13  F   UNL     1     -44.004  53.496 -51.253  1.00  0.00    -0.166 F 
HETATM   14  F   UNL     1     -42.574  54.686 -50.129  1.00  0.00    -0.166 F 
ENDBRANCH   7  11
BRANCH   8  15
HETATM   15  C   UNL     1     -42.185  53.901 -53.421  1.00  0.00     0.312 C 
BRANCH  15  16
HETATM   16  N   UNL     1     -40.717  53.949 -53.512  1.00  0.00     0.096 N 
HETATM   17  C   UNL     1     -40.147  53.046 -54.530  1.00  0.00     0.300 C 
HETATM   18  C   UNL     1     -40.233  51.546 -54.184  1.00  0.00     0.265 C 
HETATM   19  N   UNL     1     -39.606  51.270 -52.822  1.00  0.00    -0.068 N 
HETATM   20  H   UNL     1     -38.603  51.487 -52.909  1.00  0.00     0.280 HD
HETATM   21  C   UNL     1     -40.151  52.209 -51.745  1.00  0.00     0.265 C 
HETATM   22  C   UNL     1     -40.085  53.681 -52.205  1.00  0.00     0.300 C 
BRANCH  19  23
HETATM   23  C   UNL     1     -39.733  49.828 -52.380  1.00  0.00     0.230 C 
HETATM   24  C   UNL     1     -39.702  49.707 -50.869  1.00  0.00     0.034 C 
ENDBRANCH  19  23
ENDBRANCH  15  16
ENDBRANCH   8  15
ENDBRANCH   1   5
BRANCH   2  25
HETATM   25  C   UNL     1     -46.120  60.615 -51.630  1.00  0.00     0.037 A 
HETATM   26  C   UNL     1     -46.954  61.365 -52.458  1.00  0.00     0.067 A 
HETATM   27  C   UNL     1     -47.489  62.581 -52.005  1.00  0.00     0.084 A 
HETATM   28  C   UNL     1     -47.256  63.028 -50.696  1.00  0.00    -0.028 A 
HETATM   29  C   UNL     1     -47.879  64.294 -50.184  1.00  0.00     0.051 C 
HETATM   30  C   UNL     1     -46.454  62.250 -49.857  1.00  0.00     0.012 A 
HETATM   31  C   UNL     1     -45.882  61.064 -50.324  1.00  0.00     0.030 A 
BRANCH  27  32
HETATM   32  O   UNL     1     -48.320  63.343 -52.798  1.00  0.00    -0.310 OA
BRANCH  32  33
HETATM   33  C   UNL     1     -49.594  62.884 -53.065  1.00  0.00     0.076 A 
HETATM   34  C   UNL     1     -49.753  62.236 -54.296  1.00  0.00     0.047 A 
HETATM   35  C   UNL     1     -51.004  61.740 -54.611  1.00  0.00    -0.020 A 
HETATM   36  C   UNL     1     -52.068  61.878 -53.725  1.00  0.00     0.041 A 
HETATM   37  C   UNL     1     -51.469  61.017 -55.839  1.00  0.00     0.144 A 
HETATM   38  N   UNL     1     -53.209  61.317 -54.274  1.00  0.00    -0.326 N 
HETATM   39  C   UNL     1     -51.936  62.489 -52.497  1.00  0.00     0.033 A 
HETATM   40  C   UNL     1     -52.953  60.785 -55.531  1.00  0.00     0.226 A 
HETATM   41  H   UNL     1     -54.121  61.286 -53.844  1.00  0.00     0.169 HD
HETATM   42  O   UNL     1     -53.770  60.233 -56.251  1.00  0.00    -0.273 OA
HETATM   43  C   UNL     1     -50.672  62.983 -52.159  1.00  0.00     0.039 A 
ENDBRANCH  32  33
ENDBRANCH  27  32
ENDBRANCH   2  25
TORSDOF 8
ENDMDL
MODEL 2
REMARK VINA RESULT:      -8.3      4.432      7.258
REMARK  8 active torsions:
REMARK  status: ('A' for Active; 'I' for Inactive)
REMARK    1  A    between atoms: C_2  and  N_3 
REMARK    2  A    between atoms: N_7  and  C_8 
REMARK    3  A    between atoms: C_8  and  C_9 
REMARK    4  A    between atoms: C_10  and  C_11 
REMARK    5  A    between atoms: C_16  and  C_17 
REMARK       I    between atoms: C_17  and  N_18 
REMARK    6  A    between atoms: N_18  and  C_19 
REMARK    7  A    between atoms: C_21  and  O_22 
REMARK    8  A    between atoms: O_22  and  C_23 
ROOT
HETATM    1  C   UNL     1     -43.078  60.524 -50.932  1.00  0.00     0.256 C 
HETATM    2  N   UNL     1     -44.446  60.551 -50.724  1.00  0.00    -0.323 N 
HETATM    3  O   UNL     1     -42.293  61.422 -50.646  1.00  0.00    -0.267 OA
HETATM    4  H   UNL     1     -44.991  59.753 -50.999  1.00  0.00     0.169 HD
ENDROOT
BRANCH   1   5
HETATM    5  C   UNL     1     -42.510  59.279 -51.559  1.00  0.00     0.033 A 
HETATM    6  C   UNL     1     -42.904  58.967 -52.873  1.00  0.00     0.034 A 
HETATM    7  C   UNL     1     -42.431  57.821 -53.549  1.00  0.00     0.056 A 
HETATM    8  C   UNL     1     -41.542  56.956 -52.874  1.00  0.00    -0.015 A 
HETATM    9  C   UNL     1     -41.142  57.276 -51.564  1.00  0.00     0.011 A 
HETATM   10  C   UNL     1     -41.622  58.416 -50.912  1.00  0.00     0.017 A 
BRANCH   7  11
HETATM   11  C   UNL     1     -42.949  57.552 -54.951  1.00  0.00     0.418 C 
HETATM   12  F   UNL     1     -43.671  58.581 -55.480  1.00  0.00    -0.166 F 
HETATM   13  F   UNL     1     -41.946  57.297 -55.835  1.00  0.00    -0.166 F 
HETATM   14  F   UNL     1     -43.780  56.474 -55.008  1.00  0.00    -0.166 F 
ENDBRANCH   7  11
BRANCH   8  15
HETATM   15  C   UNL     1     -41.024  55.671 -53.491  1.00  0.00     0.312 C 
BRANCH  15  16
HETATM   16  N   UNL     1     -41.965  54.549 -53.345  1.00  0.00     0.096 N 
HETATM   17  C   UNL     1     -41.736  53.723 -52.144  1.00  0.00     0.300 C 
HETATM   18  C   UNL     1     -40.462  52.855 -52.189  1.00  0.00     0.265 C 
HETATM   19  N   UNL     1     -40.449  51.983 -53.439  1.00  0.00    -0.068 N 
HETATM   20  H   UNL     1     -41.240  51.329 -53.353  1.00  0.00     0.280 HD
HETATM   21  C   UNL     1     -40.714  52.801 -54.705  1.00  0.00     0.265 C 
HETATM   22  C   UNL     1     -41.967  53.686 -54.543  1.00  0.00     0.300 C 
BRANCH  19  23
HETATM   23  C   UNL     1     -39.184  51.167 -53.593  1.00  0.00     0.230 C 
HETATM   24  C   UNL     1     -39.455  49.849 -54.292  1.00  0.00     0.034 C 
ENDBRANCH  19  23
ENDBRANCH  15  16
ENDBRANCH   8  15
ENDBRANCH   1   5
BRANCH   2  25
HETATM   25  C   UNL     1     -45.201  61.567 -50.095  1.00  0.00     0.037 A 
HETATM   26  C   UNL     1     -45.639  61.518 -48.772  1.00  0.00     0.067 A 
HETATM   27  C   UNL     1     -46.459  62.537 -48.263  1.00  0.00     0.084 A 
HETATM   28  C   UNL     1     -46.794  63.652 -49.046  1.00  0.00    -0.028 A 
HETATM   29  C   UNL     1     -47.617  64.777 -48.486  1.00  0.00     0.051 C 
HETATM   30  C   UNL     1     -46.317  63.715 -50.358  1.00  0.00     0.012 A 
HETATM   31  C   UNL     1     -45.541  62.677 -50.879  1.00  0.00     0.030 A 
BRANCH  27  32
HETATM   32  O   UNL     1     -46.905  62.520 -46.958  1.00  0.00    -0.310 OA
BRANCH  32  33
HETATM   33  C   UNL     1     -45.984  62.380 -45.941  1.00  0.00     0.076 A 
HETATM   34  C   UNL     1     -45.831  63.497 -45.110  1.00  0.00     0.047 A 
HETATM   35  C   UNL     1     -44.933  63.409 -44.063  1.00  0.00    -0.020 A 
HETATM   36  C   UNL     1     -44.210  62.240 -43.842  1.00  0.00     0.041 A 
HETATM   37  C   UNL     1     -44.561  64.429 -43.029  1.00  0.00     0.144 A 
HETATM   38  N   UNL     1     -43.374  62.408 -42.751  1.00  0.00    -0.326 N 
HETATM   39  C   UNL     1     -44.357  61.118 -44.627  1.00  0.00     0.033 A 
HETATM   40  C   UNL     1     -43.508  63.678 -42.205  1.00  0.00     0.226 A 
HETATM   41  H   UNL     1     -42.737  61.719 -42.380  1.00  0.00     0.169 HD
HETATM   42  O   UNL     1     -42.893  64.109 -41.242  1.00  0.00    -0.273 OA
HETATM   43  C   UNL     1     -45.272  61.188 -45.682  1.00  0.00     0.039 A 
ENDBRANCH  32  33
ENDBRANCH  27  32
ENDBRANCH   2  25
TORSDOF 8
ENDMDL
MODEL 3
REMARK VINA RESULT:      -8.3      6.612     11.964
REMARK  8 active torsions:
REMARK  status: ('A' for Active; 'I' for Inactive)
REMARK    1  A    between atoms: C_2  and  N_3 
REMARK    2  A    between atoms: N_7  and  C_8 
REMARK    3  A    between atoms: C_8  and  C_9 
REMARK    4  A    between atoms: C_10  and  C_11 
REMARK    5  A    between atoms: C_16  and  C_17 
REMARK       I    between atoms: C_17  and  N_18 
REMARK    6  A    between atoms: N_18  and  C_19 
REMARK    7  A    between atoms: C_21  and  O_22 
REMARK    8  A    between atoms: O_22  and  C_23 
ROOT
HETATM    1  C   UNL     1     -42.496  57.284 -57.008  1.00  0.00     0.256 C 
HETATM    2  N   UNL     1     -42.466  57.942 -55.791  1.00  0.00    -0.323 N 
HETATM    3  O   UNL     1     -42.663  56.080 -57.166  1.00  0.00    -0.267 OA
HETATM    4  H   UNL     1     -42.323  58.937 -55.784  1.00  0.00     0.169 HD
ENDROOT
BRANCH   1   5
HETATM    5  C   UNL     1     -42.314  58.128 -58.241  1.00  0.00     0.033 A 
HETATM    6  C   UNL     1     -41.898  59.461 -58.069  1.00  0.00     0.034 A 
HETATM    7  C   UNL     1     -41.701  60.336 -59.160  1.00  0.00     0.056 A 
HETATM    8  C   UNL     1     -41.943  59.854 -60.465  1.00  0.00    -0.015 A 
HETATM    9  C   UNL     1     -42.349  58.518 -60.635  1.00  0.00     0.011 A 
HETATM   10  C   UNL     1     -42.539  57.669 -59.541  1.00  0.00     0.017 A 
BRANCH   7  11
HETATM   11  C   UNL     1     -41.289  61.768 -58.865  1.00  0.00     0.418 C 
HETATM   12  F   UNL     1     -41.075  62.019 -57.542  1.00  0.00    -0.166 F 
HETATM   13  F   UNL     1     -40.145  62.122 -59.510  1.00  0.00    -0.166 F 
HETATM   14  F   UNL     1     -42.231  62.675 -59.248  1.00  0.00    -0.166 F 
ENDBRANCH   7  11
BRANCH   8  15
HETATM   15  C   UNL     1     -41.817  60.730 -61.697  1.00  0.00     0.312 C 
BRANCH  15  16
HETATM   16  N   UNL     1     -42.967  60.604 -62.606  1.00  0.00     0.096 N 
HETATM   17  C   UNL     1     -42.894  61.474 -63.795  1.00  0.00     0.300 C 
HETATM   18  C   UNL     1     -43.086  62.977 -63.508  1.00  0.00     0.265 C 
HETATM   19  N   UNL     1     -44.389  63.220 -62.755  1.00  0.00    -0.068 N 
HETATM   20  H   UNL     1     -45.152  62.949 -63.390  1.00  0.00     0.280 HD
HETATM   21  C   UNL     1     -44.514  62.311 -61.531  1.00  0.00     0.265 C 
HETATM   22  C   UNL     1     -44.243  60.838 -61.901  1.00  0.00     0.300 C 
BRANCH  19  23
HETATM   23  C   UNL     1     -44.599  64.666 -62.364  1.00  0.00     0.230 C 
HETATM   24  C   UNL     1     -45.281  64.782 -61.014  1.00  0.00     0.034 C 
ENDBRANCH  19  23
ENDBRANCH  15  16
ENDBRANCH   8  15
ENDBRANCH   1   5
BRANCH   2  25
HETATM   25  C   UNL     1     -42.679  57.389 -54.508  1.00  0.00     0.037 A 
HETATM   26  C   UNL     1     -41.667  56.904 -53.680  1.00  0.00     0.067 A 
HETATM   27  C   UNL     1     -41.988  56.293 -52.458  1.00  0.00     0.084 A 
HETATM   28  C   UNL     1     -43.316  56.222 -52.014  1.00  0.00    -0.028 A 
HETATM   29  C   UNL     1     -43.660  55.628 -50.678  1.00  0.00     0.051 C 
HETATM   30  C   UNL     1     -44.323  56.748 -52.829  1.00  0.00     0.012 A 
HETATM   31  C   UNL     1     -44.007  57.313 -54.067  1.00  0.00     0.030 A 
BRANCH  27  32
HETATM   32  O   UNL     1     -41.010  55.807 -51.616  1.00  0.00    -0.310 OA
BRANCH  32  33
HETATM   33  C   UNL     1     -40.665  54.474 -51.693  1.00  0.00     0.076 A 
HETATM   34  C   UNL     1     -40.654  53.929 -52.983  1.00  0.00     0.047 A 
HETATM   35  C   UNL     1     -40.300  52.600 -53.124  1.00  0.00    -0.020 A 
HETATM   36  C   UNL     1     -39.959  51.833 -52.013  1.00  0.00     0.041 A 
HETATM   37  C   UNL     1     -40.206  51.757 -54.359  1.00  0.00     0.144 A 
HETATM   38  N   UNL     1     -39.661  50.541 -52.412  1.00  0.00    -0.326 N 
HETATM   39  C   UNL     1     -39.937  52.348 -50.735  1.00  0.00     0.033 A 
HETATM   40  C   UNL     1     -39.785  50.398 -53.788  1.00  0.00     0.226 A 
HETATM   41  H   UNL     1     -39.391  49.781 -51.806  1.00  0.00     0.169 HD
HETATM   42  O   UNL     1     -39.591  49.371 -54.418  1.00  0.00    -0.273 OA
HETATM   43  C   UNL     1     -40.280  53.695 -50.580  1.00  0.00     0.039 A 
ENDBRANCH  32  33
ENDBRANCH  27  32
ENDBRANCH   2  25
TORSDOF 8
ENDMDL
MODEL 4
REMARK VINA RESULT:      -8.2      3.176      4.747
REMARK  8 active torsions:
REMARK  status: ('A' for Active; 'I' for Inactive)
REMARK    1  A    between atoms: C_2  and  N_3 
REMARK    2  A    between atoms: N_7  and  C_8 
REMARK    3  A    between atoms: C_8  and  C_9 
REMARK    4  A    between atoms: C_10  and  C_11 
REMARK    5  A    between atoms: C_16  and  C_17 
REMARK       I    between atoms: C_17  and  N_18 
REMARK    6  A    between atoms: N_18  and  C_19 
REMARK    7  A    between atoms: C_21  and  O_22 
REMARK    8  A    between atoms: O_22  and  C_23 
ROOT
HETATM    1  C   UNL     1     -44.328  57.726 -57.232  1.00  0.00     0.256 C 
HETATM    2  N   UNL     1     -45.661  57.597 -57.581  1.00  0.00    -0.323 N 
HETATM    3  O   UNL     1     -43.570  58.609 -57.616  1.00  0.00    -0.267 OA
HETATM    4  H   UNL     1     -46.187  56.829 -57.201  1.00  0.00     0.169 HD
ENDROOT
BRANCH   1   5
HETATM    5  C   UNL     1     -43.769  56.692 -56.292  1.00  0.00     0.033 A 
HETATM    6  C   UNL     1     -43.770  56.987 -54.916  1.00  0.00     0.034 A 
HETATM    7  C   UNL     1     -43.266  56.086 -53.953  1.00  0.00     0.056 A 
HETATM    8  C   UNL     1     -42.734  54.853 -54.391  1.00  0.00    -0.015 A 
HETATM    9  C   UNL     1     -42.744  54.557 -55.767  1.00  0.00     0.011 A 
HETATM   10  C   UNL     1     -43.247  55.464 -56.704  1.00  0.00     0.017 A 
BRANCH   7  11
HETATM   11  C   UNL     1     -43.275  56.516 -52.496  1.00  0.00     0.418 C 
HETATM   12  F   UNL     1     -43.873  55.620 -51.660  1.00  0.00    -0.166 F 
HETATM   13  F   UNL     1     -42.021  56.715 -52.006  1.00  0.00    -0.166 F 
HETATM   14  F   UNL     1     -43.944  57.685 -52.296  1.00  0.00    -0.166 F 
ENDBRANCH   7  11
BRANCH   8  15
HETATM   15  C   UNL     1     -42.116  53.844 -53.443  1.00  0.00     0.312 C 
BRANCH  15  16
HETATM   16  N   UNL     1     -40.653  53.973 -53.346  1.00  0.00     0.096 N 
HETATM   17  C   UNL     1     -39.909  53.130 -54.301  1.00  0.00     0.300 C 
HETATM   18  C   UNL     1     -39.952  51.619 -53.999  1.00  0.00     0.265 C 
HETATM   19  N   UNL     1     -39.486  51.341 -52.574  1.00  0.00    -0.068 N 
HETATM   20  H   UNL     1     -38.495  51.614 -52.528  1.00  0.00     0.280 HD
HETATM   21  C   UNL     1     -40.216  52.220 -51.557  1.00  0.00     0.265 C 
HETATM   22  C   UNL     1     -40.176  53.705 -51.975  1.00  0.00     0.300 C 
BRANCH  19  23
HETATM   23  C   UNL     1     -39.586  49.883 -52.181  1.00  0.00     0.230 C 
HETATM   24  C   UNL     1     -39.808  49.725 -50.689  1.00  0.00     0.034 C 
ENDBRANCH  19  23
ENDBRANCH  15  16
ENDBRANCH   8  15
ENDBRANCH   1   5
BRANCH   2  25
HETATM   25  C   UNL     1     -46.429  58.470 -58.385  1.00  0.00     0.037 A 
HETATM   26  C   UNL     1     -47.138  59.569 -57.900  1.00  0.00     0.067 A 
HETATM   27  C   UNL     1     -47.943  60.326 -58.764  1.00  0.00     0.084 A 
HETATM   28  C   UNL     1     -47.995  60.040 -60.136  1.00  0.00    -0.028 A 
HETATM   29  C   UNL     1     -48.803  60.887 -61.078  1.00  0.00     0.051 C 
HETATM   30  C   UNL     1     -47.249  58.964 -60.624  1.00  0.00     0.012 A 
HETATM   31  C   UNL     1     -46.486  58.181 -59.754  1.00  0.00     0.030 A 
BRANCH  27  32
HETATM   32  O   UNL     1     -48.653  61.420 -58.316  1.00  0.00    -0.310 OA
BRANCH  32  33
HETATM   33  C   UNL     1     -49.627  61.236 -57.357  1.00  0.00     0.076 A 
HETATM   34  C   UNL     1     -49.511  62.044 -56.219  1.00  0.00     0.047 A 
HETATM   35  C   UNL     1     -50.469  61.915 -55.231  1.00  0.00    -0.020 A 
HETATM   36  C   UNL     1     -51.519  61.012 -55.372  1.00  0.00     0.041 A 
HETATM   37  C   UNL     1     -50.599  62.630 -53.920  1.00  0.00     0.144 A 
HETATM   38  N   UNL     1     -52.329  61.060 -54.249  1.00  0.00    -0.326 N 
HETATM   39  C   UNL     1     -51.674  60.223 -56.490  1.00  0.00     0.033 A 
HETATM   40  C   UNL     1     -51.859  61.988 -53.329  1.00  0.00     0.226 A 
HETATM   41  H   UNL     1     -53.155  60.504 -54.090  1.00  0.00     0.169 HD
HETATM   42  O   UNL     1     -52.367  62.240 -52.248  1.00  0.00    -0.273 OA
HETATM   43  C   UNL     1     -50.719  60.353 -57.504  1.00  0.00     0.039 A 
ENDBRANCH  32  33
ENDBRANCH  27  32
ENDBRANCH   2  25
TORSDOF 8
ENDMDL
MODEL 5
REMARK VINA RESULT:      -8.1      6.077     11.688
REMARK  8 active torsions:
REMARK  status: ('A' for Active; 'I' for Inactive)
REMARK    1  A    between atoms: C_2  and  N_3 
REMARK    2  A    between atoms: N_7  and  C_8 
REMARK    3  A    between atoms: C_8  and  C_9 
REMARK    4  A    between atoms: C_10  and  C_11 
REMARK    5  A    between atoms: C_16  and  C_17 
REMARK       I    between atoms: C_17  and  N_18 
REMARK    6  A    between atoms: N_18  and  C_19 
REMARK    7  A    between atoms: C_21  and  O_22 
REMARK    8  A    between atoms: O_22  and  C_23 
ROOT
HETATM    1  C   UNL     1     -43.070  57.729 -56.691  1.00  0.00     0.256 C 
HETATM    2  N   UNL     1     -43.258  58.411 -55.502  1.00  0.00    -0.323 N 
HETATM    3  O   UNL     1     -42.180  56.916 -56.916  1.00  0.00    -0.267 OA
HETATM    4  H   UNL     1     -44.027  59.055 -55.432  1.00  0.00     0.169 HD
ENDROOT
BRANCH   1   5
HETATM    5  C   UNL     1     -44.052  58.008 -57.797  1.00  0.00     0.033 A 
HETATM    6  C   UNL     1     -44.580  56.908 -58.498  1.00  0.00     0.034 A 
HETATM    7  C   UNL     1     -45.505  57.062 -59.554  1.00  0.00     0.056 A 
HETATM    8  C   UNL     1     -45.902  58.367 -59.921  1.00  0.00    -0.015 A 
HETATM    9  C   UNL     1     -45.380  59.464 -59.211  1.00  0.00     0.011 A 
HETATM   10  C   UNL     1     -44.464  59.289 -58.169  1.00  0.00     0.017 A 
BRANCH   7  11
HETATM   11  C   UNL     1     -45.984  55.814 -60.275  1.00  0.00     0.418 C 
HETATM   12  F   UNL     1     -45.609  55.755 -61.584  1.00  0.00    -0.166 F 
HETATM   13  F   UNL     1     -45.525  54.672 -59.696  1.00  0.00    -0.166 F 
HETATM   14  F   UNL     1     -47.342  55.705 -60.292  1.00  0.00    -0.166 F 
ENDBRANCH   7  11
BRANCH   8  15
HETATM   15  C   UNL     1     -46.844  58.641 -61.077  1.00  0.00     0.312 C 
BRANCH  15  16
HETATM   16  N   UNL     1     -47.290  60.043 -61.129  1.00  0.00     0.096 N 
HETATM   17  C   UNL     1     -48.684  60.247 -60.691  1.00  0.00     0.300 C 
HETATM   18  C   UNL     1     -49.753  59.708 -61.663  1.00  0.00     0.265 C 
HETATM   19  N   UNL     1     -49.548  60.281 -63.061  1.00  0.00    -0.068 N 
HETATM   20  H   UNL     1     -49.710  61.295 -62.991  1.00  0.00     0.280 HD
HETATM   21  C   UNL     1     -48.104  60.113 -63.537  1.00  0.00     0.265 C 
HETATM   22  C   UNL     1     -47.106  60.620 -62.475  1.00  0.00     0.300 C 
BRANCH  19  23
HETATM   23  C   UNL     1     -50.511  59.725 -64.087  1.00  0.00     0.230 C 
HETATM   24  C   UNL     1     -51.896  59.530 -63.501  1.00  0.00     0.034 C 
ENDBRANCH  19  23
ENDBRANCH  15  16
ENDBRANCH   8  15
ENDBRANCH   1   5
BRANCH   2  25
HETATM   25  C   UNL     1     -42.520  58.273 -54.304  1.00  0.00     0.037 A 
HETATM   26  C   UNL     1     -42.705  57.247 -53.378  1.00  0.00     0.067 A 
HETATM   27  C   UNL     1     -41.984  57.245 -52.174  1.00  0.00     0.084 A 
HETATM   28  C   UNL     1     -41.017  58.226 -51.911  1.00  0.00    -0.028 A 
HETATM   29  C   UNL     1     -40.195  58.192 -50.655  1.00  0.00     0.051 C 
HETATM   30  C   UNL     1     -40.806  59.229 -52.862  1.00  0.00     0.012 A 
HETATM   31  C   UNL     1     -41.559  59.258 -54.038  1.00  0.00     0.030 A 
BRANCH  27  32
HETATM   32  O   UNL     1     -42.141  56.242 -51.241  1.00  0.00    -0.310 OA
BRANCH  32  33
HETATM   33  C   UNL     1     -41.417  55.076 -51.385  1.00  0.00     0.076 A 
HETATM   34  C   UNL     1     -41.518  54.457 -52.638  1.00  0.00     0.047 A 
HETATM   35  C   UNL     1     -40.801  53.294 -52.846  1.00  0.00    -0.020 A 
HETATM   36  C   UNL     1     -40.000  52.762 -51.839  1.00  0.00     0.041 A 
HETATM   37  C   UNL     1     -40.718  52.422 -54.063  1.00  0.00     0.144 A 
HETATM   38  N   UNL     1     -39.404  51.594 -52.286  1.00  0.00    -0.326 N 
HETATM   39  C   UNL     1     -39.862  53.361 -50.606  1.00  0.00     0.033 A 
HETATM   40  C   UNL     1     -39.775  51.308 -53.594  1.00  0.00     0.226 A 
HETATM   41  H   UNL     1     -38.780  51.006 -51.755  1.00  0.00     0.169 HD
HETATM   42  O   UNL     1     -39.408  50.342 -54.243  1.00  0.00    -0.273 OA
HETATM   43  C   UNL     1     -40.571  54.546 -50.387  1.00  0.00     0.039 A 
ENDBRANCH  32  33
ENDBRANCH  27  32
ENDBRANCH   2  25
TORSDOF 8
ENDMDL
MODEL 6
REMARK VINA RESULT:      -8.0      5.191     11.579
REMARK  8 active torsions:
REMARK  status: ('A' for Active; 'I' for Inactive)
REMARK    1  A    between atoms: C_2  and  N_3 
REMARK    2  A    between atoms: N_7  and  C_8 
REMARK    3  A    between atoms: C_8  and  C_9 
REMARK    4  A    between atoms: C_10  and  C_11 
REMARK    5  A    between atoms: C_16  and  C_17 
REMARK       I    between atoms: C_17  and  N_18 
REMARK    6  A    between atoms: N_18  and  C_19 
REMARK    7  A    between atoms: C_21  and  O_22 
REMARK    8  A    between atoms: O_22  and  C_23 
ROOT
HETATM    1  C   UNL     1     -44.406  58.741 -51.496  1.00  0.00     0.256 C 
HETATM    2  N   UNL     1     -44.071  59.074 -52.797  1.00  0.00    -0.323 N 
HETATM    3  O   UNL     1     -44.522  57.602 -51.058  1.00  0.00    -0.267 OA
HETATM    4  H   UNL     1     -44.003  60.047 -53.043  1.00  0.00     0.169 HD
ENDROOT
BRANCH   1   5
HETATM    5  C   UNL     1     -44.638  59.880 -50.541  1.00  0.00     0.033 A 
HETATM    6  C   UNL     1     -44.010  61.108 -50.819  1.00  0.00     0.034 A 
HETATM    7  C   UNL     1     -44.161  62.237 -49.985  1.00  0.00     0.056 A 
HETATM    8  C   UNL     1     -44.962  62.121 -48.827  1.00  0.00    -0.015 A 
HETATM    9  C   UNL     1     -45.597  60.895 -48.558  1.00  0.00     0.011 A 
HETATM   10  C   UNL     1     -45.433  59.789 -49.396  1.00  0.00     0.017 A 
BRANCH   7  11
HETATM   11  C   UNL     1     -43.408  63.505 -50.351  1.00  0.00     0.418 C 
HETATM   12  F   UNL     1     -42.387  63.806 -49.499  1.00  0.00    -0.166 F 
HETATM   13  F   UNL     1     -42.860  63.442 -51.594  1.00  0.00    -0.166 F 
HETATM   14  F   UNL     1     -44.205  64.610 -50.349  1.00  0.00    -0.166 F 
ENDBRANCH   7  11
BRANCH   8  15
HETATM   15  C   UNL     1     -45.141  63.256 -47.838  1.00  0.00     0.312 C 
BRANCH  15  16
HETATM   16  N   UNL     1     -46.143  62.958 -46.802  1.00  0.00     0.096 N 
HETATM   17  C   UNL     1     -46.628  64.145 -46.074  1.00  0.00     0.300 C 
HETATM   18  C   UNL     1     -45.600  64.782 -45.117  1.00  0.00     0.265 C 
HETATM   19  N   UNL     1     -45.061  63.745 -44.138  1.00  0.00    -0.068 N 
HETATM   20  H   UNL     1     -45.855  63.451 -43.552  1.00  0.00     0.280 HD
HETATM   21  C   UNL     1     -44.576  62.485 -44.856  1.00  0.00     0.265 C 
HETATM   22  C   UNL     1     -45.643  61.958 -45.838  1.00  0.00     0.300 C 
BRANCH  19  23
HETATM   23  C   UNL     1     -43.982  64.282 -43.224  1.00  0.00     0.230 C 
HETATM   24  C   UNL     1     -43.670  63.311 -42.101  1.00  0.00     0.034 C 
ENDBRANCH  19  23
ENDBRANCH  15  16
ENDBRANCH   8  15
ENDBRANCH   1   5
BRANCH   2  25
HETATM   25  C   UNL     1     -43.739  58.196 -53.853  1.00  0.00     0.037 A 
HETATM   26  C   UNL     1     -42.544  57.483 -53.939  1.00  0.00     0.067 A 
HETATM   27  C   UNL     1     -42.268  56.702 -55.073  1.00  0.00     0.084 A 
HETATM   28  C   UNL     1     -43.212  56.565 -56.101  1.00  0.00    -0.028 A 
HETATM   29  C   UNL     1     -42.951  55.679 -57.284  1.00  0.00     0.051 C 
HETATM   30  C   UNL     1     -44.426  57.248 -55.989  1.00  0.00     0.012 A 
HETATM   31  C   UNL     1     -44.680  58.064 -54.884  1.00  0.00     0.030 A 
BRANCH  27  32
HETATM   32  O   UNL     1     -41.098  55.982 -55.185  1.00  0.00    -0.310 OA
BRANCH  32  33
HETATM   33  C   UNL     1     -40.884  54.917 -54.334  1.00  0.00     0.076 A 
HETATM   34  C   UNL     1     -40.491  53.724 -54.952  1.00  0.00     0.047 A 
HETATM   35  C   UNL     1     -40.247  52.626 -54.148  1.00  0.00    -0.020 A 
HETATM   36  C   UNL     1     -40.384  52.713 -52.765  1.00  0.00     0.041 A 
HETATM   37  C   UNL     1     -39.826  51.237 -54.521  1.00  0.00     0.144 A 
HETATM   38  N   UNL     1     -40.101  51.485 -52.191  1.00  0.00    -0.326 N 
HETATM   39  C   UNL     1     -40.745  53.880 -52.127  1.00  0.00     0.033 A 
HETATM   40  C   UNL     1     -39.764  50.544 -53.155  1.00  0.00     0.226 A 
HETATM   41  H   UNL     1     -40.131  51.270 -51.205  1.00  0.00     0.169 HD
HETATM   42  O   UNL     1     -39.473  49.378 -52.941  1.00  0.00    -0.273 OA
HETATM   43  C   UNL     1     -40.981  55.002 -52.928  1.00  0.00     0.039 A 
ENDBRANCH  32  33
ENDBRANCH  27  32
ENDBRANCH   2  25
TORSDOF 8
ENDMDL
MODEL 7
REMARK VINA RESULT:      -7.9      6.308     11.767
REMARK  8 active torsions:
REMARK  status: ('A' for Active; 'I' for Inactive)
REMARK    1  A    between atoms: C_2  and  N_3 
REMARK    2  A    between atoms: N_7  and  C_8 
REMARK    3  A    between atoms: C_8  and  C_9 
REMARK    4  A    between atoms: C_10  and  C_11 
REMARK    5  A    between atoms: C_16  and  C_17 
REMARK       I    between atoms: C_17  and  N_18 
REMARK    6  A    between atoms: N_18  and  C_19 
REMARK    7  A    between atoms: C_21  and  O_22 
REMARK    8  A    between atoms: O_22  and  C_23 
ROOT
HETATM    1  C   UNL     1     -42.207  59.502 -55.293  1.00  0.00     0.256 C 
HETATM    2  N   UNL     1     -42.599  58.183 -55.145  1.00  0.00    -0.323 N 
HETATM    3  O   UNL     1     -41.955  60.280 -54.380  1.00  0.00    -0.267 OA
HETATM    4  H   UNL     1     -42.778  57.637 -55.971  1.00  0.00     0.169 HD
ENDROOT
BRANCH   1   5
HETATM    5  C   UNL     1     -42.074  60.017 -56.701  1.00  0.00     0.033 A 
HETATM    6  C   UNL     1     -42.271  59.106 -57.755  1.00  0.00     0.034 A 
HETATM    7  C   UNL     1     -42.166  59.488 -59.110  1.00  0.00     0.056 A 
HETATM    8  C   UNL     1     -41.842  60.829 -59.412  1.00  0.00    -0.015 A 
HETATM    9  C   UNL     1     -41.656  61.740 -58.357  1.00  0.00     0.011 A 
HETATM   10  C   UNL     1     -41.763  61.341 -57.021  1.00  0.00     0.017 A 
BRANCH   7  11
HETATM   11  C   UNL     1     -42.357  58.420 -60.173  1.00  0.00     0.418 C 
HETATM   12  F   UNL     1     -42.419  57.152 -59.676  1.00  0.00    -0.166 F 
HETATM   13  F   UNL     1     -43.497  58.602 -60.893  1.00  0.00    -0.166 F 
HETATM   14  F   UNL     1     -41.341  58.392 -61.080  1.00  0.00    -0.166 F 
ENDBRANCH   7  11
BRANCH   8  15
HETATM   15  C   UNL     1     -41.649  61.325 -60.832  1.00  0.00     0.312 C 
BRANCH  15  16
HETATM   16  N   UNL     1     -42.252  62.648 -61.061  1.00  0.00     0.096 N 
HETATM   17  C   UNL     1     -43.681  62.729 -60.705  1.00  0.00     0.300 C 
HETATM   18  C   UNL     1     -44.627  61.961 -61.649  1.00  0.00     0.265 C 
HETATM   19  N   UNL     1     -44.418  62.399 -63.094  1.00  0.00    -0.068 N 
HETATM   20  H   UNL     1     -44.699  63.387 -63.148  1.00  0.00     0.280 HD
HETATM   21  C   UNL     1     -42.941  62.356 -63.492  1.00  0.00     0.265 C 
HETATM   22  C   UNL     1     -42.065  63.093 -62.457  1.00  0.00     0.300 C 
BRANCH  19  23
HETATM   23  C   UNL     1     -45.254  61.622 -64.087  1.00  0.00     0.230 C 
HETATM   24  C   UNL     1     -46.431  60.944 -63.411  1.00  0.00     0.034 C 
ENDBRANCH  19  23
ENDBRANCH  15  16
ENDBRANCH   8  15
ENDBRANCH   1   5
BRANCH   2  25
HETATM   25  C   UNL     1     -42.726  57.452 -53.942  1.00  0.00     0.037 A 
HETATM   26  C   UNL     1     -41.658  56.890 -53.244  1.00  0.00     0.067 A 
HETATM   27  C   UNL     1     -41.895  56.106 -52.104  1.00  0.00     0.084 A 
HETATM   28  C   UNL     1     -43.195  55.933 -51.605  1.00  0.00    -0.028 A 
HETATM   29  C   UNL     1     -43.448  55.151 -50.348  1.00  0.00     0.051 C 
HETATM   30  C   UNL     1     -44.257  56.535 -52.285  1.00  0.00     0.012 A 
HETATM   31  C   UNL     1     -44.025  57.274 -53.447  1.00  0.00     0.030 A 
BRANCH  27  32
HETATM   32  O   UNL     1     -40.860  55.540 -51.390  1.00  0.00    -0.310 OA
BRANCH  32  33
HETATM   33  C   UNL     1     -40.559  54.210 -51.593  1.00  0.00     0.076 A 
HETATM   34  C   UNL     1     -40.586  53.784 -52.927  1.00  0.00     0.047 A 
HETATM   35  C   UNL     1     -40.276  52.463 -53.193  1.00  0.00    -0.020 A 
HETATM   36  C   UNL     1     -39.942  51.589 -52.163  1.00  0.00     0.041 A 
HETATM   37  C   UNL     1     -40.229  51.733 -54.502  1.00  0.00     0.144 A 
HETATM   38  N   UNL     1     -39.692  50.330 -52.682  1.00  0.00    -0.326 N 
HETATM   39  C   UNL     1     -39.883  51.985 -50.844  1.00  0.00     0.033 A 
HETATM   40  C   UNL     1     -39.843  50.316 -54.063  1.00  0.00     0.226 A 
HETATM   41  H   UNL     1     -39.435  49.510 -52.153  1.00  0.00     0.169 HD
HETATM   42  O   UNL     1     -39.691  49.344 -54.786  1.00  0.00    -0.273 OA
HETATM   43  C   UNL     1     -40.180  53.322 -50.562  1.00  0.00     0.039 A 
ENDBRANCH  32  33
ENDBRANCH  27  32
ENDBRANCH   2  25
TORSDOF 8
ENDMDL
MODEL 8
REMARK VINA RESULT:      -7.9      3.960      5.720
REMARK  8 active torsions:
REMARK  status: ('A' for Active; 'I' for Inactive)
REMARK    1  A    between atoms: C_2  and  N_3 
REMARK    2  A    between atoms: N_7  and  C_8 
REMARK    3  A    between atoms: C_8  and  C_9 
REMARK    4  A    between atoms: C_10  and  C_11 
REMARK    5  A    between atoms: C_16  and  C_17 
REMARK       I    between atoms: C_17  and  N_18 
REMARK    6  A    between atoms: N_18  and  C_19 
REMARK    7  A    between atoms: C_21  and  O_22 
REMARK    8  A    between atoms: O_22  and  C_23 
ROOT
HETATM    1  C   UNL     1     -43.821  57.400 -58.095  1.00  0.00     0.256 C 
HETATM    2  N   UNL     1     -45.200  57.277 -58.124  1.00  0.00    -0.323 N 
HETATM    3  O   UNL     1     -43.142  58.025 -58.903  1.00  0.00    -0.267 OA
HETATM    4  H   UNL     1     -45.650  56.738 -57.405  1.00  0.00     0.169 HD
ENDROOT
BRANCH   1   5
HETATM    5  C   UNL     1     -43.101  56.710 -56.969  1.00  0.00     0.033 A 
HETATM    6  C   UNL     1     -42.693  57.493 -55.874  1.00  0.00     0.034 A 
HETATM    7  C   UNL     1     -42.008  56.943 -54.768  1.00  0.00     0.056 A 
HETATM    8  C   UNL     1     -41.715  55.561 -54.772  1.00  0.00    -0.015 A 
HETATM    9  C   UNL     1     -42.134  54.779 -55.864  1.00  0.00     0.011 A 
HETATM   10  C   UNL     1     -42.810  55.344 -56.950  1.00  0.00     0.017 A 
BRANCH   7  11
HETATM   11  C   UNL     1     -41.575  57.881 -53.654  1.00  0.00     0.418 C 
HETATM   12  F   UNL     1     -41.901  57.442 -52.405  1.00  0.00    -0.166 F 
HETATM   13  F   UNL     1     -40.230  58.089 -53.645  1.00  0.00    -0.166 F 
HETATM   14  F   UNL     1     -42.144  59.114 -53.754  1.00  0.00    -0.166 F 
ENDBRANCH   7  11
BRANCH   8  15
HETATM   15  C   UNL     1     -40.934  54.886 -53.661  1.00  0.00     0.312 C 
BRANCH  15  16
HETATM   16  N   UNL     1     -41.528  53.606 -53.243  1.00  0.00     0.096 N 
HETATM   17  C   UNL     1     -42.554  53.733 -52.190  1.00  0.00     0.300 C 
HETATM   18  C   UNL     1     -42.009  54.114 -50.799  1.00  0.00     0.265 C 
HETATM   19  N   UNL     1     -40.921  53.140 -50.362  1.00  0.00    -0.068 N 
HETATM   20  H   UNL     1     -41.373  52.222 -50.251  1.00  0.00     0.280 HD
HETATM   21  C   UNL     1     -39.853  52.960 -51.442  1.00  0.00     0.265 C 
HETATM   22  C   UNL     1     -40.493  52.646 -52.810  1.00  0.00     0.300 C 
BRANCH  19  23
HETATM   23  C   UNL     1     -40.280  53.506 -49.041  1.00  0.00     0.230 C 
HETATM   24  C   UNL     1     -40.872  54.781 -48.471  1.00  0.00     0.034 C 
ENDBRANCH  19  23
ENDBRANCH  15  16
ENDBRANCH   8  15
ENDBRANCH   1   5
BRANCH   2  25
HETATM   25  C   UNL     1     -46.099  57.882 -59.030  1.00  0.00     0.037 A 
HETATM   26  C   UNL     1     -46.625  59.165 -58.880  1.00  0.00     0.067 A 
HETATM   27  C   UNL     1     -47.581  59.646 -59.788  1.00  0.00     0.084 A 
HETATM   28  C   UNL     1     -47.971  58.881 -60.897  1.00  0.00    -0.028 A 
HETATM   29  C   UNL     1     -48.944  59.417 -61.908  1.00  0.00     0.051 C 
HETATM   30  C   UNL     1     -47.409  57.613 -61.066  1.00  0.00     0.012 A 
HETATM   31  C   UNL     1     -46.494  57.116 -60.135  1.00  0.00     0.030 A 
BRANCH  27  32
HETATM   32  O   UNL     1     -48.116  60.911 -59.669  1.00  0.00    -0.310 OA
BRANCH  32  33
HETATM   33  C   UNL     1     -48.933  61.192 -58.593  1.00  0.00     0.076 A 
HETATM   34  C   UNL     1     -50.185  60.565 -58.610  1.00  0.00     0.047 A 
HETATM   35  C   UNL     1     -51.041  60.795 -57.549  1.00  0.00    -0.020 A 
HETATM   36  C   UNL     1     -50.662  61.623 -56.496  1.00  0.00     0.041 A 
HETATM   37  C   UNL     1     -52.425  60.274 -57.300  1.00  0.00     0.144 A 
HETATM   38  N   UNL     1     -51.691  61.705 -55.573  1.00  0.00    -0.326 N 
HETATM   39  C   UNL     1     -49.428  62.234 -56.440  1.00  0.00     0.033 A 
HETATM   40  C   UNL     1     -52.783  60.942 -55.968  1.00  0.00     0.226 A 
HETATM   41  H   UNL     1     -51.681  62.244 -54.720  1.00  0.00     0.169 HD
HETATM   42  O   UNL     1     -53.832  60.830 -55.355  1.00  0.00    -0.273 OA
HETATM   43  C   UNL     1     -48.547  61.997 -57.500  1.00  0.00     0.039 A 
ENDBRANCH  32  33
ENDBRANCH  27  32
ENDBRANCH   2  25
TORSDOF 8
ENDMDL
MODEL 9
REMARK VINA RESULT:      -7.9      2.507      3.374
REMARK  8 active torsions:
REMARK  status: ('A' for Active; 'I' for Inactive)
REMARK    1  A    between atoms: C_2  and  N_3 
REMARK    2  A    between atoms: N_7  and  C_8 
REMARK    3  A    between atoms: C_8  and  C_9 
REMARK    4  A    between atoms: C_10  and  C_11 
REMARK    5  A    between atoms: C_16  and  C_17 
REMARK       I    between atoms: C_17  and  N_18 
REMARK    6  A    between atoms: N_18  and  C_19 
REMARK    7  A    between atoms: C_21  and  O_22 
REMARK    8  A    between atoms: O_22  and  C_23 
ROOT
HETATM    1  C   UNL     1     -43.316  60.586 -50.734  1.00  0.00     0.256 C 
HETATM    2  N   UNL     1     -44.349  60.423 -49.827  1.00  0.00    -0.323 N 
HETATM    3  O   UNL     1     -42.833  61.657 -51.083  1.00  0.00    -0.267 OA
HETATM    4  H   UNL     1     -44.663  59.492 -49.616  1.00  0.00     0.169 HD
ENDROOT
BRANCH   1   5
HETATM    5  C   UNL     1     -42.737  59.333 -51.336  1.00  0.00     0.033 A 
HETATM    6  C   UNL     1     -43.317  58.846 -52.522  1.00  0.00     0.034 A 
HETATM    7  C   UNL     1     -42.850  57.679 -53.164  1.00  0.00     0.056 A 
HETATM    8  C   UNL     1     -41.772  56.974 -52.586  1.00  0.00    -0.015 A 
HETATM    9  C   UNL     1     -41.187  57.469 -51.406  1.00  0.00     0.011 A 
HETATM   10  C   UNL     1     -41.666  58.627 -50.785  1.00  0.00     0.017 A 
BRANCH   7  11
HETATM   11  C   UNL     1     -43.571  57.213 -54.418  1.00  0.00     0.418 C 
HETATM   12  F   UNL     1     -42.736  56.858 -55.435  1.00  0.00    -0.166 F 
HETATM   13  F   UNL     1     -44.369  56.136 -54.187  1.00  0.00    -0.166 F 
HETATM   14  F   UNL     1     -44.381  58.173 -54.946  1.00  0.00    -0.166 F 
ENDBRANCH   7  11
BRANCH   8  15
HETATM   15  C   UNL     1     -41.235  55.679 -53.165  1.00  0.00     0.312 C 
BRANCH  15  16
HETATM   16  N   UNL     1     -42.044  54.508 -52.790  1.00  0.00     0.096 N 
HETATM   17  C   UNL     1     -41.493  53.731 -51.664  1.00  0.00     0.300 C 
HETATM   18  C   UNL     1     -40.212  52.937 -51.992  1.00  0.00     0.265 C 
HETATM   19  N   UNL     1     -40.433  52.033 -53.199  1.00  0.00    -0.068 N 
HETATM   20  H   UNL     1     -41.139  51.337 -52.923  1.00  0.00     0.280 HD
HETATM   21  C   UNL     1     -41.033  52.800 -54.380  1.00  0.00     0.265 C 
HETATM   22  C   UNL     1     -42.269  53.614 -53.944  1.00  0.00     0.300 C 
BRANCH  19  23
HETATM   23  C   UNL     1     -39.188  51.289 -53.630  1.00  0.00     0.230 C 
HETATM   24  C   UNL     1     -39.527  49.925 -54.201  1.00  0.00     0.034 C 
ENDBRANCH  19  23
ENDBRANCH  15  16
ENDBRANCH   8  15
ENDBRANCH   1   5
BRANCH   2  25
HETATM   25  C   UNL     1     -45.005  61.428 -49.081  1.00  0.00     0.037 A 
HETATM   26  C   UNL     1     -45.804  62.428 -49.636  1.00  0.00     0.067 A 
HETATM   27  C   UNL     1     -46.343  63.434 -48.820  1.00  0.00     0.084 A 
HETATM   28  C   UNL     1     -46.151  63.416 -47.431  1.00  0.00    -0.028 A 
HETATM   29  C   UNL     1     -46.780  64.452 -46.545  1.00  0.00     0.051 C 
HETATM   30  C   UNL     1     -45.385  62.387 -46.875  1.00  0.00     0.012 A 
HETATM   31  C   UNL     1     -44.809  61.413 -47.694  1.00  0.00     0.030 A 
BRANCH  27  32
HETATM   32  O   UNL     1     -47.139  64.433 -49.338  1.00  0.00    -0.310 OA
BRANCH  32  33
HETATM   33  C   UNL     1     -48.373  64.101 -49.857  1.00  0.00     0.076 A 
HETATM   34  C   UNL     1     -48.445  64.052 -51.255  1.00  0.00     0.047 A 
HETATM   35  C   UNL     1     -49.653  63.708 -51.831  1.00  0.00    -0.020 A 
HETATM   36  C   UNL     1     -50.761  63.416 -51.041  1.00  0.00     0.041 A 
HETATM   37  C   UNL     1     -50.025  63.581 -53.278  1.00  0.00     0.144 A 
HETATM   38  N   UNL     1     -51.845  63.119 -51.850  1.00  0.00    -0.326 N 
HETATM   39  C   UNL     1     -50.715  63.432 -49.664  1.00  0.00     0.033 A 
HETATM   40  C   UNL     1     -51.507  63.196 -53.194  1.00  0.00     0.226 A 
HETATM   41  H   UNL     1     -52.773  62.878 -51.533  1.00  0.00     0.169 HD
HETATM   42  O   UNL     1     -52.261  62.992 -54.132  1.00  0.00    -0.273 OA
HETATM   43  C   UNL     1     -49.494  63.764 -49.067  1.00  0.00     0.039 A 
ENDBRANCH  32  33
ENDBRANCH  27  32
ENDBRANCH   2  25
TORSDOF 8
ENDMDL
MODEL 10
REMARK VINA RESULT:      -7.8      2.562      3.734
REMARK  8 active torsions:
REMARK  status: ('A' for Active; 'I' for Inactive)
REMARK    1  A    between atoms: C_2  and  N_3 
REMARK    2  A    between atoms: N_7  and  C_8 
REMARK    3  A    between atoms: C_8  and  C_9 
REMARK    4  A    between atoms: C_10  and  C_11 
REMARK    5  A    between atoms: C_16  and  C_17 
REMARK       I    between atoms: C_17  and  N_18 
REMARK    6  A    between atoms: N_18  and  C_19 
REMARK    7  A    between atoms: C_21  and  O_22 
REMARK    8  A    between atoms: O_22  and  C_23 
ROOT
HETATM    1  C   UNL     1     -44.937  60.622 -50.712  1.00  0.00     0.256 C 
HETATM    2  N   UNL     1     -45.110  60.477 -49.347  1.00  0.00    -0.323 N 
HETATM    3  O   UNL     1     -45.372  61.543 -51.394  1.00  0.00    -0.267 OA
HETATM    4  H   UNL     1     -44.704  59.678 -48.892  1.00  0.00     0.169 HD
ENDROOT
BRANCH   1   5
HETATM    5  C   UNL     1     -44.136  59.557 -51.413  1.00  0.00     0.033 A 
HETATM    6  C   UNL     1     -42.817  59.334 -50.977  1.00  0.00     0.034 A 
HETATM    7  C   UNL     1     -41.983  58.361 -51.569  1.00  0.00     0.056 A 
HETATM    8  C   UNL     1     -42.491  57.596 -52.642  1.00  0.00    -0.015 A 
HETATM    9  C   UNL     1     -43.814  57.814 -53.068  1.00  0.00     0.011 A 
HETATM   10  C   UNL     1     -44.623  58.783 -52.469  1.00  0.00     0.017 A 
BRANCH   7  11
HETATM   11  C   UNL     1     -40.561  58.226 -51.053  1.00  0.00     0.418 C 
HETATM   12  F   UNL     1     -39.606  58.483 -51.991  1.00  0.00    -0.166 F 
HETATM   13  F   UNL     1     -40.305  59.064 -50.011  1.00  0.00    -0.166 F 
HETATM   14  F   UNL     1     -40.282  56.972 -50.600  1.00  0.00    -0.166 F 
ENDBRANCH   7  11
BRANCH   8  15
HETATM   15  C   UNL     1     -41.657  56.568 -53.382  1.00  0.00     0.312 C 
BRANCH  15  16
HETATM   16  N   UNL     1     -42.476  55.548 -54.058  1.00  0.00     0.096 N 
HETATM   17  C   UNL     1     -42.913  54.447 -53.178  1.00  0.00     0.300 C 
HETATM   18  C   UNL     1     -41.791  53.483 -52.743  1.00  0.00     0.265 C 
HETATM   19  N   UNL     1     -41.056  52.929 -53.958  1.00  0.00    -0.068 N 
HETATM   20  H   UNL     1     -41.736  52.361 -54.481  1.00  0.00     0.280 HD
HETATM   21  C   UNL     1     -40.613  54.042 -54.910  1.00  0.00     0.265 C 
HETATM   22  C   UNL     1     -41.783  54.993 -55.237  1.00  0.00     0.300 C 
BRANCH  19  23
HETATM   23  C   UNL     1     -39.883  52.042 -53.601  1.00  0.00     0.230 C 
HETATM   24  C   UNL     1     -39.965  50.703 -54.308  1.00  0.00     0.034 C 
ENDBRANCH  19  23
ENDBRANCH  15  16
ENDBRANCH   8  15
ENDBRANCH   1   5
BRANCH   2  25
HETATM   25  C   UNL     1     -45.756  61.369 -48.461  1.00  0.00     0.037 A 
HETATM   26  C   UNL     1     -46.789  62.232 -48.825  1.00  0.00     0.067 A 
HETATM   27  C   UNL     1     -47.307  63.144 -47.893  1.00  0.00     0.084 A 
HETATM   28  C   UNL     1     -46.851  63.158 -46.567  1.00  0.00    -0.028 A 
HETATM   29  C   UNL     1     -47.447  64.087 -45.549  1.00  0.00     0.051 C 
HETATM   30  C   UNL     1     -45.845  62.262 -46.197  1.00  0.00     0.012 A 
HETATM   31  C   UNL     1     -45.295  61.387 -47.138  1.00  0.00     0.030 A 
BRANCH  27  32
HETATM   32  O   UNL     1     -48.331  64.007 -48.222  1.00  0.00    -0.310 OA
BRANCH  32  33
HETATM   33  C   UNL     1     -48.946  63.876 -49.450  1.00  0.00     0.076 A 
HETATM   34  C   UNL     1     -50.299  63.519 -49.410  1.00  0.00     0.047 A 
HETATM   35  C   UNL     1     -50.972  63.389 -50.611  1.00  0.00    -0.020 A 
HETATM   36  C   UNL     1     -50.319  63.613 -51.820  1.00  0.00     0.041 A 
HETATM   37  C   UNL     1     -52.400  63.018 -50.876  1.00  0.00     0.144 A 
HETATM   38  N   UNL     1     -51.199  63.406 -52.870  1.00  0.00    -0.326 N 
HETATM   39  C   UNL     1     -48.996  63.990 -51.890  1.00  0.00     0.033 A 
HETATM   40  C   UNL     1     -52.457  63.043 -52.408  1.00  0.00     0.226 A 
HETATM   41  H   UNL     1     -50.982  63.494 -53.851  1.00  0.00     0.169 HD
HETATM   42  O   UNL     1     -53.427  62.793 -53.105  1.00  0.00    -0.273 OA
HETATM   43  C   UNL     1     -48.307  64.139 -50.682  1.00  0.00     0.039 A 
ENDBRANCH  32  33
ENDBRANCH  27  32
ENDBRANCH   2  25
TORSDOF 8
ENDMDL
