MODEL 1
REMARK VINA RESULT:      -7.6      0.000      0.000
REMARK  9 active torsions:
REMARK  status: ('A' for Active; 'I' for Inactive)
REMARK    1  A    between atoms: C_2  and  N_3 
REMARK    2  A    between atoms: N_3  and  C_30 
REMARK    3  A    between atoms: N_3  and  C_5 
REMARK    4  A    between atoms: C_5  and  C_6 
REMARK    5  A    between atoms: C_5  and  C_14 
REMARK    6  A    between atoms: C_8  and  O_9 
REMARK    7  A    between atoms: C_14  and  N_15 
REMARK       I    between atoms: N_15  and  C_16 
REMARK    8  A    between atoms: C_16  and  C_17 
REMARK    9  A    between atoms: C_18  and  N_19 
ROOT
HETATM    1  C   UNL     1     -41.846  56.390 -55.542  1.00  0.00     0.161 C 
ENDROOT
BRANCH   1   2
HETATM    2  C   UNL     1     -42.968  57.138 -54.744  1.00  0.00     0.238 C 
BRANCH   2   3
HETATM    3  N   UNL     1     -43.702  58.203 -55.617  1.00  0.00    -0.062 N 
HETATM    4  H   UNL     1     -43.489  59.103 -55.174  1.00  0.00     0.280 HD
BRANCH   3   5
HETATM    5  C   UNL     1     -45.223  58.080 -55.535  1.00  0.00     0.231 C 
HETATM    6  C   UNL     1     -45.917  58.352 -56.857  1.00  0.00     0.034 C 
ENDBRANCH   3   5
BRANCH   3   7
HETATM    7  C   UNL     1     -43.167  58.282 -57.039  1.00  0.00     0.231 C 
HETATM    8  C   UNL     1     -42.368  59.552 -57.281  1.00  0.00     0.034 C 
ENDBRANCH   3   7
ENDBRANCH   2   3
BRANCH   2   9
HETATM    9  C   UNL     1     -42.375  57.771 -53.488  1.00  0.00    -0.023 A 
HETATM   10  C   UNL     1     -41.057  58.263 -53.458  1.00  0.00     0.046 A 
HETATM   11  C   UNL     1     -40.544  58.842 -52.295  1.00  0.00     0.068 A 
HETATM   12  C   UNL     1     -41.356  58.994 -51.175  1.00  0.00     0.037 A 
HETATM   13  C   UNL     1     -42.662  58.511 -51.189  1.00  0.00     0.003 A 
HETATM   14  C   UNL     1     -43.164  57.889 -52.332  1.00  0.00     0.009 A 
BRANCH  11  15
HETATM   15  O   UNL     1     -39.276  59.342 -52.197  1.00  0.00    -0.356 OA
HETATM   16  C   UNL     1     -38.762  59.369 -50.867  1.00  0.00     0.210 C 
ENDBRANCH  11  15
ENDBRANCH   2   9
ENDBRANCH   1   2
BRANCH   1  17
HETATM   17  N   UNL     1     -41.204  55.334 -54.786  1.00  0.00    -0.354 N 
HETATM   18  C   UNL     1     -41.803  54.092 -54.709  1.00  0.00     0.253 C 
HETATM   19  O   UNL     1     -42.817  53.812 -55.336  1.00  0.00    -0.268 OA
HETATM   20  H   UNL     1     -40.466  55.544 -54.120  1.00  0.00     0.162 HD
BRANCH  18  21
HETATM   21  C   UNL     1     -41.107  53.129 -53.831  1.00  0.00     0.053 A 
HETATM   22  C   UNL     1     -40.947  53.369 -52.450  1.00  0.00     0.026 A 
HETATM   23  C   UNL     1     -40.236  52.395 -51.728  1.00  0.00     0.025 A 
HETATM   24  C   UNL     1     -39.682  51.267 -52.349  1.00  0.00     0.008 A 
HETATM   25  C   UNL     1     -39.831  51.062 -53.722  1.00  0.00    -0.061 A 
HETATM   26  C   UNL     1     -39.237  49.862 -54.397  1.00  0.00     0.048 C 
HETATM   27  C   UNL     1     -40.555  52.000 -54.461  1.00  0.00     0.025 A 
BRANCH  22  28
HETATM   28  N   UNL     1     -41.490  54.514 -51.834  1.00  0.00    -0.283 NA
HETATM   29  C   UNL     1     -40.695  55.204 -50.797  1.00  0.00     0.096 C 
HETATM   30  C   UNL     1     -41.480  55.019 -49.506  1.00  0.00     0.016 C 
HETATM   31  C   UNL     1     -42.913  55.056 -49.998  1.00  0.00     0.016 C 
HETATM   32  C   UNL     1     -42.843  54.243 -51.288  1.00  0.00     0.096 C 
ENDBRANCH  22  28
ENDBRANCH  18  21
ENDBRANCH   1  17
TORSDOF 9
ENDMDL
MODEL 2
REMARK VINA RESULT:      -7.4      1.977      4.563
REMARK  9 active torsions:
REMARK  status: ('A' for Active; 'I' for Inactive)
REMARK    1  A    between atoms: C_2  and  N_3 
REMARK    2  A    between atoms: N_3  and  C_30 
REMARK    3  A    between atoms: N_3  and  C_5 
REMARK    4  A    between atoms: C_5  and  C_6 
REMARK    5  A    between atoms: C_5  and  C_14 
REMARK    6  A    between atoms: C_8  and  O_9 
REMARK    7  A    between atoms: C_14  and  N_15 
REMARK       I    between atoms: N_15  and  C_16 
REMARK    8  A    between atoms: C_16  and  C_17 
REMARK    9  A    between atoms: C_18  and  N_19 
ROOT
HETATM    1  C   UNL     1     -42.939  56.188 -55.668  1.00  0.00     0.161 C 
ENDROOT
BRANCH   1   2
HETATM    2  C   UNL     1     -42.239  57.517 -56.111  1.00  0.00     0.238 C 
BRANCH   2   3
HETATM    3  N   UNL     1     -42.795  58.759 -55.350  1.00  0.00    -0.062 N 
HETATM    4  H   UNL     1     -43.015  59.444 -56.081  1.00  0.00     0.280 HD
BRANCH   3   5
HETATM    5  C   UNL     1     -41.733  59.441 -54.486  1.00  0.00     0.231 C 
HETATM    6  C   UNL     1     -40.978  58.474 -53.592  1.00  0.00     0.034 C 
ENDBRANCH   3   5
BRANCH   3   7
HETATM    7  C   UNL     1     -44.096  58.478 -54.615  1.00  0.00     0.231 C 
HETATM    8  C   UNL     1     -45.242  59.334 -55.128  1.00  0.00     0.034 C 
ENDBRANCH   3   7
ENDBRANCH   2   3
BRANCH   2   9
HETATM    9  C   UNL     1     -42.371  57.693 -57.622  1.00  0.00    -0.023 A 
HETATM   10  C   UNL     1     -42.922  56.687 -58.438  1.00  0.00     0.046 A 
HETATM   11  C   UNL     1     -43.036  56.879 -59.817  1.00  0.00     0.068 A 
HETATM   12  C   UNL     1     -42.663  58.094 -60.385  1.00  0.00     0.037 A 
HETATM   13  C   UNL     1     -42.116  59.098 -59.590  1.00  0.00     0.003 A 
HETATM   14  C   UNL     1     -41.955  58.894 -58.220  1.00  0.00     0.009 A 
BRANCH  11  15
HETATM   15  O   UNL     1     -43.562  55.949 -60.668  1.00  0.00    -0.356 OA
HETATM   16  C   UNL     1     -44.302  54.917 -60.019  1.00  0.00     0.210 C 
ENDBRANCH  11  15
ENDBRANCH   2   9
ENDBRANCH   1   2
BRANCH   1  17
HETATM   17  N   UNL     1     -42.077  55.301 -54.915  1.00  0.00    -0.354 N 
HETATM   18  C   UNL     1     -42.391  53.958 -54.828  1.00  0.00     0.253 C 
HETATM   19  O   UNL     1     -43.325  53.461 -55.445  1.00  0.00    -0.268 OA
HETATM   20  H   UNL     1     -41.397  55.669 -54.256  1.00  0.00     0.162 HD
BRANCH  18  21
HETATM   21  C   UNL     1     -41.495  53.174 -53.953  1.00  0.00     0.053 A 
HETATM   22  C   UNL     1     -41.194  53.590 -52.640  1.00  0.00     0.026 A 
HETATM   23  C   UNL     1     -40.301  52.778 -51.919  1.00  0.00     0.025 A 
HETATM   24  C   UNL     1     -39.711  51.639 -52.486  1.00  0.00     0.008 A 
HETATM   25  C   UNL     1     -40.004  51.260 -53.796  1.00  0.00    -0.061 A 
HETATM   26  C   UNL     1     -39.374  50.047 -54.414  1.00  0.00     0.048 C 
HETATM   27  C   UNL     1     -40.908  52.033 -54.528  1.00  0.00     0.025 A 
BRANCH  22  28
HETATM   28  N   UNL     1     -41.775  54.747 -52.083  1.00  0.00    -0.283 NA
HETATM   29  C   UNL     1     -40.974  55.561 -51.145  1.00  0.00     0.096 C 
HETATM   30  C   UNL     1     -41.679  55.431 -49.802  1.00  0.00     0.016 C 
HETATM   31  C   UNL     1     -43.135  55.346 -50.217  1.00  0.00     0.016 C 
HETATM   32  C   UNL     1     -43.080  54.440 -51.443  1.00  0.00     0.096 C 
ENDBRANCH  22  28
ENDBRANCH  18  21
ENDBRANCH   1  17
TORSDOF 9
ENDMDL
MODEL 3
REMARK VINA RESULT:      -7.2      2.039      4.549
REMARK  9 active torsions:
REMARK  status: ('A' for Active; 'I' for Inactive)
REMARK    1  A    between atoms: C_2  and  N_3 
REMARK    2  A    between atoms: N_3  and  C_30 
REMARK    3  A    between atoms: N_3  and  C_5 
REMARK    4  A    between atoms: C_5  and  C_6 
REMARK    5  A    between atoms: C_5  and  C_14 
REMARK    6  A    between atoms: C_8  and  O_9 
REMARK    7  A    between atoms: C_14  and  N_15 
REMARK       I    between atoms: N_15  and  C_16 
REMARK    8  A    between atoms: C_16  and  C_17 
REMARK    9  A    between atoms: C_18  and  N_19 
ROOT
HETATM    1  C   UNL     1     -41.154  56.727 -50.379  1.00  0.00     0.161 C 
ENDROOT
BRANCH   1   2
HETATM    2  C   UNL     1     -41.293  58.053 -51.202  1.00  0.00     0.238 C 
BRANCH   2   3
HETATM    3  N   UNL     1     -41.418  59.307 -50.283  1.00  0.00    -0.062 N 
HETATM    4  H   UNL     1     -42.000  59.003 -49.494  1.00  0.00     0.280 HD
BRANCH   3   5
HETATM    5  C   UNL     1     -42.213  60.437 -50.938  1.00  0.00     0.231 C 
HETATM    6  C   UNL     1     -43.303  60.998 -50.043  1.00  0.00     0.034 C 
ENDBRANCH   3   5
BRANCH   3   7
HETATM    7  C   UNL     1     -40.089  59.752 -49.694  1.00  0.00     0.231 C 
HETATM    8  C   UNL     1     -38.937  59.556 -50.666  1.00  0.00     0.034 C 
ENDBRANCH   3   7
ENDBRANCH   2   3
BRANCH   2   9
HETATM    9  C   UNL     1     -42.481  57.948 -52.155  1.00  0.00    -0.023 A 
HETATM   10  C   UNL     1     -42.341  58.165 -53.539  1.00  0.00     0.046 A 
HETATM   11  C   UNL     1     -43.445  58.056 -54.387  1.00  0.00     0.068 A 
HETATM   12  C   UNL     1     -44.681  57.669 -53.877  1.00  0.00     0.037 A 
HETATM   13  C   UNL     1     -44.835  57.452 -52.510  1.00  0.00     0.003 A 
HETATM   14  C   UNL     1     -43.747  57.606 -51.652  1.00  0.00     0.009 A 
BRANCH  11  15
HETATM   15  O   UNL     1     -43.381  58.251 -55.738  1.00  0.00    -0.356 OA
HETATM   16  C   UNL     1     -42.266  59.031 -56.163  1.00  0.00     0.210 C 
ENDBRANCH  11  15
ENDBRANCH   2   9
ENDBRANCH   1   2
BRANCH   1  17
HETATM   17  N   UNL     1     -40.799  55.578 -51.186  1.00  0.00    -0.354 N 
HETATM   18  C   UNL     1     -41.246  54.324 -50.819  1.00  0.00     0.253 C 
HETATM   19  O   UNL     1     -42.019  54.150 -49.884  1.00  0.00    -0.268 OA
HETATM   20  H   UNL     1     -40.041  55.629 -51.861  1.00  0.00     0.162 HD
BRANCH  18  21
HETATM   21  C   UNL     1     -40.737  53.221 -51.660  1.00  0.00     0.053 A 
HETATM   22  C   UNL     1     -40.861  53.245 -53.065  1.00  0.00     0.026 A 
HETATM   23  C   UNL     1     -40.370  52.122 -53.752  1.00  0.00     0.025 A 
HETATM   24  C   UNL     1     -39.823  51.020 -53.078  1.00  0.00     0.008 A 
HETATM   25  C   UNL     1     -39.733  51.007 -51.686  1.00  0.00    -0.061 A 
HETATM   26  C   UNL     1     -39.155  49.831 -50.955  1.00  0.00     0.048 C 
HETATM   27  C   UNL     1     -40.189  52.121 -50.978  1.00  0.00     0.025 A 
BRANCH  22  28
HETATM   28  N   UNL     1     -41.430  54.347 -53.735  1.00  0.00    -0.283 NA
HETATM   29  C   UNL     1     -42.899  54.406 -53.879  1.00  0.00     0.096 C 
HETATM   30  C   UNL     1     -43.158  54.280 -55.374  1.00  0.00     0.016 C 
HETATM   31  C   UNL     1     -41.965  55.005 -55.964  1.00  0.00     0.016 C 
HETATM   32  C   UNL     1     -40.817  54.538 -55.074  1.00  0.00     0.096 C 
ENDBRANCH  22  28
ENDBRANCH  18  21
ENDBRANCH   1  17
TORSDOF 9
ENDMDL
MODEL 4
REMARK VINA RESULT:      -7.1      2.182      4.257
REMARK  9 active torsions:
REMARK  status: ('A' for Active; 'I' for Inactive)
REMARK    1  A    between atoms: C_2  and  N_3 
REMARK    2  A    between atoms: N_3  and  C_30 
REMARK    3  A    between atoms: N_3  and  C_5 
REMARK    4  A    between atoms: C_5  and  C_6 
REMARK    5  A    between atoms: C_5  and  C_14 
REMARK    6  A    between atoms: C_8  and  O_9 
REMARK    7  A    between atoms: C_14  and  N_15 
REMARK       I    between atoms: N_15  and  C_16 
REMARK    8  A    between atoms: C_16  and  C_17 
REMARK    9  A    between atoms: C_18  and  N_19 
ROOT
HETATM    1  C   UNL     1     -42.418  56.023 -56.796  1.00  0.00     0.161 C 
ENDROOT
BRANCH   1   2
HETATM    2  C   UNL     1     -42.118  57.554 -56.654  1.00  0.00     0.238 C 
BRANCH   2   3
HETATM    3  N   UNL     1     -43.103  58.259 -55.672  1.00  0.00    -0.062 N 
HETATM    4  H   UNL     1     -43.287  59.177 -56.093  1.00  0.00     0.280 HD
BRANCH   3   5
HETATM    5  C   UNL     1     -42.460  58.573 -54.322  1.00  0.00     0.231 C 
HETATM    6  C   UNL     1     -42.027  60.022 -54.188  1.00  0.00     0.034 C 
ENDBRANCH   3   5
BRANCH   3   7
HETATM    7  C   UNL     1     -44.447  57.555 -55.564  1.00  0.00     0.231 C 
HETATM    8  C   UNL     1     -45.572  58.370 -56.181  1.00  0.00     0.034 C 
ENDBRANCH   3   7
ENDBRANCH   2   3
BRANCH   2   9
HETATM    9  C   UNL     1     -42.143  58.215 -58.029  1.00  0.00    -0.023 A 
HETATM   10  C   UNL     1     -41.987  59.606 -58.185  1.00  0.00     0.046 A 
HETATM   11  C   UNL     1     -42.008  60.182 -59.457  1.00  0.00     0.068 A 
HETATM   12  C   UNL     1     -42.121  59.375 -60.586  1.00  0.00     0.037 A 
HETATM   13  C   UNL     1     -42.277  57.999 -60.448  1.00  0.00     0.003 A 
HETATM   14  C   UNL     1     -42.304  57.423 -59.178  1.00  0.00     0.009 A 
BRANCH  11  15
HETATM   15  O   UNL     1     -41.860  61.521 -59.681  1.00  0.00    -0.356 OA
HETATM   16  C   UNL     1     -40.663  62.075 -59.139  1.00  0.00     0.210 C 
ENDBRANCH  11  15
ENDBRANCH   2   9
ENDBRANCH   1   2
BRANCH   1  17
HETATM   17  N   UNL     1     -41.691  55.199 -55.852  1.00  0.00    -0.354 N 
HETATM   18  C   UNL     1     -42.333  54.146 -55.231  1.00  0.00     0.253 C 
HETATM   19  O   UNL     1     -43.477  53.813 -55.519  1.00  0.00    -0.268 OA
HETATM   20  H   UNL     1     -40.812  55.516 -55.452  1.00  0.00     0.162 HD
BRANCH  18  21
HETATM   21  C   UNL     1     -41.520  53.442 -54.217  1.00  0.00     0.053 A 
HETATM   22  C   UNL     1     -41.307  53.986 -52.934  1.00  0.00     0.026 A 
HETATM   23  C   UNL     1     -40.488  53.240 -52.070  1.00  0.00     0.025 A 
HETATM   24  C   UNL     1     -39.882  52.041 -52.473  1.00  0.00     0.008 A 
HETATM   25  C   UNL     1     -40.087  51.533 -53.757  1.00  0.00    -0.061 A 
HETATM   26  C   UNL     1     -39.439  50.255 -54.200  1.00  0.00     0.048 C 
HETATM   27  C   UNL     1     -40.918  52.240 -54.628  1.00  0.00     0.025 A 
BRANCH  22  28
HETATM   28  N   UNL     1     -41.903  55.201 -52.541  1.00  0.00    -0.283 NA
HETATM   29  C   UNL     1     -41.123  56.132 -51.698  1.00  0.00     0.096 C 
HETATM   30  C   UNL     1     -41.858  56.172 -50.365  1.00  0.00     0.016 C 
HETATM   31  C   UNL     1     -43.304  56.027 -50.796  1.00  0.00     0.016 C 
HETATM   32  C   UNL     1     -43.220  54.973 -51.896  1.00  0.00     0.096 C 
ENDBRANCH  22  28
ENDBRANCH  18  21
ENDBRANCH   1  17
TORSDOF 9
ENDMDL
MODEL 5
REMARK VINA RESULT:      -7.0      1.554      2.384
REMARK  9 active torsions:
REMARK  status: ('A' for Active; 'I' for Inactive)
REMARK    1  A    between atoms: C_2  and  N_3 
REMARK    2  A    between atoms: N_3  and  C_30 
REMARK    3  A    between atoms: N_3  and  C_5 
REMARK    4  A    between atoms: C_5  and  C_6 
REMARK    5  A    between atoms: C_5  and  C_14 
REMARK    6  A    between atoms: C_8  and  O_9 
REMARK    7  A    between atoms: C_14  and  N_15 
REMARK       I    between atoms: N_15  and  C_16 
REMARK    8  A    between atoms: C_16  and  C_17 
REMARK    9  A    between atoms: C_18  and  N_19 
ROOT
HETATM    1  C   UNL     1     -42.336  55.006 -55.929  1.00  0.00     0.161 C 
ENDROOT
BRANCH   1   2
HETATM    2  C   UNL     1     -43.431  56.052 -55.528  1.00  0.00     0.238 C 
BRANCH   2   3
HETATM    3  N   UNL     1     -43.938  56.873 -56.753  1.00  0.00    -0.062 N 
HETATM    4  H   UNL     1     -44.780  56.382 -57.073  1.00  0.00     0.280 HD
BRANCH   3   5
HETATM    5  C   UNL     1     -42.977  56.811 -57.940  1.00  0.00     0.231 C 
HETATM    6  C   UNL     1     -42.204  58.100 -58.152  1.00  0.00     0.034 C 
ENDBRANCH   3   5
BRANCH   3   7
HETATM    7  C   UNL     1     -44.373  58.284 -56.388  1.00  0.00     0.231 C 
HETATM    8  C   UNL     1     -45.886  58.436 -56.388  1.00  0.00     0.034 C 
ENDBRANCH   3   7
ENDBRANCH   2   3
BRANCH   2   9
HETATM    9  C   UNL     1     -42.892  56.970 -54.435  1.00  0.00    -0.023 A 
HETATM   10  C   UNL     1     -43.660  57.301 -53.302  1.00  0.00     0.046 A 
HETATM   11  C   UNL     1     -43.138  58.140 -52.314  1.00  0.00     0.068 A 
HETATM   12  C   UNL     1     -41.829  58.603 -52.413  1.00  0.00     0.037 A 
HETATM   13  C   UNL     1     -41.058  58.285 -53.528  1.00  0.00     0.003 A 
HETATM   14  C   UNL     1     -41.591  57.487 -54.540  1.00  0.00     0.009 A 
BRANCH  11  15
HETATM   15  O   UNL     1     -43.824  58.500 -51.189  1.00  0.00    -0.356 OA
HETATM   16  C   UNL     1     -45.216  58.192 -51.232  1.00  0.00     0.210 C 
ENDBRANCH  11  15
ENDBRANCH   2   9
ENDBRANCH   1   2
BRANCH   1  17
HETATM   17  N   UNL     1     -41.974  54.104 -54.855  1.00  0.00    -0.354 N 
HETATM   18  C   UNL     1     -40.643  53.937 -54.526  1.00  0.00     0.253 C 
HETATM   19  O   UNL     1     -39.751  54.597 -55.045  1.00  0.00    -0.268 OA
HETATM   20  H   UNL     1     -42.635  53.416 -54.507  1.00  0.00     0.162 HD
BRANCH  18  21
HETATM   21  C   UNL     1     -40.391  52.919 -53.485  1.00  0.00     0.053 A 
HETATM   22  C   UNL     1     -40.556  53.208 -52.115  1.00  0.00     0.026 A 
HETATM   23  C   UNL     1     -40.252  52.169 -51.219  1.00  0.00     0.025 A 
HETATM   24  C   UNL     1     -39.775  50.926 -51.658  1.00  0.00     0.008 A 
HETATM   25  C   UNL     1     -39.596  50.670 -53.018  1.00  0.00    -0.061 A 
HETATM   26  C   UNL     1     -39.080  49.346 -53.499  1.00  0.00     0.048 C 
HETATM   27  C   UNL     1     -39.915  51.676 -53.934  1.00  0.00     0.025 A 
BRANCH  22  28
HETATM   28  N   UNL     1     -41.018  54.466 -51.677  1.00  0.00    -0.283 NA
HETATM   29  C   UNL     1     -40.294  55.145 -50.582  1.00  0.00     0.096 C 
HETATM   30  C   UNL     1     -41.276  55.182 -49.419  1.00  0.00     0.016 C 
HETATM   31  C   UNL     1     -42.603  55.354 -50.132  1.00  0.00     0.016 C 
HETATM   32  C   UNL     1     -42.461  54.421 -51.331  1.00  0.00     0.096 C 
ENDBRANCH  22  28
ENDBRANCH  18  21
ENDBRANCH   1  17
TORSDOF 9
ENDMDL
MODEL 6
REMARK VINA RESULT:      -7.0      1.602      6.254
REMARK  9 active torsions:
REMARK  status: ('A' for Active; 'I' for Inactive)
REMARK    1  A    between atoms: C_2  and  N_3 
REMARK    2  A    between atoms: N_3  and  C_30 
REMARK    3  A    between atoms: N_3  and  C_5 
REMARK    4  A    between atoms: C_5  and  C_6 
REMARK    5  A    between atoms: C_5  and  C_14 
REMARK    6  A    between atoms: C_8  and  O_9 
REMARK    7  A    between atoms: C_14  and  N_15 
REMARK       I    between atoms: N_15  and  C_16 
REMARK    8  A    between atoms: C_16  and  C_17 
REMARK    9  A    between atoms: C_18  and  N_19 
ROOT
HETATM    1  C   UNL     1     -41.154  53.849 -54.962  1.00  0.00     0.161 C 
ENDROOT
BRANCH   1   2
HETATM    2  C   UNL     1     -40.541  53.801 -53.521  1.00  0.00     0.238 C 
BRANCH   2   3
HETATM    3  N   UNL     1     -40.272  52.341 -53.043  1.00  0.00    -0.062 N 
HETATM    4  H   UNL     1     -41.195  51.965 -52.801  1.00  0.00     0.280 HD
BRANCH   3   5
HETATM    5  C   UNL     1     -39.478  52.290 -51.738  1.00  0.00     0.231 C 
HETATM    6  C   UNL     1     -40.281  51.746 -50.570  1.00  0.00     0.034 C 
ENDBRANCH   3   5
BRANCH   3   7
HETATM    7  C   UNL     1     -39.713  51.447 -54.138  1.00  0.00     0.231 C 
HETATM    8  C   UNL     1     -40.026  49.979 -53.895  1.00  0.00     0.034 C 
ENDBRANCH   3   7
ENDBRANCH   2   3
BRANCH   2   9
HETATM    9  C   UNL     1     -41.454  54.540 -52.546  1.00  0.00    -0.023 A 
HETATM   10  C   UNL     1     -41.042  55.720 -51.897  1.00  0.00     0.046 A 
HETATM   11  C   UNL     1     -41.902  56.378 -51.014  1.00  0.00     0.068 A 
HETATM   12  C   UNL     1     -43.197  55.905 -50.819  1.00  0.00     0.037 A 
HETATM   13  C   UNL     1     -43.617  54.739 -51.453  1.00  0.00     0.003 A 
HETATM   14  C   UNL     1     -42.747  54.052 -52.299  1.00  0.00     0.009 A 
BRANCH  11  15
HETATM   15  O   UNL     1     -41.570  57.526 -50.353  1.00  0.00    -0.356 OA
HETATM   16  C   UNL     1     -40.444  58.210 -50.899  1.00  0.00     0.210 C 
ENDBRANCH  11  15
ENDBRANCH   2   9
ENDBRANCH   1   2
BRANCH   1  17
HETATM   17  N   UNL     1     -41.361  55.193 -55.461  1.00  0.00    -0.354 N 
HETATM   18  C   UNL     1     -42.445  55.458 -56.274  1.00  0.00     0.253 C 
HETATM   19  O   UNL     1     -43.304  54.619 -56.517  1.00  0.00    -0.268 OA
HETATM   20  H   UNL     1     -40.612  55.879 -55.435  1.00  0.00     0.162 HD
BRANCH  18  21
HETATM   21  C   UNL     1     -42.494  56.838 -56.800  1.00  0.00     0.053 A 
HETATM   22  C   UNL     1     -42.787  57.937 -55.967  1.00  0.00     0.026 A 
HETATM   23  C   UNL     1     -42.839  59.195 -56.591  1.00  0.00     0.025 A 
HETATM   24  C   UNL     1     -42.649  59.347 -57.972  1.00  0.00     0.008 A 
HETATM   25  C   UNL     1     -42.384  58.242 -58.782  1.00  0.00    -0.061 A 
HETATM   26  C   UNL     1     -42.185  58.393 -60.261  1.00  0.00     0.048 C 
HETATM   27  C   UNL     1     -42.301  56.982 -58.185  1.00  0.00     0.025 A 
BRANCH  22  28
HETATM   28  N   UNL     1     -42.996  57.776 -54.582  1.00  0.00    -0.283 NA
HETATM   29  C   UNL     1     -44.333  57.356 -54.112  1.00  0.00     0.096 C 
HETATM   30  C   UNL     1     -44.870  58.544 -53.326  1.00  0.00     0.016 C 
HETATM   31  C   UNL     1     -43.609  59.103 -52.697  1.00  0.00     0.016 C 
HETATM   32  C   UNL     1     -42.593  58.991 -53.831  1.00  0.00     0.096 C 
ENDBRANCH  22  28
ENDBRANCH  18  21
ENDBRANCH   1  17
TORSDOF 9
ENDMDL
MODEL 7
REMARK VINA RESULT:      -6.9      2.201      7.635
REMARK  9 active torsions:
REMARK  status: ('A' for Active; 'I' for Inactive)
REMARK    1  A    between atoms: C_2  and  N_3 
REMARK    2  A    between atoms: N_3  and  C_30 
REMARK    3  A    between atoms: N_3  and  C_5 
REMARK    4  A    between atoms: C_5  and  C_6 
REMARK    5  A    between atoms: C_5  and  C_14 
REMARK    6  A    between atoms: C_8  and  O_9 
REMARK    7  A    between atoms: C_14  and  N_15 
REMARK       I    between atoms: N_15  and  C_16 
REMARK    8  A    between atoms: C_16  and  C_17 
REMARK    9  A    between atoms: C_18  and  N_19 
ROOT
HETATM    1  C   UNL     1     -41.248  56.329 -54.107  1.00  0.00     0.161 C 
ENDROOT
BRANCH   1   2
HETATM    2  C   UNL     1     -41.869  55.335 -53.068  1.00  0.00     0.238 C 
BRANCH   2   3
HETATM    3  N   UNL     1     -41.913  55.936 -51.630  1.00  0.00    -0.062 N 
HETATM    4  H   UNL     1     -41.444  55.243 -51.037  1.00  0.00     0.280 HD
BRANCH   3   5
HETATM    5  C   UNL     1     -43.335  56.023 -51.074  1.00  0.00     0.231 C 
HETATM    6  C   UNL     1     -43.848  54.699 -50.536  1.00  0.00     0.034 C 
ENDBRANCH   3   5
BRANCH   3   7
HETATM    7  C   UNL     1     -41.121  57.227 -51.497  1.00  0.00     0.231 C 
HETATM    8  C   UNL     1     -42.009  58.410 -51.146  1.00  0.00     0.034 C 
ENDBRANCH   3   7
ENDBRANCH   2   3
BRANCH   2   9
HETATM    9  C   UNL     1     -41.101  54.016 -53.091  1.00  0.00    -0.023 A 
HETATM   10  C   UNL     1     -40.777  53.328 -51.906  1.00  0.00     0.046 A 
HETATM   11  C   UNL     1     -40.078  52.120 -51.958  1.00  0.00     0.068 A 
HETATM   12  C   UNL     1     -39.752  51.555 -53.188  1.00  0.00     0.037 A 
HETATM   13  C   UNL     1     -40.066  52.224 -54.368  1.00  0.00     0.003 A 
HETATM   14  C   UNL     1     -40.721  53.454 -54.321  1.00  0.00     0.009 A 
BRANCH  11  15
HETATM   15  O   UNL     1     -39.733  51.399 -50.850  1.00  0.00    -0.356 OA
HETATM   16  C   UNL     1     -39.508  50.014 -51.103  1.00  0.00     0.210 C 
ENDBRANCH  11  15
ENDBRANCH   2   9
ENDBRANCH   1   2
BRANCH   1  17
HETATM   17  N   UNL     1     -42.232  56.987 -54.941  1.00  0.00    -0.354 N 
HETATM   18  C   UNL     1     -42.209  58.362 -55.065  1.00  0.00     0.253 C 
HETATM   19  O   UNL     1     -41.324  59.051 -54.572  1.00  0.00    -0.268 OA
HETATM   20  H   UNL     1     -43.075  56.501 -55.235  1.00  0.00     0.162 HD
BRANCH  18  21
HETATM   21  C   UNL     1     -43.320  58.925 -55.860  1.00  0.00     0.053 A 
HETATM   22  C   UNL     1     -43.498  58.596 -57.219  1.00  0.00     0.026 A 
HETATM   23  C   UNL     1     -44.570  59.223 -57.877  1.00  0.00     0.025 A 
HETATM   24  C   UNL     1     -45.395  60.154 -57.229  1.00  0.00     0.008 A 
HETATM   25  C   UNL     1     -45.187  60.483 -55.890  1.00  0.00    -0.061 A 
HETATM   26  C   UNL     1     -46.059  61.482 -55.190  1.00  0.00     0.048 C 
HETATM   27  C   UNL     1     -44.144  59.857 -55.204  1.00  0.00     0.025 A 
BRANCH  22  28
HETATM   28  N   UNL     1     -42.653  57.674 -57.870  1.00  0.00    -0.283 NA
HETATM   29  C   UNL     1     -41.813  58.151 -58.988  1.00  0.00     0.096 C 
HETATM   30  C   UNL     1     -42.348  57.436 -60.221  1.00  0.00     0.016 C 
HETATM   31  C   UNL     1     -42.764  56.093 -59.653  1.00  0.00     0.016 C 
HETATM   32  C   UNL     1     -43.408  56.479 -58.324  1.00  0.00     0.096 C 
ENDBRANCH  22  28
ENDBRANCH  18  21
ENDBRANCH   1  17
TORSDOF 9
ENDMDL
MODEL 8
REMARK VINA RESULT:      -6.9      2.335      4.106
REMARK  9 active torsions:
REMARK  status: ('A' for Active; 'I' for Inactive)
REMARK    1  A    between atoms: C_2  and  N_3 
REMARK    2  A    between atoms: N_3  and  C_30 
REMARK    3  A    between atoms: N_3  and  C_5 
REMARK    4  A    between atoms: C_5  and  C_6 
REMARK    5  A    between atoms: C_5  and  C_14 
REMARK    6  A    between atoms: C_8  and  O_9 
REMARK    7  A    between atoms: C_14  and  N_15 
REMARK       I    between atoms: N_15  and  C_16 
REMARK    8  A    between atoms: C_16  and  C_17 
REMARK    9  A    between atoms: C_18  and  N_19 
ROOT
HETATM    1  C   UNL     1     -42.825  56.087 -58.005  1.00  0.00     0.161 C 
ENDROOT
BRANCH   1   2
HETATM    2  C   UNL     1     -44.016  57.098 -57.896  1.00  0.00     0.238 C 
BRANCH   2   3
HETATM    3  N   UNL     1     -44.786  57.250 -59.244  1.00  0.00    -0.062 N 
HETATM    4  H   UNL     1     -44.706  58.243 -59.486  1.00  0.00     0.280 HD
BRANCH   3   5
HETATM    5  C   UNL     1     -46.288  57.008 -59.091  1.00  0.00     0.231 C 
HETATM    6  C   UNL     1     -47.039  58.219 -58.568  1.00  0.00     0.034 C 
ENDBRANCH   3   5
BRANCH   3   7
HETATM    7  C   UNL     1     -44.152  56.472 -60.386  1.00  0.00     0.231 C 
HETATM    8  C   UNL     1     -45.076  55.395 -60.930  1.00  0.00     0.034 C 
ENDBRANCH   3   7
ENDBRANCH   2   3
BRANCH   2   9
HETATM    9  C   UNL     1     -43.505  58.448 -57.399  1.00  0.00    -0.023 A 
HETATM   10  C   UNL     1     -42.303  59.005 -57.876  1.00  0.00     0.046 A 
HETATM   11  C   UNL     1     -41.864  60.246 -57.407  1.00  0.00     0.068 A 
HETATM   12  C   UNL     1     -42.646  60.969 -56.511  1.00  0.00     0.037 A 
HETATM   13  C   UNL     1     -43.836  60.430 -56.030  1.00  0.00     0.003 A 
HETATM   14  C   UNL     1     -44.256  59.171 -56.458  1.00  0.00     0.009 A 
BRANCH  11  15
HETATM   15  O   UNL     1     -40.711  60.846 -57.827  1.00  0.00    -0.356 OA
HETATM   16  C   UNL     1     -40.889  62.176 -58.310  1.00  0.00     0.210 C 
ENDBRANCH  11  15
ENDBRANCH   2   9
ENDBRANCH   1   2
BRANCH   1  17
HETATM   17  N   UNL     1     -42.197  55.791 -56.734  1.00  0.00    -0.354 N 
HETATM   18  C   UNL     1     -42.666  54.738 -55.972  1.00  0.00     0.253 C 
HETATM   19  O   UNL     1     -43.537  53.975 -56.372  1.00  0.00    -0.268 OA
HETATM   20  H   UNL     1     -41.596  56.472 -56.278  1.00  0.00     0.162 HD
BRANCH  18  21
HETATM   21  C   UNL     1     -42.013  54.597 -54.654  1.00  0.00     0.053 A 
HETATM   22  C   UNL     1     -41.996  55.653 -53.720  1.00  0.00     0.026 A 
HETATM   23  C   UNL     1     -41.314  55.408 -52.516  1.00  0.00     0.025 A 
HETATM   24  C   UNL     1     -40.653  54.196 -52.271  1.00  0.00     0.008 A 
HETATM   25  C   UNL     1     -40.662  53.173 -53.219  1.00  0.00    -0.061 A 
HETATM   26  C   UNL     1     -39.953  51.875 -52.969  1.00  0.00     0.048 C 
HETATM   27  C   UNL     1     -41.354  53.378 -54.415  1.00  0.00     0.025 A 
BRANCH  22  28
HETATM   28  N   UNL     1     -42.646  56.876 -53.981  1.00  0.00    -0.283 NA
HETATM   29  C   UNL     1     -41.891  58.133 -53.797  1.00  0.00     0.096 C 
HETATM   30  C   UNL     1     -42.574  58.842 -52.636  1.00  0.00     0.016 C 
HETATM   31  C   UNL     1     -44.025  58.451 -52.836  1.00  0.00     0.016 C 
HETATM   32  C   UNL     1     -43.922  56.980 -53.229  1.00  0.00     0.096 C 
ENDBRANCH  22  28
ENDBRANCH  18  21
ENDBRANCH   1  17
TORSDOF 9
ENDMDL
MODEL 9
REMARK VINA RESULT:      -6.8      2.210      5.201
REMARK  9 active torsions:
REMARK  status: ('A' for Active; 'I' for Inactive)
REMARK    1  A    between atoms: C_2  and  N_3 
REMARK    2  A    between atoms: N_3  and  C_30 
REMARK    3  A    between atoms: N_3  and  C_5 
REMARK    4  A    between atoms: C_5  and  C_6 
REMARK    5  A    between atoms: C_5  and  C_14 
REMARK    6  A    between atoms: C_8  and  O_9 
REMARK    7  A    between atoms: C_14  and  N_15 
REMARK       I    between atoms: N_15  and  C_16 
REMARK    8  A    between atoms: C_16  and  C_17 
REMARK    9  A    between atoms: C_18  and  N_19 
ROOT
HETATM    1  C   UNL     1     -43.284  56.134 -55.470  1.00  0.00     0.161 C 
ENDROOT
BRANCH   1   2
HETATM    2  C   UNL     1     -42.884  57.520 -56.080  1.00  0.00     0.238 C 
BRANCH   2   3
HETATM    3  N   UNL     1     -43.910  58.639 -55.724  1.00  0.00    -0.062 N 
HETATM    4  H   UNL     1     -43.863  59.302 -56.506  1.00  0.00     0.280 HD
BRANCH   3   5
HETATM    5  C   UNL     1     -43.487  59.453 -54.500  1.00  0.00     0.231 C 
HETATM    6  C   UNL     1     -42.279  60.335 -54.757  1.00  0.00     0.034 C 
ENDBRANCH   3   5
BRANCH   3   7
HETATM    7  C   UNL     1     -45.345  58.139 -55.664  1.00  0.00     0.231 C 
HETATM    8  C   UNL     1     -46.125  58.485 -56.921  1.00  0.00     0.034 C 
ENDBRANCH   3   7
ENDBRANCH   2   3
BRANCH   2   9
HETATM    9  C   UNL     1     -42.715  57.389 -57.592  1.00  0.00    -0.023 A 
HETATM   10  C   UNL     1     -43.257  56.304 -58.306  1.00  0.00     0.046 A 
HETATM   11  C   UNL     1     -43.090  56.215 -59.690  1.00  0.00     0.068 A 
HETATM   12  C   UNL     1     -42.441  57.234 -60.382  1.00  0.00     0.037 A 
HETATM   13  C   UNL     1     -41.899  58.313 -59.688  1.00  0.00     0.003 A 
HETATM   14  C   UNL     1     -42.020  58.383 -58.301  1.00  0.00     0.009 A 
BRANCH  11  15
HETATM   15  O   UNL     1     -43.590  55.193 -60.447  1.00  0.00    -0.356 OA
HETATM   16  C   UNL     1     -44.893  54.763 -60.058  1.00  0.00     0.210 C 
ENDBRANCH  11  15
ENDBRANCH   2   9
ENDBRANCH   1   2
BRANCH   1  17
HETATM   17  N   UNL     1     -42.845  55.954 -54.101  1.00  0.00    -0.354 N 
HETATM   18  C   UNL     1     -41.577  55.466 -53.852  1.00  0.00     0.253 C 
HETATM   19  O   UNL     1     -40.763  55.266 -54.746  1.00  0.00    -0.268 OA
HETATM   20  H   UNL     1     -43.513  55.941 -53.336  1.00  0.00     0.162 HD
BRANCH  18  21
HETATM   21  C   UNL     1     -41.279  55.232 -52.424  1.00  0.00     0.053 A 
HETATM   22  C   UNL     1     -41.229  56.293 -51.496  1.00  0.00     0.026 A 
HETATM   23  C   UNL     1     -40.902  55.947 -50.173  1.00  0.00     0.025 A 
HETATM   24  C   UNL     1     -40.604  54.628 -49.803  1.00  0.00     0.008 A 
HETATM   25  C   UNL     1     -40.636  53.597 -50.743  1.00  0.00    -0.061 A 
HETATM   26  C   UNL     1     -40.313  52.184 -50.358  1.00  0.00     0.048 C 
HETATM   27  C   UNL     1     -40.983  53.907 -52.059  1.00  0.00     0.025 A 
BRANCH  22  28
HETATM   28  N   UNL     1     -41.510  57.620 -51.878  1.00  0.00    -0.283 NA
HETATM   29  C   UNL     1     -40.427  58.622 -51.808  1.00  0.00     0.096 C 
HETATM   30  C   UNL     1     -40.861  59.602 -50.727  1.00  0.00     0.016 C 
HETATM   31  C   UNL     1     -42.366  59.621 -50.903  1.00  0.00     0.016 C 
HETATM   32  C   UNL     1     -42.691  58.151 -51.153  1.00  0.00     0.096 C 
ENDBRANCH  22  28
ENDBRANCH  18  21
ENDBRANCH   1  17
TORSDOF 9
ENDMDL
MODEL 10
REMARK VINA RESULT:      -6.8      2.710      5.341
REMARK  9 active torsions:
REMARK  status: ('A' for Active; 'I' for Inactive)
REMARK    1  A    between atoms: C_2  and  N_3 
REMARK    2  A    between atoms: N_3  and  C_30 
REMARK    3  A    between atoms: N_3  and  C_5 
REMARK    4  A    between atoms: C_5  and  C_6 
REMARK    5  A    between atoms: C_5  and  C_14 
REMARK    6  A    between atoms: C_8  and  O_9 
REMARK    7  A    between atoms: C_14  and  N_15 
REMARK       I    between atoms: N_15  and  C_16 
REMARK    8  A    between atoms: C_16  and  C_17 
REMARK    9  A    between atoms: C_18  and  N_19 
ROOT
HETATM    1  C   UNL     1     -43.184  56.279 -56.513  1.00  0.00     0.161 C 
ENDROOT
BRANCH   1   2
HETATM    2  C   UNL     1     -42.714  56.391 -58.003  1.00  0.00     0.238 C 
BRANCH   2   3
HETATM    3  N   UNL     1     -42.025  57.757 -58.303  1.00  0.00    -0.062 N 
HETATM    4  H   UNL     1     -41.133  57.723 -57.797  1.00  0.00     0.280 HD
BRANCH   3   5
HETATM    5  C   UNL     1     -42.774  58.939 -57.689  1.00  0.00     0.231 C 
HETATM    6  C   UNL     1     -41.974  59.666 -56.623  1.00  0.00     0.034 C 
ENDBRANCH   3   5
BRANCH   3   7
HETATM    7  C   UNL     1     -41.681  57.944 -59.773  1.00  0.00     0.231 C 
HETATM    8  C   UNL     1     -42.160  59.284 -60.308  1.00  0.00     0.034 C 
ENDBRANCH   3   7
ENDBRANCH   2   3
BRANCH   2   9
HETATM    9  C   UNL     1     -43.897  56.154 -58.938  1.00  0.00    -0.023 A 
HETATM   10  C   UNL     1     -45.000  57.028 -58.972  1.00  0.00     0.046 A 
HETATM   11  C   UNL     1     -46.065  56.788 -59.843  1.00  0.00     0.068 A 
HETATM   12  C   UNL     1     -46.013  55.716 -60.730  1.00  0.00     0.037 A 
HETATM   13  C   UNL     1     -44.929  54.843 -60.707  1.00  0.00     0.003 A 
HETATM   14  C   UNL     1     -43.885  55.050 -59.807  1.00  0.00     0.009 A 
BRANCH  11  15
HETATM   15  O   UNL     1     -47.165  57.594 -59.931  1.00  0.00    -0.356 OA
HETATM   16  C   UNL     1     -46.908  58.965 -59.634  1.00  0.00     0.210 C 
ENDBRANCH  11  15
ENDBRANCH   2   9
ENDBRANCH   1   2
BRANCH   1  17
HETATM   17  N   UNL     1     -42.320  55.457 -55.692  1.00  0.00    -0.354 N 
HETATM   18  C   UNL     1     -42.875  54.638 -54.728  1.00  0.00     0.253 C 
HETATM   19  O   UNL     1     -44.085  54.502 -54.600  1.00  0.00    -0.268 OA
HETATM   20  H   UNL     1     -41.323  55.645 -55.634  1.00  0.00     0.162 HD
BRANCH  18  21
HETATM   21  C   UNL     1     -41.890  53.925 -53.888  1.00  0.00     0.053 A 
HETATM   22  C   UNL     1     -41.430  54.465 -52.669  1.00  0.00     0.026 A 
HETATM   23  C   UNL     1     -40.467  53.709 -51.978  1.00  0.00     0.025 A 
HETATM   24  C   UNL     1     -39.962  52.504 -52.489  1.00  0.00     0.008 A 
HETATM   25  C   UNL     1     -40.414  52.001 -53.710  1.00  0.00    -0.061 A 
HETATM   26  C   UNL     1     -39.876  50.717 -54.268  1.00  0.00     0.048 C 
HETATM   27  C   UNL     1     -41.390  52.718 -54.406  1.00  0.00     0.025 A 
BRANCH  22  28
HETATM   28  N   UNL     1     -41.927  55.685 -52.170  1.00  0.00    -0.283 NA
HETATM   29  C   UNL     1     -41.294  56.943 -52.618  1.00  0.00     0.096 C 
HETATM   30  C   UNL     1     -40.642  57.527 -51.373  1.00  0.00     0.016 C 
HETATM   31  C   UNL     1     -41.610  57.110 -50.283  1.00  0.00     0.016 C 
HETATM   32  C   UNL     1     -41.971  55.683 -50.686  1.00  0.00     0.096 C 
ENDBRANCH  22  28
ENDBRANCH  18  21
ENDBRANCH   1  17
TORSDOF 9
ENDMDL
