MODEL 1
REMARK VINA RESULT:      -9.4      0.000      0.000
REMARK  3 active torsions:
REMARK  status: ('A' for Active; 'I' for Inactive)
REMARK    1  A    between atoms: C_2  and  C_3 
REMARK    2  A    between atoms: C_18  and  C_19 
REMARK    3  A    between atoms: C_22  and  O_23 
ROOT
HETATM    1  C   UNL     1     -40.587  57.041 -50.909  1.00  0.00     0.060 C 
HETATM    2  C   UNL     1     -41.334  57.461 -52.213  1.00  0.00     0.210 C 
HETATM    3  N   UNL     1     -40.491  58.563 -52.713  1.00  0.00     0.110 N 
HETATM    4  C   UNL     1     -41.147  59.558 -53.555  1.00  0.00     0.374 C 
HETATM    5  C   UNL     1     -41.928  59.089 -54.765  1.00  0.00     0.250 C 
HETATM    6  O   UNL     1     -42.440  59.940 -55.509  1.00  0.00    -0.271 OA
HETATM    7  N   UNL     1     -42.054  57.803 -55.162  1.00  0.00    -0.325 N 
HETATM    8  C   UNL     1     -41.695  56.571 -54.607  1.00  0.00     0.044 A 
HETATM    9  C   UNL     1     -41.316  56.341 -53.275  1.00  0.00     0.012 A 
HETATM   10  C   UNL     1     -41.768  55.493 -55.508  1.00  0.00     0.031 A 
HETATM   11  C   UNL     1     -41.403  54.201 -55.133  1.00  0.00     0.014 A 
HETATM   12  C   UNL     1     -40.963  53.937 -53.837  1.00  0.00    -0.025 A 
HETATM   13  C   UNL     1     -40.951  55.011 -52.926  1.00  0.00     0.024 A 
HETATM   14  H   UNL     1     -39.696  58.166 -53.213  1.00  0.00     0.318 HD
HETATM   15  H   UNL     1     -42.503  57.774 -56.071  1.00  0.00     0.169 HD
ENDROOT
BRANCH  12  16
HETATM   16  C   UNL     1     -40.508  52.588 -53.447  1.00  0.00    -0.026 A 
HETATM   17  C   UNL     1     -40.536  51.525 -54.372  1.00  0.00     0.015 A 
HETATM   18  C   UNL     1     -40.099  50.243 -54.023  1.00  0.00     0.037 A 
HETATM   19  C   UNL     1     -39.625  50.012 -52.739  1.00  0.00     0.065 A 
HETATM   20  C   UNL     1     -39.583  51.038 -51.805  1.00  0.00     0.037 A 
HETATM   21  C   UNL     1     -40.024  52.317 -52.157  1.00  0.00     0.015 A 
BRANCH  19  22
HETATM   22  O   UNL     1     -39.185  48.781 -52.354  1.00  0.00    -0.361 OA
HETATM   23  H   UNL     1     -39.900  48.138 -52.493  1.00  0.00     0.217 HD
ENDBRANCH  19  22
ENDBRANCH  12  16
BRANCH   2  24
HETATM   24  C   UNL     1     -42.753  57.887 -51.751  1.00  0.00    -0.016 A 
HETATM   25  C   UNL     1     -43.854  57.012 -51.784  1.00  0.00     0.010 A 
HETATM   26  C   UNL     1     -45.125  57.424 -51.366  1.00  0.00     0.001 A 
HETATM   27  C   UNL     1     -45.322  58.717 -50.890  1.00  0.00     0.000 A 
HETATM   28  C   UNL     1     -44.247  59.596 -50.820  1.00  0.00     0.001 A 
HETATM   29  C   UNL     1     -42.979  59.182 -51.234  1.00  0.00     0.010 A 
ENDBRANCH   2  24
TORSDOF 3
ENDMDL
MODEL 2
REMARK VINA RESULT:      -8.6      1.940      3.703
REMARK  3 active torsions:
REMARK  status: ('A' for Active; 'I' for Inactive)
REMARK    1  A    between atoms: C_2  and  C_3 
REMARK    2  A    between atoms: C_18  and  C_19 
REMARK    3  A    between atoms: C_22  and  O_23 
ROOT
HETATM    1  C   UNL     1     -44.488  56.017 -54.445  1.00  0.00     0.060 C 
HETATM    2  C   UNL     1     -43.862  57.021 -53.429  1.00  0.00     0.210 C 
HETATM    3  N   UNL     1     -45.001  57.312 -52.537  1.00  0.00     0.110 N 
HETATM    4  C   UNL     1     -44.981  58.597 -51.847  1.00  0.00     0.374 C 
HETATM    5  C   UNL     1     -43.755  58.973 -51.042  1.00  0.00     0.250 C 
HETATM    6  O   UNL     1     -43.760  60.043 -50.414  1.00  0.00    -0.271 OA
HETATM    7  N   UNL     1     -42.660  58.197 -50.878  1.00  0.00    -0.325 N 
HETATM    8  C   UNL     1     -42.231  56.986 -51.431  1.00  0.00     0.044 A 
HETATM    9  C   UNL     1     -42.757  56.365 -52.574  1.00  0.00     0.012 A 
HETATM   10  C   UNL     1     -41.149  56.398 -50.752  1.00  0.00     0.031 A 
HETATM   11  C   UNL     1     -40.623  55.167 -51.142  1.00  0.00     0.014 A 
HETATM   12  C   UNL     1     -41.153  54.485 -52.235  1.00  0.00    -0.025 A 
HETATM   13  C   UNL     1     -42.197  55.110 -52.945  1.00  0.00     0.024 A 
HETATM   14  H   UNL     1     -45.081  56.560 -51.853  1.00  0.00     0.318 HD
HETATM   15  H   UNL     1     -42.050  58.617 -50.186  1.00  0.00     0.169 HD
ENDROOT
BRANCH  12  16
HETATM   16  C   UNL     1     -40.652  53.150 -52.617  1.00  0.00    -0.026 A 
HETATM   17  C   UNL     1     -39.988  52.336 -51.678  1.00  0.00     0.015 A 
HETATM   18  C   UNL     1     -39.515  51.065 -52.019  1.00  0.00     0.037 A 
HETATM   19  C   UNL     1     -39.707  50.591 -53.309  1.00  0.00     0.065 A 
HETATM   20  C   UNL     1     -40.359  51.367 -54.258  1.00  0.00     0.037 A 
HETATM   21  C   UNL     1     -40.826  52.640 -53.914  1.00  0.00     0.015 A 
BRANCH  19  22
HETATM   22  O   UNL     1     -39.268  49.358 -53.687  1.00  0.00    -0.361 OA
HETATM   23  H   UNL     1     -39.162  48.809 -52.892  1.00  0.00     0.217 HD
ENDBRANCH  19  22
ENDBRANCH  12  16
BRANCH   2  24
HETATM   24  C   UNL     1     -43.384  58.224 -54.284  1.00  0.00    -0.016 A 
HETATM   25  C   UNL     1     -42.049  58.667 -54.288  1.00  0.00     0.010 A 
HETATM   26  C   UNL     1     -41.646  59.758 -55.067  1.00  0.00     0.001 A 
HETATM   27  C   UNL     1     -42.565  60.424 -55.872  1.00  0.00     0.000 A 
HETATM   28  C   UNL     1     -43.886  59.992 -55.910  1.00  0.00     0.001 A 
HETATM   29  C   UNL     1     -44.286  58.900 -55.135  1.00  0.00     0.010 A 
ENDBRANCH   2  24
TORSDOF 3
ENDMDL
MODEL 3
REMARK VINA RESULT:      -8.3      3.438      5.686
REMARK  3 active torsions:
REMARK  status: ('A' for Active; 'I' for Inactive)
REMARK    1  A    between atoms: C_2  and  C_3 
REMARK    2  A    between atoms: C_18  and  C_19 
REMARK    3  A    between atoms: C_22  and  O_23 
ROOT
HETATM    1  C   UNL     1     -42.916  55.835 -58.955  1.00  0.00     0.060 C 
HETATM    2  C   UNL     1     -43.630  56.994 -58.194  1.00  0.00     0.210 C 
HETATM    3  N   UNL     1     -45.028  56.847 -58.641  1.00  0.00     0.110 N 
HETATM    4  C   UNL     1     -45.855  58.048 -58.613  1.00  0.00     0.374 C 
HETATM    5  C   UNL     1     -45.943  58.842 -57.326  1.00  0.00     0.250 C 
HETATM    6  O   UNL     1     -46.688  59.834 -57.289  1.00  0.00    -0.271 OA
HETATM    7  N   UNL     1     -45.332  58.517 -56.165  1.00  0.00    -0.325 N 
HETATM    8  C   UNL     1     -44.395  57.548 -55.793  1.00  0.00     0.044 A 
HETATM    9  C   UNL     1     -43.604  56.783 -56.665  1.00  0.00     0.012 A 
HETATM   10  C   UNL     1     -44.252  57.392 -54.403  1.00  0.00     0.031 A 
HETATM   11  C   UNL     1     -43.392  56.440 -53.859  1.00  0.00     0.014 A 
HETATM   12  C   UNL     1     -42.633  55.615 -54.687  1.00  0.00    -0.025 A 
HETATM   13  C   UNL     1     -42.738  55.821 -56.076  1.00  0.00     0.024 A 
HETATM   14  H   UNL     1     -45.472  56.115 -58.088  1.00  0.00     0.318 HD
HETATM   15  H   UNL     1     -45.665  59.128 -55.427  1.00  0.00     0.169 HD
ENDROOT
BRANCH  12  16
HETATM   16  C   UNL     1     -41.771  54.557 -54.125  1.00  0.00    -0.026 A 
HETATM   17  C   UNL     1     -41.770  54.290 -52.742  1.00  0.00     0.015 A 
HETATM   18  C   UNL     1     -40.968  53.284 -52.194  1.00  0.00     0.037 A 
HETATM   19  C   UNL     1     -40.157  52.529 -53.030  1.00  0.00     0.065 A 
HETATM   20  C   UNL     1     -40.136  52.766 -54.397  1.00  0.00     0.037 A 
HETATM   21  C   UNL     1     -40.937  53.775 -54.941  1.00  0.00     0.015 A 
BRANCH  19  22
HETATM   22  O   UNL     1     -39.362  51.536 -52.542  1.00  0.00    -0.361 OA
HETATM   23  H   UNL     1     -38.953  51.069 -53.290  1.00  0.00     0.217 HD
ENDBRANCH  19  22
ENDBRANCH  12  16
BRANCH   2  24
HETATM   24  C   UNL     1     -42.929  58.293 -58.675  1.00  0.00    -0.016 A 
HETATM   25  C   UNL     1     -42.287  59.178 -57.790  1.00  0.00     0.010 A 
HETATM   26  C   UNL     1     -41.666  60.345 -58.251  1.00  0.00     0.001 A 
HETATM   27  C   UNL     1     -41.657  60.647 -59.609  1.00  0.00     0.000 A 
HETATM   28  C   UNL     1     -42.259  59.776 -60.511  1.00  0.00     0.001 A 
HETATM   29  C   UNL     1     -42.876  58.610 -60.050  1.00  0.00     0.010 A 
ENDBRANCH   2  24
TORSDOF 3
ENDMDL
MODEL 4
REMARK VINA RESULT:      -7.9      3.675      5.387
REMARK  3 active torsions:
REMARK  status: ('A' for Active; 'I' for Inactive)
REMARK    1  A    between atoms: C_2  and  C_3 
REMARK    2  A    between atoms: C_18  and  C_19 
REMARK    3  A    between atoms: C_22  and  O_23 
ROOT
HETATM    1  C   UNL     1     -42.082  59.222 -56.195  1.00  0.00     0.060 C 
HETATM    2  C   UNL     1     -42.761  58.086 -57.021  1.00  0.00     0.210 C 
HETATM    3  N   UNL     1     -41.841  57.938 -58.164  1.00  0.00     0.110 N 
HETATM    4  C   UNL     1     -42.410  57.412 -59.400  1.00  0.00     0.374 C 
HETATM    5  C   UNL     1     -43.178  56.107 -59.351  1.00  0.00     0.250 C 
HETATM    6  O   UNL     1     -43.616  55.635 -60.411  1.00  0.00    -0.271 OA
HETATM    7  N   UNL     1     -43.366  55.353 -58.245  1.00  0.00    -0.325 N 
HETATM    8  C   UNL     1     -43.096  55.532 -56.884  1.00  0.00     0.044 A 
HETATM    9  C   UNL     1     -42.775  56.745 -56.256  1.00  0.00     0.012 A 
HETATM   10  C   UNL     1     -43.203  54.356 -56.120  1.00  0.00     0.031 A 
HETATM   11  C   UNL     1     -42.926  54.346 -54.754  1.00  0.00     0.014 A 
HETATM   12  C   UNL     1     -42.543  55.515 -54.099  1.00  0.00    -0.025 A 
HETATM   13  C   UNL     1     -42.498  56.698 -54.861  1.00  0.00     0.024 A 
HETATM   14  H   UNL     1     -41.055  57.356 -57.877  1.00  0.00     0.318 HD
HETATM   15  H   UNL     1     -43.786  54.468 -58.508  1.00  0.00     0.169 HD
ENDROOT
BRANCH  12  16
HETATM   16  C   UNL     1     -42.180  55.503 -52.668  1.00  0.00    -0.026 A 
HETATM   17  C   UNL     1     -42.401  54.356 -51.880  1.00  0.00     0.015 A 
HETATM   18  C   UNL     1     -42.054  54.324 -50.526  1.00  0.00     0.037 A 
HETATM   19  C   UNL     1     -41.476  55.444 -49.945  1.00  0.00     0.065 A 
HETATM   20  C   UNL     1     -41.243  56.590 -50.694  1.00  0.00     0.037 A 
HETATM   21  C   UNL     1     -41.595  56.619 -52.047  1.00  0.00     0.015 A 
BRANCH  19  22
HETATM   22  O   UNL     1     -41.117  55.458 -48.631  1.00  0.00    -0.361 OA
HETATM   23  H   UNL     1     -41.455  56.274 -48.225  1.00  0.00     0.217 HD
ENDBRANCH  19  22
ENDBRANCH  12  16
BRANCH   2  24
HETATM   24  C   UNL     1     -44.168  58.631 -57.387  1.00  0.00    -0.016 A 
HETATM   25  C   UNL     1     -45.355  58.002 -56.970  1.00  0.00     0.010 A 
HETATM   26  C   UNL     1     -46.611  58.514 -57.319  1.00  0.00     0.001 A 
HETATM   27  C   UNL     1     -46.709  59.675 -58.078  1.00  0.00     0.000 A 
HETATM   28  C   UNL     1     -45.554  60.334 -58.481  1.00  0.00     0.001 A 
HETATM   29  C   UNL     1     -44.301  59.825 -58.130  1.00  0.00     0.010 A 
ENDBRANCH   2  24
TORSDOF 3
ENDMDL
MODEL 5
REMARK VINA RESULT:      -7.9      1.654      2.441
REMARK  3 active torsions:
REMARK  status: ('A' for Active; 'I' for Inactive)
REMARK    1  A    between atoms: C_2  and  C_3 
REMARK    2  A    between atoms: C_18  and  C_19 
REMARK    3  A    between atoms: C_22  and  O_23 
ROOT
HETATM    1  C   UNL     1     -40.877  59.098 -51.704  1.00  0.00     0.060 C 
HETATM    2  C   UNL     1     -42.188  59.133 -52.548  1.00  0.00     0.210 C 
HETATM    3  N   UNL     1     -41.844  60.085 -53.621  1.00  0.00     0.110 N 
HETATM    4  C   UNL     1     -42.952  60.800 -54.243  1.00  0.00     0.374 C 
HETATM    5  C   UNL     1     -44.116  60.003 -54.794  1.00  0.00     0.250 C 
HETATM    6  O   UNL     1     -45.033  60.609 -55.370  1.00  0.00    -0.271 OA
HETATM    7  N   UNL     1     -44.213  58.654 -54.785  1.00  0.00    -0.325 N 
HETATM    8  C   UNL     1     -43.458  57.625 -54.212  1.00  0.00     0.044 A 
HETATM    9  C   UNL     1     -42.486  57.771 -53.210  1.00  0.00     0.012 A 
HETATM   10  C   UNL     1     -43.768  56.345 -54.703  1.00  0.00     0.031 A 
HETATM   11  C   UNL     1     -43.082  55.211 -54.272  1.00  0.00     0.014 A 
HETATM   12  C   UNL     1     -42.067  55.315 -53.324  1.00  0.00    -0.025 A 
HETATM   13  C   UNL     1     -41.805  56.593 -52.793  1.00  0.00     0.024 A 
HETATM   14  H   UNL     1     -41.312  59.590 -54.337  1.00  0.00     0.318 HD
HETATM   15  H   UNL     1     -45.015  58.370 -55.337  1.00  0.00     0.169 HD
ENDROOT
BRANCH  12  16
HETATM   16  C   UNL     1     -41.286  54.132 -52.910  1.00  0.00    -0.026 A 
HETATM   17  C   UNL     1     -41.023  53.886 -51.548  1.00  0.00     0.015 A 
HETATM   18  C   UNL     1     -40.294  52.765 -51.138  1.00  0.00     0.037 A 
HETATM   19  C   UNL     1     -39.823  51.872 -52.091  1.00  0.00     0.065 A 
HETATM   20  C   UNL     1     -40.067  52.086 -53.441  1.00  0.00     0.037 A 
HETATM   21  C   UNL     1     -40.793  53.210 -53.847  1.00  0.00     0.015 A 
BRANCH  19  22
HETATM   22  O   UNL     1     -39.113  50.765 -51.738  1.00  0.00    -0.361 OA
HETATM   23  H   UNL     1     -38.642  50.948 -50.908  1.00  0.00     0.217 HD
ENDBRANCH  19  22
ENDBRANCH  12  16
BRANCH   2  24
HETATM   24  C   UNL     1     -43.290  59.627 -51.572  1.00  0.00    -0.016 A 
HETATM   25  C   UNL     1     -43.211  60.864 -50.906  1.00  0.00     0.010 A 
HETATM   26  C   UNL     1     -44.217  61.283 -50.028  1.00  0.00     0.001 A 
HETATM   27  C   UNL     1     -45.333  60.483 -49.805  1.00  0.00     0.000 A 
HETATM   28  C   UNL     1     -45.452  59.267 -50.470  1.00  0.00     0.001 A 
HETATM   29  C   UNL     1     -44.449  58.852 -51.350  1.00  0.00     0.010 A 
ENDBRANCH   2  24
TORSDOF 3
ENDMDL
MODEL 6
REMARK VINA RESULT:      -7.9      3.501      6.017
REMARK  3 active torsions:
REMARK  status: ('A' for Active; 'I' for Inactive)
REMARK    1  A    between atoms: C_2  and  C_3 
REMARK    2  A    between atoms: C_18  and  C_19 
REMARK    3  A    between atoms: C_22  and  O_23 
ROOT
HETATM    1  C   UNL     1     -40.541  55.524 -54.715  1.00  0.00     0.060 C 
HETATM    2  C   UNL     1     -41.363  56.566 -53.898  1.00  0.00     0.210 C 
HETATM    3  N   UNL     1     -40.346  57.587 -53.581  1.00  0.00     0.110 N 
HETATM    4  C   UNL     1     -40.575  58.391 -52.386  1.00  0.00     0.374 C 
HETATM    5  C   UNL     1     -41.901  59.106 -52.231  1.00  0.00     0.250 C 
HETATM    6  O   UNL     1     -42.074  59.832 -51.239  1.00  0.00    -0.271 OA
HETATM    7  N   UNL     1     -42.907  59.089 -53.134  1.00  0.00    -0.325 N 
HETATM    8  C   UNL     1     -43.143  58.385 -54.319  1.00  0.00     0.044 A 
HETATM    9  C   UNL     1     -42.453  57.243 -54.756  1.00  0.00     0.012 A 
HETATM   10  C   UNL     1     -44.203  58.897 -55.089  1.00  0.00     0.031 A 
HETATM   11  C   UNL     1     -44.546  58.342 -56.320  1.00  0.00     0.014 A 
HETATM   12  C   UNL     1     -43.849  57.245 -56.823  1.00  0.00    -0.025 A 
HETATM   13  C   UNL     1     -42.829  56.703 -56.017  1.00  0.00     0.024 A 
HETATM   14  H   UNL     1     -40.238  58.201 -54.388  1.00  0.00     0.318 HD
HETATM   15  H   UNL     1     -43.619  59.757 -52.857  1.00  0.00     0.169 HD
ENDROOT
BRANCH  12  16
HETATM   16  C   UNL     1     -44.157  56.692 -58.156  1.00  0.00    -0.026 A 
HETATM   17  C   UNL     1     -43.576  55.481 -58.583  1.00  0.00     0.015 A 
HETATM   18  C   UNL     1     -43.865  54.937 -59.838  1.00  0.00     0.037 A 
HETATM   19  C   UNL     1     -44.746  55.600 -60.682  1.00  0.00     0.065 A 
HETATM   20  C   UNL     1     -45.336  56.794 -60.290  1.00  0.00     0.037 A 
HETATM   21  C   UNL     1     -45.041  57.337 -59.036  1.00  0.00     0.015 A 
BRANCH  19  22
HETATM   22  O   UNL     1     -45.060  55.106 -61.912  1.00  0.00    -0.361 OA
HETATM   23  H   UNL     1     -44.844  54.159 -61.931  1.00  0.00     0.217 HD
ENDBRANCH  19  22
ENDBRANCH  12  16
BRANCH   2  24
HETATM   24  C   UNL     1     -41.904  55.787 -52.669  1.00  0.00    -0.016 A 
HETATM   25  C   UNL     1     -43.276  55.706 -52.369  1.00  0.00     0.010 A 
HETATM   26  C   UNL     1     -43.736  55.000 -51.251  1.00  0.00     0.001 A 
HETATM   27  C   UNL     1     -42.837  54.345 -50.415  1.00  0.00     0.000 A 
HETATM   28  C   UNL     1     -41.477  54.384 -50.702  1.00  0.00     0.001 A 
HETATM   29  C   UNL     1     -41.019  55.086 -51.820  1.00  0.00     0.010 A 
ENDBRANCH   2  24
TORSDOF 3
ENDMDL
MODEL 7
REMARK VINA RESULT:      -7.7      3.076      6.048
REMARK  3 active torsions:
REMARK  status: ('A' for Active; 'I' for Inactive)
REMARK    1  A    between atoms: C_2  and  C_3 
REMARK    2  A    between atoms: C_18  and  C_19 
REMARK    3  A    between atoms: C_22  and  O_23 
ROOT
HETATM    1  C   UNL     1     -43.990  57.868 -52.392  1.00  0.00     0.060 C 
HETATM    2  C   UNL     1     -42.745  56.956 -52.170  1.00  0.00     0.210 C 
HETATM    3  N   UNL     1     -43.242  55.985 -51.177  1.00  0.00     0.110 N 
HETATM    4  C   UNL     1     -42.245  55.360 -50.316  1.00  0.00     0.374 C 
HETATM    5  C   UNL     1     -41.052  54.679 -50.956  1.00  0.00     0.250 C 
HETATM    6  O   UNL     1     -40.232  54.103 -50.225  1.00  0.00    -0.271 OA
HETATM    7  N   UNL     1     -40.836  54.574 -52.287  1.00  0.00    -0.325 N 
HETATM    8  C   UNL     1     -41.457  55.104 -53.422  1.00  0.00     0.044 A 
HETATM    9  C   UNL     1     -42.371  56.170 -53.444  1.00  0.00     0.012 A 
HETATM   10  C   UNL     1     -41.066  54.494 -54.627  1.00  0.00     0.031 A 
HETATM   11  C   UNL     1     -41.619  54.871 -55.850  1.00  0.00     0.014 A 
HETATM   12  C   UNL     1     -42.576  55.882 -55.913  1.00  0.00    -0.025 A 
HETATM   13  C   UNL     1     -42.915  56.528 -54.709  1.00  0.00     0.024 A 
HETATM   14  H   UNL     1     -43.773  55.263 -51.663  1.00  0.00     0.318 HD
HETATM   15  H   UNL     1     -40.049  53.956 -52.452  1.00  0.00     0.169 HD
ENDROOT
BRANCH  12  16
HETATM   16  C   UNL     1     -43.219  56.243 -57.192  1.00  0.00    -0.026 A 
HETATM   17  C   UNL     1     -43.941  57.446 -57.318  1.00  0.00     0.015 A 
HETATM   18  C   UNL     1     -44.548  57.809 -58.525  1.00  0.00     0.037 A 
HETATM   19  C   UNL     1     -44.435  56.969 -59.624  1.00  0.00     0.065 A 
HETATM   20  C   UNL     1     -43.729  55.777 -59.533  1.00  0.00     0.037 A 
HETATM   21  C   UNL     1     -43.127  55.415 -58.323  1.00  0.00     0.015 A 
BRANCH  19  22
HETATM   22  O   UNL     1     -45.005  57.282 -60.820  1.00  0.00    -0.361 OA
HETATM   23  H   UNL     1     -44.978  56.497 -61.393  1.00  0.00     0.217 HD
ENDBRANCH  19  22
ENDBRANCH  12  16
BRANCH   2  24
HETATM   24  C   UNL     1     -41.631  57.904 -51.649  1.00  0.00    -0.016 A 
HETATM   25  C   UNL     1     -40.456  58.162 -52.378  1.00  0.00     0.010 A 
HETATM   26  C   UNL     1     -39.465  59.018 -51.883  1.00  0.00     0.001 A 
HETATM   27  C   UNL     1     -39.633  59.648 -50.653  1.00  0.00     0.000 A 
HETATM   28  C   UNL     1     -40.796  59.434 -49.923  1.00  0.00     0.001 A 
HETATM   29  C   UNL     1     -41.786  58.582 -50.420  1.00  0.00     0.010 A 
ENDBRANCH   2  24
TORSDOF 3
ENDMDL
MODEL 8
REMARK VINA RESULT:      -7.5      3.438      6.673
REMARK  3 active torsions:
REMARK  status: ('A' for Active; 'I' for Inactive)
REMARK    1  A    between atoms: C_2  and  C_3 
REMARK    2  A    between atoms: C_18  and  C_19 
REMARK    3  A    between atoms: C_22  and  O_23 
ROOT
HETATM    1  C   UNL     1     -44.458  58.074 -52.892  1.00  0.00     0.060 C 
HETATM    2  C   UNL     1     -43.307  57.023 -52.902  1.00  0.00     0.210 C 
HETATM    3  N   UNL     1     -43.847  55.960 -52.034  1.00  0.00     0.110 N 
HETATM    4  C   UNL     1     -42.874  55.113 -51.353  1.00  0.00     0.374 C 
HETATM    5  C   UNL     1     -41.800  54.431 -52.174  1.00  0.00     0.250 C 
HETATM    6  O   UNL     1     -41.006  53.669 -51.600  1.00  0.00    -0.271 OA
HETATM    7  N   UNL     1     -41.672  54.516 -53.517  1.00  0.00    -0.325 N 
HETATM    8  C   UNL     1     -42.297  55.277 -54.511  1.00  0.00     0.044 A 
HETATM    9  C   UNL     1     -43.092  56.415 -54.305  1.00  0.00     0.012 A 
HETATM   10  C   UNL     1     -42.044  54.829 -55.820  1.00  0.00     0.031 A 
HETATM   11  C   UNL     1     -42.622  55.446 -56.928  1.00  0.00     0.014 A 
HETATM   12  C   UNL     1     -43.468  56.542 -56.767  1.00  0.00    -0.025 A 
HETATM   13  C   UNL     1     -43.667  57.020 -55.457  1.00  0.00     0.024 A 
HETATM   14  H   UNL     1     -44.478  55.378 -52.584  1.00  0.00     0.318 HD
HETATM   15  H   UNL     1     -40.967  53.858 -53.831  1.00  0.00     0.169 HD
ENDROOT
BRANCH  12  16
HETATM   16  C   UNL     1     -44.141  57.161 -57.926  1.00  0.00    -0.026 A 
HETATM   17  C   UNL     1     -44.001  56.612 -59.216  1.00  0.00     0.015 A 
HETATM   18  C   UNL     1     -44.640  57.179 -60.323  1.00  0.00     0.037 A 
HETATM   19  C   UNL     1     -45.433  58.305 -60.149  1.00  0.00     0.065 A 
HETATM   20  C   UNL     1     -45.593  58.870 -58.890  1.00  0.00     0.037 A 
HETATM   21  C   UNL     1     -44.949  58.302 -57.786  1.00  0.00     0.015 A 
BRANCH  19  22
HETATM   22  O   UNL     1     -46.079  58.890 -61.196  1.00  0.00    -0.361 OA
HETATM   23  H   UNL     1     -46.372  58.194 -61.808  1.00  0.00     0.217 HD
ENDBRANCH  19  22
ENDBRANCH  12  16
BRANCH   2  24
HETATM   24  C   UNL     1     -42.070  57.764 -52.327  1.00  0.00    -0.016 A 
HETATM   25  C   UNL     1     -40.940  58.070 -53.108  1.00  0.00     0.010 A 
HETATM   26  C   UNL     1     -39.837  58.736 -52.562  1.00  0.00     0.001 A 
HETATM   27  C   UNL     1     -39.843  59.126 -51.226  1.00  0.00     0.000 A 
HETATM   28  C   UNL     1     -40.957  58.863 -50.437  1.00  0.00     0.001 A 
HETATM   29  C   UNL     1     -42.059  58.202 -50.984  1.00  0.00     0.010 A 
ENDBRANCH   2  24
TORSDOF 3
ENDMDL
MODEL 9
REMARK VINA RESULT:      -7.4      3.290      6.924
REMARK  3 active torsions:
REMARK  status: ('A' for Active; 'I' for Inactive)
REMARK    1  A    between atoms: C_2  and  C_3 
REMARK    2  A    between atoms: C_18  and  C_19 
REMARK    3  A    between atoms: C_22  and  O_23 
ROOT
HETATM    1  C   UNL     1     -40.398  58.191 -53.450  1.00  0.00     0.060 C 
HETATM    2  C   UNL     1     -41.784  57.599 -53.050  1.00  0.00     0.210 C 
HETATM    3  N   UNL     1     -42.183  58.469 -51.927  1.00  0.00     0.110 N 
HETATM    4  C   UNL     1     -43.101  57.897 -50.949  1.00  0.00     0.374 C 
HETATM    5  C   UNL     1     -44.396  57.282 -51.438  1.00  0.00     0.250 C 
HETATM    6  O   UNL     1     -45.200  56.843 -50.601  1.00  0.00    -0.271 OA
HETATM    7  N   UNL     1     -44.801  57.236 -52.727  1.00  0.00    -0.325 N 
HETATM    8  C   UNL     1     -44.202  57.555 -53.950  1.00  0.00     0.044 A 
HETATM    9  C   UNL     1     -42.832  57.774 -54.170  1.00  0.00     0.012 A 
HETATM   10  C   UNL     1     -45.101  57.619 -55.029  1.00  0.00     0.031 A 
HETATM   11  C   UNL     1     -44.680  57.967 -56.312  1.00  0.00     0.014 A 
HETATM   12  C   UNL     1     -43.339  58.252 -56.564  1.00  0.00    -0.025 A 
HETATM   13  C   UNL     1     -42.437  58.127 -55.490  1.00  0.00     0.024 A 
HETATM   14  H   UNL     1     -42.580  59.329 -52.305  1.00  0.00     0.318 HD
HETATM   15  H   UNL     1     -45.758  56.903 -52.768  1.00  0.00     0.169 HD
ENDROOT
BRANCH  12  16
HETATM   16  C   UNL     1     -42.892  58.689 -57.902  1.00  0.00    -0.026 A 
HETATM   17  C   UNL     1     -42.084  59.833 -58.051  1.00  0.00     0.015 A 
HETATM   18  C   UNL     1     -41.643  60.255 -59.309  1.00  0.00     0.037 A 
HETATM   19  C   UNL     1     -42.004  59.529 -60.436  1.00  0.00     0.065 A 
HETATM   20  C   UNL     1     -42.798  58.396 -60.323  1.00  0.00     0.037 A 
HETATM   21  C   UNL     1     -43.240  57.980 -59.063  1.00  0.00     0.015 A 
BRANCH  19  22
HETATM   22  O   UNL     1     -41.594  59.899 -61.681  1.00  0.00    -0.361 OA
HETATM   23  H   UNL     1     -40.747  59.463 -61.872  1.00  0.00     0.217 HD
ENDBRANCH  19  22
ENDBRANCH  12  16
BRANCH   2  24
HETATM   24  C   UNL     1     -41.501  56.124 -52.659  1.00  0.00    -0.016 A 
HETATM   25  C   UNL     1     -41.028  55.756 -51.386  1.00  0.00     0.010 A 
HETATM   26  C   UNL     1     -40.777  54.417 -51.062  1.00  0.00     0.001 A 
HETATM   27  C   UNL     1     -41.008  53.413 -51.997  1.00  0.00     0.000 A 
HETATM   28  C   UNL     1     -41.502  53.744 -53.254  1.00  0.00     0.001 A 
HETATM   29  C   UNL     1     -41.756  55.079 -53.575  1.00  0.00     0.010 A 
ENDBRANCH   2  24
TORSDOF 3
ENDMDL
MODEL 10
REMARK VINA RESULT:      -7.4      4.170      6.649
REMARK  3 active torsions:
REMARK  status: ('A' for Active; 'I' for Inactive)
REMARK    1  A    between atoms: C_2  and  C_3 
REMARK    2  A    between atoms: C_18  and  C_19 
REMARK    3  A    between atoms: C_22  and  O_23 
ROOT
HETATM    1  C   UNL     1     -42.168  59.541 -57.584  1.00  0.00     0.060 C 
HETATM    2  C   UNL     1     -42.862  58.168 -57.838  1.00  0.00     0.210 C 
HETATM    3  N   UNL     1     -42.003  57.570 -58.877  1.00  0.00     0.110 N 
HETATM    4  C   UNL     1     -42.626  56.589 -59.758  1.00  0.00     0.374 C 
HETATM    5  C   UNL     1     -43.356  55.415 -59.141  1.00  0.00     0.250 C 
HETATM    6  O   UNL     1     -43.840  54.553 -59.891  1.00  0.00    -0.271 OA
HETATM    7  N   UNL     1     -43.463  55.172 -57.815  1.00  0.00    -0.325 N 
HETATM    8  C   UNL     1     -43.124  55.887 -56.661  1.00  0.00     0.044 A 
HETATM    9  C   UNL     1     -42.799  57.251 -56.597  1.00  0.00     0.012 A 
HETATM   10  C   UNL     1     -43.158  55.121 -55.482  1.00  0.00     0.031 A 
HETATM   11  C   UNL     1     -42.806  55.664 -54.248  1.00  0.00     0.014 A 
HETATM   12  C   UNL     1     -42.418  56.999 -54.146  1.00  0.00    -0.025 A 
HETATM   13  C   UNL     1     -42.445  57.772 -55.322  1.00  0.00     0.024 A 
HETATM   14  H   UNL     1     -41.187  57.155 -58.428  1.00  0.00     0.318 HD
HETATM   15  H   UNL     1     -43.875  54.256 -57.672  1.00  0.00     0.169 HD
ENDROOT
BRANCH  12  16
HETATM   16  C   UNL     1     -41.977  57.567 -52.857  1.00  0.00    -0.026 A 
HETATM   17  C   UNL     1     -42.043  58.955 -52.624  1.00  0.00     0.015 A 
HETATM   18  C   UNL     1     -41.639  59.510 -51.405  1.00  0.00     0.037 A 
HETATM   19  C   UNL     1     -41.166  58.676 -50.401  1.00  0.00     0.065 A 
HETATM   20  C   UNL     1     -41.090  57.304 -50.598  1.00  0.00     0.037 A 
HETATM   21  C   UNL     1     -41.491  56.754 -51.820  1.00  0.00     0.015 A 
BRANCH  19  22
HETATM   22  O   UNL     1     -40.766  59.170 -49.196  1.00  0.00    -0.361 OA
HETATM   23  H   UNL     1     -39.798  59.257 -49.202  1.00  0.00     0.217 HD
ENDBRANCH  19  22
ENDBRANCH  12  16
BRANCH   2  24
HETATM   24  C   UNL     1     -44.300  58.517 -58.307  1.00  0.00    -0.016 A 
HETATM   25  C   UNL     1     -44.561  59.175 -59.522  1.00  0.00     0.010 A 
HETATM   26  C   UNL     1     -45.868  59.482 -59.918  1.00  0.00     0.001 A 
HETATM   27  C   UNL     1     -46.947  59.123 -59.116  1.00  0.00     0.000 A 
HETATM   28  C   UNL     1     -46.723  58.446 -57.923  1.00  0.00     0.001 A 
HETATM   29  C   UNL     1     -45.418  58.138 -57.530  1.00  0.00     0.010 A 
ENDBRANCH   2  24
TORSDOF 3
ENDMDL
