MODEL 1
REMARK VINA RESULT:      -8.0      0.000      0.000
REMARK  10 active torsions:
REMARK  status: ('A' for Active; 'I' for Inactive)
REMARK    1  A    between atoms: C_3  and  N_4 
REMARK    2  A    between atoms: C_5  and  S_6 
REMARK    3  A    between atoms: S_6  and  C_7 
REMARK    4  A    between atoms: C_7  and  C_8 
REMARK       I    between atoms: C_8  and  N_9 
REMARK    5  A    between atoms: N_9  and  C_10 
REMARK    6  A    between atoms: C_10  and  C_11 
REMARK    7  A    between atoms: C_11  and  C_12 
REMARK    8  A    between atoms: C_14  and  O_15 
REMARK    9  A    between atoms: C_17  and  O_18 
REMARK   10  A    between atoms: C_26  and  N_27 
ROOT
HETATM    1  N   UNL     1     -43.635  59.421 -52.729  1.00  0.00    -0.275 N 
HETATM    2  C   UNL     1     -43.680  59.375 -54.147  1.00  0.00     0.177 A 
HETATM    3  N   UNL     1     -44.557  59.981 -54.910  1.00  0.00    -0.204 NA
HETATM    4  C   UNL     1     -45.442  60.736 -54.222  1.00  0.00     0.162 A 
HETATM    5  C   UNL     1     -45.555  60.930 -52.873  1.00  0.00     0.081 A 
HETATM    6  C   UNL     1     -44.618  60.239 -52.038  1.00  0.00     0.124 A 
HETATM    7  N   UNL     1     -46.429  61.496 -54.777  1.00  0.00    -0.260 N 
HETATM    8  H   UNL     1     -46.646  61.607 -55.761  1.00  0.00     0.191 HD
HETATM    9  N   UNL     1     -47.170  62.155 -53.859  1.00  0.00    -0.177 NA
HETATM   10  C   UNL     1     -46.627  61.815 -52.679  1.00  0.00     0.068 A 
HETATM   11  C   UNL     1     -47.190  62.375 -51.429  1.00  0.00     0.073 C 
ENDROOT
BRANCH   2  12
HETATM   12  S   UNL     1     -42.507  58.379 -55.033  1.00  0.00    -0.082 SA
BRANCH  12  13
HETATM   13  C   UNL     1     -43.632  57.190 -55.813  1.00  0.00     0.185 C 
BRANCH  13  14
HETATM   14  C   UNL     1     -42.976  56.452 -56.974  1.00  0.00     0.227 C 
HETATM   15  N   UNL     1     -42.386  55.243 -56.703  1.00  0.00    -0.360 N 
HETATM   16  H   UNL     1     -41.938  54.816 -57.509  1.00  0.00     0.162 HD
HETATM   17  O   UNL     1     -42.973  56.864 -58.136  1.00  0.00    -0.273 OA
BRANCH  15  18
HETATM   18  C   UNL     1     -42.291  54.576 -55.413  1.00  0.00     0.127 C 
BRANCH  18  19
HETATM   19  C   UNL     1     -40.987  54.881 -54.667  1.00  0.00     0.058 C 
BRANCH  19  20
HETATM   20  C   UNL     1     -40.522  53.761 -53.761  1.00  0.00    -0.054 A 
HETATM   21  C   UNL     1     -40.609  53.874 -52.364  1.00  0.00     0.046 A 
HETATM   22  C   UNL     1     -40.161  52.843 -51.528  1.00  0.00     0.102 A 
HETATM   23  C   UNL     1     -39.651  51.660 -52.094  1.00  0.00     0.101 A 
HETATM   24  C   UNL     1     -39.589  51.536 -53.484  1.00  0.00     0.040 A 
HETATM   25  C   UNL     1     -40.020  52.578 -54.311  1.00  0.00     0.010 A 
BRANCH  22  26
HETATM   26  O   UNL     1     -40.200  52.892 -50.156  1.00  0.00    -0.353 OA
HETATM   27  C   UNL     1     -39.690  54.057 -49.525  1.00  0.00     0.210 C 
ENDBRANCH  22  26
BRANCH  23  28
HETATM   28  O   UNL     1     -39.240  50.695 -51.208  1.00  0.00    -0.353 OA
HETATM   29  C   UNL     1     -40.000  49.499 -51.136  1.00  0.00     0.210 C 
ENDBRANCH  23  28
ENDBRANCH  19  20
ENDBRANCH  18  19
ENDBRANCH  15  18
ENDBRANCH  13  14
ENDBRANCH  12  13
ENDBRANCH   2  12
BRANCH   1  30
HETATM   30  C   UNL     1     -42.603  58.765 -51.990  1.00  0.00     0.051 A 
HETATM   31  C   UNL     1     -42.742  57.440 -51.523  1.00  0.00    -0.035 A 
HETATM   32  C   UNL     1     -43.924  56.574 -51.870  1.00  0.00     0.050 C 
HETATM   33  C   UNL     1     -41.714  56.877 -50.747  1.00  0.00     0.011 A 
HETATM   34  C   UNL     1     -40.588  57.626 -50.398  1.00  0.00     0.024 A 
HETATM   35  C   UNL     1     -40.468  58.938 -50.841  1.00  0.00     0.036 A 
HETATM   36  C   UNL     1     -41.461  59.507 -51.635  1.00  0.00     0.054 A 
HETATM   37 CL   UNL     1     -39.100  59.874 -50.385  1.00  0.00    -0.084 Cl
ENDBRANCH   1  30
BRANCH   6  38
HETATM   38  N   UNL     1     -44.676  60.329 -50.723  1.00  0.00    -0.384 N 
HETATM   39  H   UNL     1     -44.703  59.512 -50.133  1.00  0.00     0.157 HD
HETATM   40  H   UNL     1     -44.684  61.241 -50.283  1.00  0.00     0.157 HD
ENDBRANCH   6  38
TORSDOF 10
ENDMDL
MODEL 2
REMARK VINA RESULT:      -7.9      3.830      6.553
REMARK  10 active torsions:
REMARK  status: ('A' for Active; 'I' for Inactive)
REMARK    1  A    between atoms: C_3  and  N_4 
REMARK    2  A    between atoms: C_5  and  S_6 
REMARK    3  A    between atoms: S_6  and  C_7 
REMARK    4  A    between atoms: C_7  and  C_8 
REMARK       I    between atoms: C_8  and  N_9 
REMARK    5  A    between atoms: N_9  and  C_10 
REMARK    6  A    between atoms: C_10  and  C_11 
REMARK    7  A    between atoms: C_11  and  C_12 
REMARK    8  A    between atoms: C_14  and  O_15 
REMARK    9  A    between atoms: C_17  and  O_18 
REMARK   10  A    between atoms: C_26  and  N_27 
ROOT
HETATM    1  N   UNL     1     -43.439  59.117 -58.808  1.00  0.00    -0.275 N 
HETATM    2  C   UNL     1     -42.955  58.630 -57.566  1.00  0.00     0.177 A 
HETATM    3  N   UNL     1     -42.997  57.385 -57.157  1.00  0.00    -0.204 NA
HETATM    4  C   UNL     1     -43.521  56.534 -58.068  1.00  0.00     0.162 A 
HETATM    5  C   UNL     1     -44.018  56.794 -59.315  1.00  0.00     0.081 A 
HETATM    6  C   UNL     1     -44.004  58.160 -59.747  1.00  0.00     0.124 A 
HETATM    7  N   UNL     1     -43.642  55.185 -57.908  1.00  0.00    -0.260 N 
HETATM    8  H   UNL     1     -43.369  54.629 -57.106  1.00  0.00     0.191 HD
HETATM    9  N   UNL     1     -44.196  54.572 -58.977  1.00  0.00    -0.177 NA
HETATM   10  C   UNL     1     -44.423  55.564 -59.855  1.00  0.00     0.068 A 
HETATM   11  C   UNL     1     -45.023  55.248 -61.172  1.00  0.00     0.073 C 
ENDROOT
BRANCH   2  12
HETATM   12  S   UNL     1     -42.270  59.763 -56.384  1.00  0.00    -0.082 SA
BRANCH  12  13
HETATM   13  C   UNL     1     -42.640  58.875 -54.846  1.00  0.00     0.185 C 
BRANCH  13  14
HETATM   14  C   UNL     1     -41.395  58.647 -53.998  1.00  0.00     0.227 C 
HETATM   15  N   UNL     1     -41.062  57.351 -53.698  1.00  0.00    -0.360 N 
HETATM   16  H   UNL     1     -40.243  57.265 -53.103  1.00  0.00     0.162 HD
HETATM   17  O   UNL     1     -40.662  59.554 -53.596  1.00  0.00    -0.273 OA
BRANCH  15  18
HETATM   18  C   UNL     1     -41.778  56.144 -54.082  1.00  0.00     0.127 C 
BRANCH  18  19
HETATM   19  C   UNL     1     -40.886  55.095 -54.756  1.00  0.00     0.058 C 
BRANCH  19  20
HETATM   20  C   UNL     1     -40.519  53.934 -53.860  1.00  0.00    -0.054 A 
HETATM   21  C   UNL     1     -40.539  54.060 -52.462  1.00  0.00     0.046 A 
HETATM   22  C   UNL     1     -40.181  52.988 -51.635  1.00  0.00     0.102 A 
HETATM   23  C   UNL     1     -39.831  51.752 -52.210  1.00  0.00     0.101 A 
HETATM   24  C   UNL     1     -39.835  51.617 -53.601  1.00  0.00     0.040 A 
HETATM   25  C   UNL     1     -40.175  52.698 -54.418  1.00  0.00     0.010 A 
BRANCH  22  26
HETATM   26  O   UNL     1     -40.162  53.045 -50.262  1.00  0.00    -0.353 OA
HETATM   27  C   UNL     1     -39.718  54.253 -49.661  1.00  0.00     0.210 C 
ENDBRANCH  22  26
BRANCH  23  28
HETATM   28  O   UNL     1     -39.499  50.750 -51.332  1.00  0.00    -0.353 OA
HETATM   29  C   UNL     1     -39.609  49.411 -51.789  1.00  0.00     0.210 C 
ENDBRANCH  23  28
ENDBRANCH  19  20
ENDBRANCH  18  19
ENDBRANCH  15  18
ENDBRANCH  13  14
ENDBRANCH  12  13
ENDBRANCH   2  12
BRANCH   1  30
HETATM   30  C   UNL     1     -43.298  60.488 -59.182  1.00  0.00     0.051 A 
HETATM   31  C   UNL     1     -44.330  61.430 -58.977  1.00  0.00    -0.035 A 
HETATM   32  C   UNL     1     -45.600  61.100 -58.240  1.00  0.00     0.050 C 
HETATM   33  C   UNL     1     -44.149  62.750 -59.427  1.00  0.00     0.011 A 
HETATM   34  C   UNL     1     -42.989  63.121 -60.110  1.00  0.00     0.024 A 
HETATM   35  C   UNL     1     -41.988  62.183 -60.330  1.00  0.00     0.036 A 
HETATM   36  C   UNL     1     -42.133  60.877 -59.868  1.00  0.00     0.054 A 
HETATM   37 CL   UNL     1     -40.573  62.627 -61.200  1.00  0.00    -0.084 Cl
ENDBRANCH   1  30
BRANCH   6  38
HETATM   38  N   UNL     1     -44.501  58.514 -60.916  1.00  0.00    -0.384 N 
HETATM   39  H   UNL     1     -44.684  57.841 -61.644  1.00  0.00     0.157 HD
HETATM   40  H   UNL     1     -44.718  59.487 -61.094  1.00  0.00     0.157 HD
ENDBRANCH   6  38
TORSDOF 10
ENDMDL
MODEL 3
REMARK VINA RESULT:      -7.7      4.154      6.430
REMARK  10 active torsions:
REMARK  status: ('A' for Active; 'I' for Inactive)
REMARK    1  A    between atoms: C_3  and  N_4 
REMARK    2  A    between atoms: C_5  and  S_6 
REMARK    3  A    between atoms: S_6  and  C_7 
REMARK    4  A    between atoms: C_7  and  C_8 
REMARK       I    between atoms: C_8  and  N_9 
REMARK    5  A    between atoms: N_9  and  C_10 
REMARK    6  A    between atoms: C_10  and  C_11 
REMARK    7  A    between atoms: C_11  and  C_12 
REMARK    8  A    between atoms: C_14  and  O_15 
REMARK    9  A    between atoms: C_17  and  O_18 
REMARK   10  A    between atoms: C_26  and  N_27 
ROOT
HETATM    1  N   UNL     1     -43.847  59.060 -58.925  1.00  0.00    -0.275 N 
HETATM    2  C   UNL     1     -43.732  59.315 -57.533  1.00  0.00     0.177 A 
HETATM    3  N   UNL     1     -42.927  60.185 -56.973  1.00  0.00    -0.204 NA
HETATM    4  C   UNL     1     -42.202  60.902 -57.861  1.00  0.00     0.162 A 
HETATM    5  C   UNL     1     -42.181  60.827 -59.226  1.00  0.00     0.081 A 
HETATM    6  C   UNL     1     -43.035  59.852 -59.836  1.00  0.00     0.124 A 
HETATM    7  N   UNL     1     -41.323  61.894 -57.542  1.00  0.00    -0.260 N 
HETATM    8  H   UNL     1     -41.082  62.236 -56.619  1.00  0.00     0.191 HD
HETATM    9  N   UNL     1     -40.735  62.449 -58.625  1.00  0.00    -0.177 NA
HETATM   10  C   UNL     1     -41.270  61.798 -59.671  1.00  0.00     0.068 A 
HETATM   11  C   UNL     1     -40.858  62.164 -61.046  1.00  0.00     0.073 C 
ENDROOT
BRANCH   2  12
HETATM   12  S   UNL     1     -44.693  58.364 -56.383  1.00  0.00    -0.082 SA
BRANCH  12  13
HETATM   13  C   UNL     1     -43.410  57.254 -55.743  1.00  0.00     0.185 C 
BRANCH  13  14
HETATM   14  C   UNL     1     -43.894  56.441 -54.549  1.00  0.00     0.227 C 
HETATM   15  N   UNL     1     -43.441  55.151 -54.437  1.00  0.00    -0.360 N 
HETATM   16  H   UNL     1     -43.824  54.650 -53.640  1.00  0.00     0.162 HD
HETATM   17  O   UNL     1     -44.637  56.885 -53.671  1.00  0.00    -0.273 OA
BRANCH  15  18
HETATM   18  C   UNL     1     -42.555  54.443 -55.349  1.00  0.00     0.127 C 
BRANCH  18  19
HETATM   19  C   UNL     1     -41.074  54.555 -54.967  1.00  0.00     0.058 C 
BRANCH  19  20
HETATM   20  C   UNL     1     -40.631  53.550 -53.926  1.00  0.00    -0.054 A 
HETATM   21  C   UNL     1     -40.719  53.839 -52.555  1.00  0.00     0.046 A 
HETATM   22  C   UNL     1     -40.291  52.913 -51.595  1.00  0.00     0.102 A 
HETATM   23  C   UNL     1     -39.800  51.660 -52.006  1.00  0.00     0.101 A 
HETATM   24  C   UNL     1     -39.737  51.362 -53.369  1.00  0.00     0.040 A 
HETATM   25  C   UNL     1     -40.148  52.299 -54.321  1.00  0.00     0.010 A 
BRANCH  22  26
HETATM   26  O   UNL     1     -40.332  53.134 -50.239  1.00  0.00    -0.353 OA
HETATM   27  C   UNL     1     -39.649  54.273 -49.738  1.00  0.00     0.210 C 
ENDBRANCH  22  26
BRANCH  23  28
HETATM   28  O   UNL     1     -39.408  50.807 -51.004  1.00  0.00    -0.353 OA
HETATM   29  C   UNL     1     -39.652  49.420 -51.185  1.00  0.00     0.210 C 
ENDBRANCH  23  28
ENDBRANCH  19  20
ENDBRANCH  18  19
ENDBRANCH  15  18
ENDBRANCH  13  14
ENDBRANCH  12  13
ENDBRANCH   2  12
BRANCH   1  30
HETATM   30  C   UNL     1     -44.796  58.125 -59.441  1.00  0.00     0.051 A 
HETATM   31  C   UNL     1     -46.109  58.508 -59.791  1.00  0.00    -0.035 A 
HETATM   32  C   UNL     1     -46.573  59.940 -59.771  1.00  0.00     0.050 C 
HETATM   33  C   UNL     1     -47.011  57.525 -60.233  1.00  0.00     0.011 A 
HETATM   34  C   UNL     1     -46.639  56.181 -60.282  1.00  0.00     0.024 A 
HETATM   35  C   UNL     1     -45.352  55.808 -59.913  1.00  0.00     0.036 A 
HETATM   36  C   UNL     1     -44.431  56.768 -59.499  1.00  0.00     0.054 A 
HETATM   37 CL   UNL     1     -44.900  54.149 -59.940  1.00  0.00    -0.084 Cl
ENDBRANCH   1  30
BRANCH   6  38
HETATM   38  N   UNL     1     -43.051  59.677 -61.143  1.00  0.00    -0.384 N 
HETATM   39  H   UNL     1     -42.629  58.871 -61.579  1.00  0.00     0.157 HD
HETATM   40  H   UNL     1     -43.506  60.361 -61.735  1.00  0.00     0.157 HD
ENDBRANCH   6  38
TORSDOF 10
ENDMDL
MODEL 4
REMARK VINA RESULT:      -7.5      2.609      4.307
REMARK  10 active torsions:
REMARK  status: ('A' for Active; 'I' for Inactive)
REMARK    1  A    between atoms: C_3  and  N_4 
REMARK    2  A    between atoms: C_5  and  S_6 
REMARK    3  A    between atoms: S_6  and  C_7 
REMARK    4  A    between atoms: C_7  and  C_8 
REMARK       I    between atoms: C_8  and  N_9 
REMARK    5  A    between atoms: N_9  and  C_10 
REMARK    6  A    between atoms: C_10  and  C_11 
REMARK    7  A    between atoms: C_11  and  C_12 
REMARK    8  A    between atoms: C_14  and  O_15 
REMARK    9  A    between atoms: C_17  and  O_18 
REMARK   10  A    between atoms: C_26  and  N_27 
ROOT
HETATM    1  N   UNL     1     -43.638  59.600 -54.219  1.00  0.00    -0.275 N 
HETATM    2  C   UNL     1     -42.648  59.811 -53.223  1.00  0.00     0.177 A 
HETATM    3  N   UNL     1     -42.794  60.520 -52.130  1.00  0.00    -0.204 NA
HETATM    4  C   UNL     1     -44.036  61.031 -51.978  1.00  0.00     0.162 A 
HETATM    5  C   UNL     1     -45.125  60.927 -52.799  1.00  0.00     0.081 A 
HETATM    6  C   UNL     1     -44.955  60.181 -54.011  1.00  0.00     0.124 A 
HETATM    7  N   UNL     1     -44.459  61.769 -50.913  1.00  0.00    -0.260 N 
HETATM    8  H   UNL     1     -43.924  62.044 -50.097  1.00  0.00     0.191 HD
HETATM    9  N   UNL     1     -45.752  62.151 -51.013  1.00  0.00    -0.177 NA
HETATM   10  C   UNL     1     -46.171  61.624 -52.175  1.00  0.00     0.068 A 
HETATM   11  C   UNL     1     -47.572  61.833 -52.608  1.00  0.00     0.073 C 
ENDROOT
BRANCH   2  12
HETATM   12  S   UNL     1     -41.023  59.132 -53.441  1.00  0.00    -0.082 SA
BRANCH  12  13
HETATM   13  C   UNL     1     -41.177  57.623 -52.449  1.00  0.00     0.185 C 
BRANCH  13  14
HETATM   14  C   UNL     1     -40.918  57.876 -50.968  1.00  0.00     0.227 C 
HETATM   15  N   UNL     1     -41.475  57.003 -50.070  1.00  0.00    -0.360 N 
HETATM   16  H   UNL     1     -41.295  57.243 -49.099  1.00  0.00     0.162 HD
HETATM   17  O   UNL     1     -40.217  58.796 -50.542  1.00  0.00    -0.273 OA
BRANCH  15  18
HETATM   18  C   UNL     1     -42.319  55.853 -50.362  1.00  0.00     0.127 C 
BRANCH  18  19
HETATM   19  C   UNL     1     -41.748  54.531 -49.836  1.00  0.00     0.058 C 
BRANCH  19  20
HETATM   20  C   UNL     1     -41.116  53.667 -50.905  1.00  0.00    -0.054 A 
HETATM   21  C   UNL     1     -40.411  52.500 -50.572  1.00  0.00     0.046 A 
HETATM   22  C   UNL     1     -39.811  51.712 -51.562  1.00  0.00     0.102 A 
HETATM   23  C   UNL     1     -39.947  52.073 -52.916  1.00  0.00     0.101 A 
HETATM   24  C   UNL     1     -40.670  53.220 -53.251  1.00  0.00     0.040 A 
HETATM   25  C   UNL     1     -41.249  54.011 -52.254  1.00  0.00     0.010 A 
BRANCH  22  26
HETATM   26  O   UNL     1     -39.094  50.568 -51.309  1.00  0.00    -0.353 OA
HETATM   27  C   UNL     1     -39.792  49.465 -50.750  1.00  0.00     0.210 C 
ENDBRANCH  22  26
BRANCH  23  28
HETATM   28  O   UNL     1     -39.336  51.245 -53.825  1.00  0.00    -0.353 OA
HETATM   29  C   UNL     1     -40.126  50.233 -54.430  1.00  0.00     0.210 C 
ENDBRANCH  23  28
ENDBRANCH  19  20
ENDBRANCH  18  19
ENDBRANCH  15  18
ENDBRANCH  13  14
ENDBRANCH  12  13
ENDBRANCH   2  12
BRANCH   1  30
HETATM   30  C   UNL     1     -43.396  58.764 -55.352  1.00  0.00     0.051 A 
HETATM   31  C   UNL     1     -43.604  57.368 -55.310  1.00  0.00    -0.035 A 
HETATM   32  C   UNL     1     -44.211  56.670 -54.122  1.00  0.00     0.050 C 
HETATM   33  C   UNL     1     -43.286  56.596 -56.440  1.00  0.00     0.011 A 
HETATM   34  C   UNL     1     -42.727  57.186 -57.576  1.00  0.00     0.024 A 
HETATM   35  C   UNL     1     -42.503  58.557 -57.602  1.00  0.00     0.036 A 
HETATM   36  C   UNL     1     -42.837  59.346 -56.504  1.00  0.00     0.054 A 
HETATM   37 CL   UNL     1     -41.784  59.282 -58.985  1.00  0.00    -0.084 Cl
ENDBRANCH   1  30
BRANCH   6  38
HETATM   38  N   UNL     1     -45.934  60.063 -54.885  1.00  0.00    -0.384 N 
HETATM   39  H   UNL     1     -46.887  59.892 -54.600  1.00  0.00     0.157 HD
HETATM   40  H   UNL     1     -45.737  60.153 -55.874  1.00  0.00     0.157 HD
ENDBRANCH   6  38
TORSDOF 10
ENDMDL
MODEL 5
REMARK VINA RESULT:      -7.4      2.936      4.999
REMARK  10 active torsions:
REMARK  status: ('A' for Active; 'I' for Inactive)
REMARK    1  A    between atoms: C_3  and  N_4 
REMARK    2  A    between atoms: C_5  and  S_6 
REMARK    3  A    between atoms: S_6  and  C_7 
REMARK    4  A    between atoms: C_7  and  C_8 
REMARK       I    between atoms: C_8  and  N_9 
REMARK    5  A    between atoms: N_9  and  C_10 
REMARK    6  A    between atoms: C_10  and  C_11 
REMARK    7  A    between atoms: C_11  and  C_12 
REMARK    8  A    between atoms: C_14  and  O_15 
REMARK    9  A    between atoms: C_17  and  O_18 
REMARK   10  A    between atoms: C_26  and  N_27 
ROOT
HETATM    1  N   UNL     1     -43.722  59.837 -54.730  1.00  0.00    -0.275 N 
HETATM    2  C   UNL     1     -43.864  58.441 -54.945  1.00  0.00     0.177 A 
HETATM    3  N   UNL     1     -43.415  57.772 -55.980  1.00  0.00    -0.204 NA
HETATM    4  C   UNL     1     -42.726  58.533 -56.859  1.00  0.00     0.162 A 
HETATM    5  C   UNL     1     -42.460  59.874 -56.826  1.00  0.00     0.081 A 
HETATM    6  C   UNL     1     -42.981  60.611 -55.714  1.00  0.00     0.124 A 
HETATM    7  N   UNL     1     -42.125  58.075 -57.994  1.00  0.00    -0.260 N 
HETATM    8  H   UNL     1     -42.104  57.125 -58.345  1.00  0.00     0.191 HD
HETATM    9  N   UNL     1     -41.499  59.050 -58.692  1.00  0.00    -0.177 NA
HETATM   10  C   UNL     1     -41.697  60.164 -57.968  1.00  0.00     0.068 A 
HETATM   11  C   UNL     1     -41.127  61.448 -58.435  1.00  0.00     0.073 C 
ENDROOT
BRANCH   2  12
HETATM   12  S   UNL     1     -44.771  57.459 -53.778  1.00  0.00    -0.082 SA
BRANCH  12  13
HETATM   13  C   UNL     1     -43.410  56.880 -52.729  1.00  0.00     0.185 C 
BRANCH  13  14
HETATM   14  C   UNL     1     -43.783  56.867 -51.252  1.00  0.00     0.227 C 
HETATM   15  N   UNL     1     -42.789  56.586 -50.350  1.00  0.00    -0.360 N 
HETATM   16  H   UNL     1     -43.106  56.558 -49.386  1.00  0.00     0.162 HD
HETATM   17  O   UNL     1     -44.912  57.122 -50.827  1.00  0.00    -0.273 OA
BRANCH  15  18
HETATM   18  C   UNL     1     -41.397  56.272 -50.639  1.00  0.00     0.127 C 
BRANCH  18  19
HETATM   19  C   UNL     1     -40.975  54.880 -50.156  1.00  0.00     0.058 C 
BRANCH  19  20
HETATM   20  C   UNL     1     -40.644  53.916 -51.274  1.00  0.00    -0.054 A 
HETATM   21  C   UNL     1     -41.016  54.187 -52.600  1.00  0.00     0.046 A 
HETATM   22  C   UNL     1     -40.723  53.284 -53.630  1.00  0.00     0.102 A 
HETATM   23  C   UNL     1     -40.013  52.104 -53.341  1.00  0.00     0.101 A 
HETATM   24  C   UNL     1     -39.619  51.845 -52.025  1.00  0.00     0.040 A 
HETATM   25  C   UNL     1     -39.933  52.743 -51.000  1.00  0.00     0.010 A 
BRANCH  22  26
HETATM   26  O   UNL     1     -41.070  53.476 -54.945  1.00  0.00    -0.353 OA
HETATM   27  C   UNL     1     -41.434  54.789 -55.344  1.00  0.00     0.210 C 
ENDBRANCH  22  26
BRANCH  23  28
HETATM   28  O   UNL     1     -39.760  51.275 -54.405  1.00  0.00    -0.353 OA
HETATM   29  C   UNL     1     -40.148  49.914 -54.288  1.00  0.00     0.210 C 
ENDBRANCH  23  28
ENDBRANCH  19  20
ENDBRANCH  18  19
ENDBRANCH  15  18
ENDBRANCH  13  14
ENDBRANCH  12  13
ENDBRANCH   2  12
BRANCH   1  30
HETATM   30  C   UNL     1     -44.202  60.465 -53.540  1.00  0.00     0.051 A 
HETATM   31  C   UNL     1     -43.417  60.548 -52.369  1.00  0.00    -0.035 A 
HETATM   32  C   UNL     1     -41.981  60.100 -52.316  1.00  0.00     0.050 C 
HETATM   33  C   UNL     1     -43.975  61.123 -51.213  1.00  0.00     0.011 A 
HETATM   34  C   UNL     1     -45.299  61.565 -51.200  1.00  0.00     0.024 A 
HETATM   35  C   UNL     1     -46.073  61.459 -52.350  1.00  0.00     0.036 A 
HETATM   36  C   UNL     1     -45.533  60.919 -53.515  1.00  0.00     0.054 A 
HETATM   37 CL   UNL     1     -47.714  61.971 -52.328  1.00  0.00    -0.084 Cl
ENDBRANCH   1  30
BRANCH   6  38
HETATM   38  N   UNL     1     -42.813  61.916 -55.617  1.00  0.00    -0.384 N 
HETATM   39  H   UNL     1     -42.463  62.467 -56.386  1.00  0.00     0.157 HD
HETATM   40  H   UNL     1     -43.048  62.389 -54.754  1.00  0.00     0.157 HD
ENDBRANCH   6  38
TORSDOF 10
ENDMDL
MODEL 6
REMARK VINA RESULT:      -7.3      3.389      6.277
REMARK  10 active torsions:
REMARK  status: ('A' for Active; 'I' for Inactive)
REMARK    1  A    between atoms: C_3  and  N_4 
REMARK    2  A    between atoms: C_5  and  S_6 
REMARK    3  A    between atoms: S_6  and  C_7 
REMARK    4  A    between atoms: C_7  and  C_8 
REMARK       I    between atoms: C_8  and  N_9 
REMARK    5  A    between atoms: N_9  and  C_10 
REMARK    6  A    between atoms: C_10  and  C_11 
REMARK    7  A    between atoms: C_11  and  C_12 
REMARK    8  A    between atoms: C_14  and  O_15 
REMARK    9  A    between atoms: C_17  and  O_18 
REMARK   10  A    between atoms: C_26  and  N_27 
ROOT
HETATM    1  N   UNL     1     -42.887  59.164 -57.514  1.00  0.00    -0.275 N 
HETATM    2  C   UNL     1     -42.639  58.488 -56.291  1.00  0.00     0.177 A 
HETATM    3  N   UNL     1     -42.814  57.208 -56.069  1.00  0.00    -0.204 NA
HETATM    4  C   UNL     1     -43.226  56.521 -57.158  1.00  0.00     0.162 A 
HETATM    5  C   UNL     1     -43.498  56.974 -58.419  1.00  0.00     0.081 A 
HETATM    6  C   UNL     1     -43.340  58.378 -58.652  1.00  0.00     0.124 A 
HETATM    7  N   UNL     1     -43.443  55.175 -57.204  1.00  0.00    -0.260 N 
HETATM    8  H   UNL     1     -43.336  54.504 -56.454  1.00  0.00     0.191 HD
HETATM    9  N   UNL     1     -43.847  54.746 -58.421  1.00  0.00    -0.177 NA
HETATM   10  C   UNL     1     -43.874  55.855 -59.179  1.00  0.00     0.068 A 
HETATM   11  C   UNL     1     -44.266  55.755 -60.603  1.00  0.00     0.073 C 
ENDROOT
BRANCH   2  12
HETATM   12  S   UNL     1     -42.098  59.408 -54.872  1.00  0.00    -0.082 SA
BRANCH  12  13
HETATM   13  C   UNL     1     -41.457  58.057 -53.847  1.00  0.00     0.185 C 
BRANCH  13  14
HETATM   14  C   UNL     1     -40.438  58.542 -52.824  1.00  0.00     0.227 C 
HETATM   15  N   UNL     1     -40.638  58.186 -51.514  1.00  0.00    -0.360 N 
HETATM   16  H   UNL     1     -39.945  58.567 -50.876  1.00  0.00     0.162 HD
HETATM   17  O   UNL     1     -39.438  59.204 -53.110  1.00  0.00    -0.273 OA
BRANCH  15  18
HETATM   18  C   UNL     1     -41.738  57.405 -50.969  1.00  0.00     0.127 C 
BRANCH  18  19
HETATM   19  C   UNL     1     -41.276  56.231 -50.097  1.00  0.00     0.058 C 
BRANCH  19  20
HETATM   20  C   UNL     1     -41.007  54.960 -50.871  1.00  0.00    -0.054 A 
HETATM   21  C   UNL     1     -41.310  54.864 -52.239  1.00  0.00     0.046 A 
HETATM   22  C   UNL     1     -41.077  53.680 -52.949  1.00  0.00     0.102 A 
HETATM   23  C   UNL     1     -40.495  52.579 -52.293  1.00  0.00     0.101 A 
HETATM   24  C   UNL     1     -40.169  52.681 -50.938  1.00  0.00     0.040 A 
HETATM   25  C   UNL     1     -40.424  53.861 -50.233  1.00  0.00     0.010 A 
BRANCH  22  26
HETATM   26  O   UNL     1     -41.363  53.510 -54.282  1.00  0.00    -0.353 OA
HETATM   27  C   UNL     1     -40.565  54.216 -55.220  1.00  0.00     0.210 C 
ENDBRANCH  22  26
BRANCH  23  28
HETATM   28  O   UNL     1     -40.293  51.458 -53.060  1.00  0.00    -0.353 OA
HETATM   29  C   UNL     1     -38.977  51.212 -53.533  1.00  0.00     0.210 C 
ENDBRANCH  23  28
ENDBRANCH  19  20
ENDBRANCH  18  19
ENDBRANCH  15  18
ENDBRANCH  13  14
ENDBRANCH  12  13
ENDBRANCH   2  12
BRANCH   1  30
HETATM   30  C   UNL     1     -42.614  60.557 -57.671  1.00  0.00     0.051 A 
HETATM   31  C   UNL     1     -43.587  61.545 -57.405  1.00  0.00    -0.035 A 
HETATM   32  C   UNL     1     -44.937  61.223 -56.822  1.00  0.00     0.050 C 
HETATM   33  C   UNL     1     -43.272  62.895 -57.641  1.00  0.00     0.011 A 
HETATM   34  C   UNL     1     -42.034  63.259 -58.173  1.00  0.00     0.024 A 
HETATM   35  C   UNL     1     -41.089  62.279 -58.454  1.00  0.00     0.036 A 
HETATM   36  C   UNL     1     -41.368  60.938 -58.202  1.00  0.00     0.054 A 
HETATM   37 CL   UNL     1     -39.576  62.720 -59.141  1.00  0.00    -0.084 Cl
ENDBRANCH   1  30
BRANCH   6  38
HETATM   38  N   UNL     1     -43.620  58.914 -59.824  1.00  0.00    -0.384 N 
HETATM   39  H   UNL     1     -44.139  59.775 -59.906  1.00  0.00     0.157 HD
HETATM   40  H   UNL     1     -43.302  58.461 -60.671  1.00  0.00     0.157 HD
ENDBRANCH   6  38
TORSDOF 10
ENDMDL
MODEL 7
REMARK VINA RESULT:      -7.2      3.695      7.948
REMARK  10 active torsions:
REMARK  status: ('A' for Active; 'I' for Inactive)
REMARK    1  A    between atoms: C_3  and  N_4 
REMARK    2  A    between atoms: C_5  and  S_6 
REMARK    3  A    between atoms: S_6  and  C_7 
REMARK    4  A    between atoms: C_7  and  C_8 
REMARK       I    between atoms: C_8  and  N_9 
REMARK    5  A    between atoms: N_9  and  C_10 
REMARK    6  A    between atoms: C_10  and  C_11 
REMARK    7  A    between atoms: C_11  and  C_12 
REMARK    8  A    between atoms: C_14  and  O_15 
REMARK    9  A    between atoms: C_17  and  O_18 
REMARK   10  A    between atoms: C_26  and  N_27 
ROOT
HETATM    1  N   UNL     1     -41.921  57.545 -52.228  1.00  0.00    -0.275 N 
HETATM    2  C   UNL     1     -41.594  57.532 -53.610  1.00  0.00     0.177 A 
HETATM    3  N   UNL     1     -41.086  56.520 -54.271  1.00  0.00    -0.204 NA
HETATM    4  C   UNL     1     -40.927  55.407 -53.521  1.00  0.00     0.162 A 
HETATM    5  C   UNL     1     -41.197  55.208 -52.195  1.00  0.00     0.081 A 
HETATM    6  C   UNL     1     -41.719  56.324 -51.464  1.00  0.00     0.124 A 
HETATM    7  N   UNL     1     -40.457  54.211 -53.976  1.00  0.00    -0.260 N 
HETATM    8  H   UNL     1     -40.160  53.979 -54.916  1.00  0.00     0.191 HD
HETATM    9  N   UNL     1     -40.403  53.263 -53.013  1.00  0.00    -0.177 NA
HETATM   10  C   UNL     1     -40.869  53.873 -51.911  1.00  0.00     0.068 A 
HETATM   11  C   UNL     1     -40.965  53.114 -50.643  1.00  0.00     0.073 C 
ENDROOT
BRANCH   2  12
HETATM   12  S   UNL     1     -41.811  59.003 -54.579  1.00  0.00    -0.082 SA
BRANCH  12  13
HETATM   13  C   UNL     1     -42.344  58.270 -56.149  1.00  0.00     0.185 C 
BRANCH  13  14
HETATM   14  C   UNL     1     -43.747  57.682 -56.065  1.00  0.00     0.227 C 
HETATM   15  N   UNL     1     -43.966  56.476 -56.680  1.00  0.00    -0.360 N 
HETATM   16  H   UNL     1     -44.927  56.153 -56.619  1.00  0.00     0.162 HD
HETATM   17  O   UNL     1     -44.678  58.212 -55.454  1.00  0.00    -0.273 OA
BRANCH  15  18
HETATM   18  C   UNL     1     -43.008  55.684 -57.437  1.00  0.00     0.127 C 
BRANCH  18  19
HETATM   19  C   UNL     1     -42.909  56.094 -58.911  1.00  0.00     0.058 C 
BRANCH  19  20
HETATM   20  C   UNL     1     -44.235  56.476 -59.532  1.00  0.00    -0.054 A 
HETATM   21  C   UNL     1     -44.572  57.820 -59.754  1.00  0.00     0.046 A 
HETATM   22  C   UNL     1     -45.808  58.172 -60.313  1.00  0.00     0.102 A 
HETATM   23  C   UNL     1     -46.712  57.162 -60.693  1.00  0.00     0.101 A 
HETATM   24  C   UNL     1     -46.367  55.823 -60.496  1.00  0.00     0.040 A 
HETATM   25  C   UNL     1     -45.140  55.482 -59.920  1.00  0.00     0.010 A 
BRANCH  22  26
HETATM   26  O   UNL     1     -46.210  59.465 -60.543  1.00  0.00    -0.353 OA
HETATM   27  C   UNL     1     -46.519  60.268 -59.414  1.00  0.00     0.210 C 
ENDBRANCH  22  26
BRANCH  23  28
HETATM   28  O   UNL     1     -47.898  57.588 -61.238  1.00  0.00    -0.353 OA
HETATM   29  C   UNL     1     -48.431  56.840 -62.321  1.00  0.00     0.210 C 
ENDBRANCH  23  28
ENDBRANCH  19  20
ENDBRANCH  18  19
ENDBRANCH  15  18
ENDBRANCH  13  14
ENDBRANCH  12  13
ENDBRANCH   2  12
BRANCH   1  30
HETATM   30  C   UNL     1     -42.521  58.685 -51.610  1.00  0.00     0.051 A 
HETATM   31  C   UNL     1     -41.769  59.607 -50.851  1.00  0.00    -0.035 A 
HETATM   32  C   UNL     1     -40.269  59.537 -50.736  1.00  0.00     0.050 C 
HETATM   33  C   UNL     1     -42.433  60.672 -50.217  1.00  0.00     0.011 A 
HETATM   34  C   UNL     1     -43.821  60.797 -50.293  1.00  0.00     0.024 A 
HETATM   35  C   UNL     1     -44.558  59.872 -51.022  1.00  0.00     0.036 A 
HETATM   36  C   UNL     1     -43.919  58.824 -51.682  1.00  0.00     0.054 A 
HETATM   37 CL   UNL     1     -46.271  60.002 -51.090  1.00  0.00    -0.084 Cl
ENDBRANCH   1  30
BRANCH   6  38
HETATM   38  N   UNL     1     -41.970  56.240 -50.172  1.00  0.00    -0.384 N 
HETATM   39  H   UNL     1     -41.546  55.532 -49.591  1.00  0.00     0.157 HD
HETATM   40  H   UNL     1     -42.597  56.906 -49.739  1.00  0.00     0.157 HD
ENDBRANCH   6  38
TORSDOF 10
ENDMDL
MODEL 8
REMARK VINA RESULT:      -7.0      3.687      8.331
REMARK  10 active torsions:
REMARK  status: ('A' for Active; 'I' for Inactive)
REMARK    1  A    between atoms: C_3  and  N_4 
REMARK    2  A    between atoms: C_5  and  S_6 
REMARK    3  A    between atoms: S_6  and  C_7 
REMARK    4  A    between atoms: C_7  and  C_8 
REMARK       I    between atoms: C_8  and  N_9 
REMARK    5  A    between atoms: N_9  and  C_10 
REMARK    6  A    between atoms: C_10  and  C_11 
REMARK    7  A    between atoms: C_11  and  C_12 
REMARK    8  A    between atoms: C_14  and  O_15 
REMARK    9  A    between atoms: C_17  and  O_18 
REMARK   10  A    between atoms: C_26  and  N_27 
ROOT
HETATM    1  N   UNL     1     -40.784  53.838 -52.426  1.00  0.00    -0.275 N 
HETATM    2  C   UNL     1     -40.628  53.742 -53.834  1.00  0.00     0.177 A 
HETATM    3  N   UNL     1     -40.171  52.703 -54.490  1.00  0.00    -0.204 NA
HETATM    4  C   UNL     1     -39.883  51.646 -53.697  1.00  0.00     0.162 A 
HETATM    5  C   UNL     1     -39.983  51.527 -52.338  1.00  0.00     0.081 A 
HETATM    6  C   UNL     1     -40.448  52.675 -51.619  1.00  0.00     0.124 A 
HETATM    7  N   UNL     1     -39.432  50.435 -54.132  1.00  0.00    -0.260 N 
HETATM    8  H   UNL     1     -39.245  50.149 -55.085  1.00  0.00     0.191 HD
HETATM    9  N   UNL     1     -39.228  49.555 -53.127  1.00  0.00    -0.177 NA
HETATM   10  C   UNL     1     -39.576  50.223 -52.015  1.00  0.00     0.068 A 
HETATM   11  C   UNL     1     -39.490  49.547 -50.700  1.00  0.00     0.073 C 
ENDROOT
BRANCH   2  12
HETATM   12  S   UNL     1     -41.013  55.140 -54.858  1.00  0.00    -0.082 SA
BRANCH  12  13
HETATM   13  C   UNL     1     -42.669  54.668 -55.426  1.00  0.00     0.185 C 
BRANCH  13  14
HETATM   14  C   UNL     1     -43.627  55.852 -55.459  1.00  0.00     0.227 C 
HETATM   15  N   UNL     1     -43.887  56.422 -56.680  1.00  0.00    -0.360 N 
HETATM   16  H   UNL     1     -44.505  57.226 -56.633  1.00  0.00     0.162 HD
HETATM   17  O   UNL     1     -44.198  56.302 -54.464  1.00  0.00    -0.273 OA
BRANCH  15  18
HETATM   18  C   UNL     1     -43.332  56.038 -57.970  1.00  0.00     0.127 C 
BRANCH  18  19
HETATM   19  C   UNL     1     -42.544  57.163 -58.651  1.00  0.00     0.058 C 
BRANCH  19  20
HETATM   20  C   UNL     1     -42.705  58.514 -57.989  1.00  0.00    -0.054 A 
HETATM   21  C   UNL     1     -42.129  58.782 -56.737  1.00  0.00     0.046 A 
HETATM   22  C   UNL     1     -42.295  60.028 -56.119  1.00  0.00     0.102 A 
HETATM   23  C   UNL     1     -43.018  61.040 -56.776  1.00  0.00     0.101 A 
HETATM   24  C   UNL     1     -43.570  60.783 -58.033  1.00  0.00     0.040 A 
HETATM   25  C   UNL     1     -43.416  59.530 -58.634  1.00  0.00     0.010 A 
BRANCH  22  26
HETATM   26  O   UNL     1     -41.774  60.354 -54.890  1.00  0.00    -0.353 OA
HETATM   27  C   UNL     1     -41.330  59.290 -54.061  1.00  0.00     0.210 C 
ENDBRANCH  22  26
BRANCH  23  28
HETATM   28  O   UNL     1     -43.130  62.234 -56.107  1.00  0.00    -0.353 OA
HETATM   29  C   UNL     1     -43.349  63.405 -56.879  1.00  0.00     0.210 C 
ENDBRANCH  23  28
ENDBRANCH  19  20
ENDBRANCH  18  19
ENDBRANCH  15  18
ENDBRANCH  13  14
ENDBRANCH  12  13
ENDBRANCH   2  12
BRANCH   1  30
HETATM   30  C   UNL     1     -41.343  54.999 -51.811  1.00  0.00     0.051 A 
HETATM   31  C   UNL     1     -42.724  55.112 -51.542  1.00  0.00    -0.035 A 
HETATM   32  C   UNL     1     -43.693  53.981 -51.763  1.00  0.00     0.050 C 
HETATM   33  C   UNL     1     -43.217  56.309 -50.992  1.00  0.00     0.011 A 
HETATM   34  C   UNL     1     -42.368  57.392 -50.756  1.00  0.00     0.024 A 
HETATM   35  C   UNL     1     -41.014  57.282 -51.045  1.00  0.00     0.036 A 
HETATM   36  C   UNL     1     -40.498  56.096 -51.564  1.00  0.00     0.054 A 
HETATM   37 CL   UNL     1     -39.971  58.624 -50.788  1.00  0.00    -0.084 Cl
ENDBRANCH   1  30
BRANCH   6  38
HETATM   38  N   UNL     1     -40.536  52.670 -50.303  1.00  0.00    -0.384 N 
HETATM   39  H   UNL     1     -40.805  51.845 -49.790  1.00  0.00     0.157 HD
HETATM   40  H   UNL     1     -40.321  53.512 -49.783  1.00  0.00     0.157 HD
ENDBRANCH   6  38
TORSDOF 10
ENDMDL
MODEL 9
REMARK VINA RESULT:      -7.0      2.973      5.041
REMARK  10 active torsions:
REMARK  status: ('A' for Active; 'I' for Inactive)
REMARK    1  A    between atoms: C_3  and  N_4 
REMARK    2  A    between atoms: C_5  and  S_6 
REMARK    3  A    between atoms: S_6  and  C_7 
REMARK    4  A    between atoms: C_7  and  C_8 
REMARK       I    between atoms: C_8  and  N_9 
REMARK    5  A    between atoms: N_9  and  C_10 
REMARK    6  A    between atoms: C_10  and  C_11 
REMARK    7  A    between atoms: C_11  and  C_12 
REMARK    8  A    between atoms: C_14  and  O_15 
REMARK    9  A    between atoms: C_17  and  O_18 
REMARK   10  A    between atoms: C_26  and  N_27 
ROOT
HETATM    1  N   UNL     1     -44.025  59.907 -55.016  1.00  0.00    -0.275 N 
HETATM    2  C   UNL     1     -44.445  58.577 -55.282  1.00  0.00     0.177 A 
HETATM    3  N   UNL     1     -44.736  57.667 -54.384  1.00  0.00    -0.204 NA
HETATM    4  C   UNL     1     -44.651  58.115 -53.111  1.00  0.00     0.162 A 
HETATM    5  C   UNL     1     -44.290  59.351 -52.648  1.00  0.00     0.081 A 
HETATM    6  C   UNL     1     -43.938  60.334 -53.628  1.00  0.00     0.124 A 
HETATM    7  N   UNL     1     -44.938  57.384 -51.997  1.00  0.00    -0.260 N 
HETATM    8  H   UNL     1     -45.248  56.420 -51.951  1.00  0.00     0.191 HD
HETATM    9  N   UNL     1     -44.772  58.079 -50.850  1.00  0.00    -0.177 NA
HETATM   10  C   UNL     1     -44.379  59.300 -51.248  1.00  0.00     0.068 A 
HETATM   11  C   UNL     1     -44.114  60.347 -50.235  1.00  0.00     0.073 C 
ENDROOT
BRANCH   2  12
HETATM   12  S   UNL     1     -44.552  58.007 -56.960  1.00  0.00    -0.082 SA
BRANCH  12  13
HETATM   13  C   UNL     1     -42.947  57.178 -57.113  1.00  0.00     0.185 C 
BRANCH  13  14
HETATM   14  C   UNL     1     -43.083  55.745 -57.612  1.00  0.00     0.227 C 
HETATM   15  N   UNL     1     -43.160  54.751 -56.669  1.00  0.00    -0.360 N 
HETATM   16  H   UNL     1     -43.215  53.816 -57.063  1.00  0.00     0.162 HD
HETATM   17  O   UNL     1     -43.157  55.436 -58.803  1.00  0.00    -0.273 OA
BRANCH  15  18
HETATM   18  C   UNL     1     -43.105  54.901 -55.222  1.00  0.00     0.127 C 
BRANCH  18  19
HETATM   19  C   UNL     1     -41.676  54.914 -54.666  1.00  0.00     0.058 C 
BRANCH  19  20
HETATM   20  C   UNL     1     -41.459  55.920 -53.558  1.00  0.00    -0.054 A 
HETATM   21  C   UNL     1     -41.601  55.557 -52.209  1.00  0.00     0.046 A 
HETATM   22  C   UNL     1     -41.416  56.496 -51.186  1.00  0.00     0.102 A 
HETATM   23  C   UNL     1     -41.046  57.815 -51.509  1.00  0.00     0.101 A 
HETATM   24  C   UNL     1     -40.878  58.171 -52.850  1.00  0.00     0.040 A 
HETATM   25  C   UNL     1     -41.084  57.232 -53.865  1.00  0.00     0.010 A 
BRANCH  22  26
HETATM   26  O   UNL     1     -41.555  56.216 -49.848  1.00  0.00    -0.353 OA
HETATM   27  C   UNL     1     -41.463  54.856 -49.449  1.00  0.00     0.210 C 
ENDBRANCH  22  26
BRANCH  23  28
HETATM   28  O   UNL     1     -40.878  58.672 -50.450  1.00  0.00    -0.353 OA
HETATM   29  C   UNL     1     -39.776  59.566 -50.494  1.00  0.00     0.210 C 
ENDBRANCH  23  28
ENDBRANCH  19  20
ENDBRANCH  18  19
ENDBRANCH  15  18
ENDBRANCH  13  14
ENDBRANCH  12  13
ENDBRANCH   2  12
BRANCH   1  30
HETATM   30  C   UNL     1     -43.781  60.841 -56.069  1.00  0.00     0.051 A 
HETATM   31  C   UNL     1     -44.820  61.602 -56.648  1.00  0.00    -0.035 A 
HETATM   32  C   UNL     1     -46.231  61.586 -56.126  1.00  0.00     0.050 C 
HETATM   33  C   UNL     1     -44.522  62.457 -57.724  1.00  0.00     0.011 A 
HETATM   34  C   UNL     1     -43.230  62.523 -58.249  1.00  0.00     0.024 A 
HETATM   35  C   UNL     1     -42.217  61.754 -57.689  1.00  0.00     0.036 A 
HETATM   36  C   UNL     1     -42.483  60.921 -56.605  1.00  0.00     0.054 A 
HETATM   37 CL   UNL     1     -40.633  61.807 -58.354  1.00  0.00    -0.084 Cl
ENDBRANCH   1  30
BRANCH   6  38
HETATM   38  N   UNL     1     -43.536  61.540 -53.276  1.00  0.00    -0.384 N 
HETATM   39  H   UNL     1     -44.173  62.320 -53.225  1.00  0.00     0.157 HD
HETATM   40  H   UNL     1     -42.564  61.695 -53.039  1.00  0.00     0.157 HD
ENDBRANCH   6  38
TORSDOF 10
ENDMDL
MODEL 10
REMARK VINA RESULT:      -7.0      3.888      9.203
REMARK  10 active torsions:
REMARK  status: ('A' for Active; 'I' for Inactive)
REMARK    1  A    between atoms: C_3  and  N_4 
REMARK    2  A    between atoms: C_5  and  S_6 
REMARK    3  A    between atoms: S_6  and  C_7 
REMARK    4  A    between atoms: C_7  and  C_8 
REMARK       I    between atoms: C_8  and  N_9 
REMARK    5  A    between atoms: N_9  and  C_10 
REMARK    6  A    between atoms: C_10  and  C_11 
REMARK    7  A    between atoms: C_11  and  C_12 
REMARK    8  A    between atoms: C_14  and  O_15 
REMARK    9  A    between atoms: C_17  and  O_18 
REMARK   10  A    between atoms: C_26  and  N_27 
ROOT
HETATM    1  N   UNL     1     -40.826  53.913 -52.457  1.00  0.00    -0.275 N 
HETATM    2  C   UNL     1     -40.701  53.834 -53.869  1.00  0.00     0.177 A 
HETATM    3  N   UNL     1     -40.259  52.803 -54.547  1.00  0.00    -0.204 NA
HETATM    4  C   UNL     1     -39.956  51.736 -53.774  1.00  0.00     0.162 A 
HETATM    5  C   UNL     1     -40.026  51.601 -52.414  1.00  0.00     0.081 A 
HETATM    6  C   UNL     1     -40.475  52.740 -51.671  1.00  0.00     0.124 A 
HETATM    7  N   UNL     1     -39.515  50.530 -54.232  1.00  0.00    -0.260 N 
HETATM    8  H   UNL     1     -39.349  50.256 -55.193  1.00  0.00     0.191 HD
HETATM    9  N   UNL     1     -39.291  49.637 -53.243  1.00  0.00    -0.177 NA
HETATM   10  C   UNL     1     -39.615  50.293 -52.116  1.00  0.00     0.068 A 
HETATM   11  C   UNL     1     -39.502  49.600 -50.812  1.00  0.00     0.073 C 
ENDROOT
BRANCH   2  12
HETATM   12  S   UNL     1     -41.105  55.245 -54.867  1.00  0.00    -0.082 SA
BRANCH  12  13
HETATM   13  C   UNL     1     -42.822  54.848 -55.292  1.00  0.00     0.185 C 
BRANCH  13  14
HETATM   14  C   UNL     1     -43.731  56.070 -55.225  1.00  0.00     0.227 C 
HETATM   15  N   UNL     1     -43.907  56.791 -56.378  1.00  0.00    -0.360 N 
HETATM   16  H   UNL     1     -44.495  57.612 -56.262  1.00  0.00     0.162 HD
HETATM   17  O   UNL     1     -44.333  56.424 -54.209  1.00  0.00    -0.273 OA
BRANCH  15  18
HETATM   18  C   UNL     1     -43.304  56.539 -57.679  1.00  0.00     0.127 C 
BRANCH  18  19
HETATM   19  C   UNL     1     -42.290  57.610 -58.097  1.00  0.00     0.058 C 
BRANCH  19  20
HETATM   20  C   UNL     1     -42.824  58.599 -59.110  1.00  0.00    -0.054 A 
HETATM   21  C   UNL     1     -42.077  59.726 -59.488  1.00  0.00     0.046 A 
HETATM   22  C   UNL     1     -42.582  60.648 -60.413  1.00  0.00     0.102 A 
HETATM   23  C   UNL     1     -43.840  60.425 -61.004  1.00  0.00     0.101 A 
HETATM   24  C   UNL     1     -44.573  59.290 -60.648  1.00  0.00     0.040 A 
HETATM   25  C   UNL     1     -44.069  58.385 -59.709  1.00  0.00     0.010 A 
BRANCH  22  26
HETATM   26  O   UNL     1     -41.915  61.780 -60.817  1.00  0.00    -0.353 OA
HETATM   27  C   UNL     1     -40.803  62.199 -60.040  1.00  0.00     0.210 C 
ENDBRANCH  22  26
BRANCH  23  28
HETATM   28  O   UNL     1     -44.261  61.371 -61.905  1.00  0.00    -0.353 OA
HETATM   29  C   UNL     1     -44.164  61.055 -63.286  1.00  0.00     0.210 C 
ENDBRANCH  23  28
ENDBRANCH  19  20
ENDBRANCH  18  19
ENDBRANCH  15  18
ENDBRANCH  13  14
ENDBRANCH  12  13
ENDBRANCH   2  12
BRANCH   1  30
HETATM   30  C   UNL     1     -41.370  55.067 -51.816  1.00  0.00     0.051 A 
HETATM   31  C   UNL     1     -42.739  55.162 -51.481  1.00  0.00    -0.035 A 
HETATM   32  C   UNL     1     -43.702  54.019 -51.655  1.00  0.00     0.050 C 
HETATM   33  C   UNL     1     -43.221  56.352 -50.908  1.00  0.00     0.011 A 
HETATM   34  C   UNL     1     -42.376  57.447 -50.713  1.00  0.00     0.024 A 
HETATM   35  C   UNL     1     -41.035  57.354 -51.067  1.00  0.00     0.036 A 
HETATM   36  C   UNL     1     -40.529  56.176 -51.609  1.00  0.00     0.054 A 
HETATM   37 CL   UNL     1     -39.999  58.711 -50.860  1.00  0.00    -0.084 Cl
ENDBRANCH   1  30
BRANCH   6  38
HETATM   38  N   UNL     1     -40.535  52.719 -50.354  1.00  0.00    -0.384 N 
HETATM   39  H   UNL     1     -40.107  53.437 -49.789  1.00  0.00     0.157 HD
HETATM   40  H   UNL     1     -41.030  51.970 -49.887  1.00  0.00     0.157 HD
ENDBRANCH   6  38
TORSDOF 10
ENDMDL
