MODEL 1
REMARK VINA RESULT:      -8.1      0.000      0.000
REMARK  5 active torsions:
REMARK  status: ('A' for Active; 'I' for Inactive)
REMARK    1  A    between atoms: C_3  and  C_4 
REMARK       I    between atoms: C_4  and  N_5 
REMARK    2  A    between atoms: N_5  and  C_6 
REMARK    3  A    between atoms: C_6  and  C_7 
REMARK    4  A    between atoms: C_10  and  O_11 
REMARK    5  A    between atoms: O_11  and  C_12 
ROOT
HETATM    1  C   UNL     1     -42.013  60.101 -55.660  1.00  0.00     0.052 C 
HETATM    2  C   UNL     1     -42.570  59.428 -56.864  1.00  0.00    -0.009 A 
HETATM    3  C   UNL     1     -43.370  58.286 -56.891  1.00  0.00     0.150 A 
HETATM    4  O   UNL     1     -43.602  57.922 -58.185  1.00  0.00    -0.304 OA
HETATM    5  C   UNL     1     -43.002  58.824 -58.992  1.00  0.00     0.088 A 
HETATM    6  C   UNL     1     -42.350  59.801 -58.246  1.00  0.00     0.020 A 
HETATM    7  C   UNL     1     -41.681  60.819 -58.975  1.00  0.00     0.011 A 
HETATM    8  C   UNL     1     -41.711  60.789 -60.383  1.00  0.00     0.081 A 
HETATM    9  O   UNL     1     -41.085  61.718 -61.169  1.00  0.00    -0.336 OA
HETATM   10  C   UNL     1     -40.638  62.943 -60.554  1.00  0.00     0.078 C 
HETATM   11  C   UNL     1     -41.653  64.033 -60.920  1.00  0.00     0.051 C 
HETATM   12  C   UNL     1     -39.284  63.262 -61.201  1.00  0.00     0.051 C 
HETATM   13  C   UNL     1     -40.475  62.882 -59.053  1.00  0.00     0.012 C 
HETATM   14  C   UNL     1     -40.959  61.886 -58.302  1.00  0.00     0.014 C 
HETATM   15  C   UNL     1     -42.370  59.773 -61.072  1.00  0.00     0.040 A 
HETATM   16  C   UNL     1     -43.040  58.764 -60.384  1.00  0.00     0.041 A 
ENDROOT
BRANCH   3  17
HETATM   17  C   UNL     1     -43.964  57.430 -55.878  1.00  0.00     0.276 C 
HETATM   18  N   UNL     1     -43.154  56.419 -55.393  1.00  0.00    -0.351 N 
HETATM   19  H   UNL     1     -42.160  56.487 -55.560  1.00  0.00     0.163 HD
HETATM   20  O   UNL     1     -45.096  57.602 -55.431  1.00  0.00    -0.265 OA
BRANCH  18  21
HETATM   21  C   UNL     1     -43.593  55.651 -54.251  1.00  0.00     0.161 C 
BRANCH  21  22
HETATM   22  C   UNL     1     -42.597  54.594 -53.852  1.00  0.00    -0.040 A 
HETATM   23  C   UNL     1     -41.922  53.849 -54.825  1.00  0.00     0.011 A 
HETATM   24  C   UNL     1     -40.939  52.928 -54.455  1.00  0.00     0.037 A 
HETATM   25  C   UNL     1     -40.603  52.743 -53.113  1.00  0.00     0.069 A 
HETATM   26  C   UNL     1     -41.294  53.459 -52.135  1.00  0.00     0.037 A 
HETATM   27  C   UNL     1     -42.277  54.385 -52.503  1.00  0.00     0.011 A 
BRANCH  25  28
HETATM   28  O   UNL     1     -39.612  51.830 -52.890  1.00  0.00    -0.347 OA
BRANCH  28  29
HETATM   29  C   UNL     1     -39.943  50.439 -52.960  1.00  0.00     0.120 C 
HETATM   30  C   UNL     1     -39.189  49.804 -54.123  1.00  0.00     0.040 C 
HETATM   31  C   UNL     1     -39.507  49.809 -51.639  1.00  0.00     0.040 C 
ENDBRANCH  28  29
ENDBRANCH  25  28
ENDBRANCH  21  22
ENDBRANCH  18  21
ENDBRANCH   3  17
TORSDOF 5
ENDMDL
MODEL 2
REMARK VINA RESULT:      -8.0      1.275      1.622
REMARK  5 active torsions:
REMARK  status: ('A' for Active; 'I' for Inactive)
REMARK    1  A    between atoms: C_3  and  C_4 
REMARK       I    between atoms: C_4  and  N_5 
REMARK    2  A    between atoms: N_5  and  C_6 
REMARK    3  A    between atoms: C_6  and  C_7 
REMARK    4  A    between atoms: C_10  and  O_11 
REMARK    5  A    between atoms: O_11  and  C_12 
ROOT
HETATM    1  C   UNL     1     -42.223  60.635 -55.670  1.00  0.00     0.052 C 
HETATM    2  C   UNL     1     -42.301  59.400 -56.496  1.00  0.00    -0.009 A 
HETATM    3  C   UNL     1     -42.456  58.093 -56.035  1.00  0.00     0.150 A 
HETATM    4  O   UNL     1     -42.390  57.228 -57.089  1.00  0.00    -0.304 OA
HETATM    5  C   UNL     1     -42.232  57.949 -58.220  1.00  0.00     0.088 A 
HETATM    6  C   UNL     1     -42.181  59.310 -57.936  1.00  0.00     0.020 A 
HETATM    7  C   UNL     1     -42.024  60.186 -59.043  1.00  0.00     0.011 A 
HETATM    8  C   UNL     1     -41.931  59.644 -60.340  1.00  0.00     0.081 A 
HETATM    9  O   UNL     1     -41.765  60.407 -61.464  1.00  0.00    -0.336 OA
HETATM   10  C   UNL     1     -42.003  61.826 -61.367  1.00  0.00     0.078 C 
HETATM   11  C   UNL     1     -43.383  62.099 -61.977  1.00  0.00     0.051 C 
HETATM   12  C   UNL     1     -40.920  62.488 -62.229  1.00  0.00     0.051 C 
HETATM   13  C   UNL     1     -41.944  62.390 -59.966  1.00  0.00     0.012 C 
HETATM   14  C   UNL     1     -41.950  61.627 -58.867  1.00  0.00     0.014 C 
HETATM   15  C   UNL     1     -41.973  58.268 -60.556  1.00  0.00     0.040 A 
HETATM   16  C   UNL     1     -42.132  57.385 -59.490  1.00  0.00     0.041 A 
ENDROOT
BRANCH   3  17
HETATM   17  C   UNL     1     -42.645  57.484 -54.730  1.00  0.00     0.276 C 
HETATM   18  N   UNL     1     -43.487  56.388 -54.692  1.00  0.00    -0.351 N 
HETATM   19  H   UNL     1     -43.705  55.927 -55.564  1.00  0.00     0.163 HD
HETATM   20  O   UNL     1     -42.067  57.872 -53.716  1.00  0.00    -0.265 OA
BRANCH  18  21
HETATM   21  C   UNL     1     -43.575  55.608 -53.479  1.00  0.00     0.161 C 
BRANCH  21  22
HETATM   22  C   UNL     1     -42.473  54.589 -53.370  1.00  0.00    -0.040 A 
HETATM   23  C   UNL     1     -41.875  54.315 -52.135  1.00  0.00     0.011 A 
HETATM   24  C   UNL     1     -40.911  53.310 -52.023  1.00  0.00     0.037 A 
HETATM   25  C   UNL     1     -40.535  52.554 -53.134  1.00  0.00     0.069 A 
HETATM   26  C   UNL     1     -41.101  52.843 -54.375  1.00  0.00     0.037 A 
HETATM   27  C   UNL     1     -42.071  53.847 -54.490  1.00  0.00     0.011 A 
BRANCH  25  28
HETATM   28  O   UNL     1     -39.599  51.591 -52.883  1.00  0.00    -0.347 OA
BRANCH  28  29
HETATM   29  C   UNL     1     -39.955  50.224 -53.115  1.00  0.00     0.120 C 
HETATM   30  C   UNL     1     -39.201  49.712 -54.336  1.00  0.00     0.040 C 
HETATM   31  C   UNL     1     -39.543  49.438 -51.871  1.00  0.00     0.040 C 
ENDBRANCH  28  29
ENDBRANCH  25  28
ENDBRANCH  21  22
ENDBRANCH  18  21
ENDBRANCH   3  17
TORSDOF 5
ENDMDL
MODEL 3
REMARK VINA RESULT:      -8.0      1.228      2.377
REMARK  5 active torsions:
REMARK  status: ('A' for Active; 'I' for Inactive)
REMARK    1  A    between atoms: C_3  and  C_4 
REMARK       I    between atoms: C_4  and  N_5 
REMARK    2  A    between atoms: N_5  and  C_6 
REMARK    3  A    between atoms: C_6  and  C_7 
REMARK    4  A    between atoms: C_10  and  O_11 
REMARK    5  A    between atoms: O_11  and  C_12 
ROOT
HETATM    1  C   UNL     1     -42.928  57.481 -60.352  1.00  0.00     0.052 C 
HETATM    2  C   UNL     1     -42.589  58.285 -59.148  1.00  0.00    -0.009 A 
HETATM    3  C   UNL     1     -42.656  57.871 -57.817  1.00  0.00     0.150 A 
HETATM    4  O   UNL     1     -42.356  58.920 -56.998  1.00  0.00    -0.304 OA
HETATM    5  C   UNL     1     -42.062  59.990 -57.769  1.00  0.00     0.088 A 
HETATM    6  C   UNL     1     -42.172  59.671 -59.120  1.00  0.00     0.020 A 
HETATM    7  C   UNL     1     -41.882  60.710 -60.044  1.00  0.00     0.011 A 
HETATM    8  C   UNL     1     -41.507  61.977 -59.558  1.00  0.00     0.081 A 
HETATM    9  O   UNL     1     -41.223  63.041 -60.372  1.00  0.00    -0.336 OA
HETATM   10  C   UNL     1     -40.993  62.787 -61.772  1.00  0.00     0.078 C 
HETATM   11  C   UNL     1     -39.478  62.832 -62.001  1.00  0.00     0.051 C 
HETATM   12  C   UNL     1     -41.661  63.949 -62.519  1.00  0.00     0.051 C 
HETATM   13  C   UNL     1     -41.548  61.477 -62.284  1.00  0.00     0.012 C 
HETATM   14  C   UNL     1     -41.971  60.496 -61.479  1.00  0.00     0.014 C 
HETATM   15  C   UNL     1     -41.431  62.237 -58.191  1.00  0.00     0.040 A 
HETATM   16  C   UNL     1     -41.704  61.236 -57.261  1.00  0.00     0.041 A 
ENDROOT
BRANCH   3  17
HETATM   17  C   UNL     1     -42.980  56.622 -57.151  1.00  0.00     0.276 C 
HETATM   18  N   UNL     1     -42.952  56.651 -55.768  1.00  0.00    -0.351 N 
HETATM   19  H   UNL     1     -42.968  57.553 -55.313  1.00  0.00     0.163 HD
HETATM   20  O   UNL     1     -43.310  55.603 -57.754  1.00  0.00    -0.265 OA
BRANCH  18  21
HETATM   21  C   UNL     1     -43.450  55.516 -55.028  1.00  0.00     0.161 C 
BRANCH  21  22
HETATM   22  C   UNL     1     -42.343  54.649 -54.491  1.00  0.00    -0.040 A 
HETATM   23  C   UNL     1     -42.434  54.089 -53.212  1.00  0.00     0.011 A 
HETATM   24  C   UNL     1     -41.444  53.218 -52.749  1.00  0.00     0.037 A 
HETATM   25  C   UNL     1     -40.355  52.881 -53.555  1.00  0.00     0.069 A 
HETATM   26  C   UNL     1     -40.241  53.461 -54.818  1.00  0.00     0.037 A 
HETATM   27  C   UNL     1     -41.233  54.331 -55.286  1.00  0.00     0.011 A 
BRANCH  25  28
HETATM   28  O   UNL     1     -39.473  52.005 -52.990  1.00  0.00    -0.347 OA
BRANCH  28  29
HETATM   29  C   UNL     1     -39.872  50.637 -52.851  1.00  0.00     0.120 C 
HETATM   30  C   UNL     1     -39.357  49.842 -54.046  1.00  0.00     0.040 C 
HETATM   31  C   UNL     1     -39.243  50.117 -51.560  1.00  0.00     0.040 C 
ENDBRANCH  28  29
ENDBRANCH  25  28
ENDBRANCH  21  22
ENDBRANCH  18  21
ENDBRANCH   3  17
TORSDOF 5
ENDMDL
MODEL 4
REMARK VINA RESULT:      -7.8      1.659     10.252
REMARK  5 active torsions:
REMARK  status: ('A' for Active; 'I' for Inactive)
REMARK    1  A    between atoms: C_3  and  C_4 
REMARK       I    between atoms: C_4  and  N_5 
REMARK    2  A    between atoms: N_5  and  C_6 
REMARK    3  A    between atoms: C_6  and  C_7 
REMARK    4  A    between atoms: C_10  and  O_11 
REMARK    5  A    between atoms: O_11  and  C_12 
ROOT
HETATM    1  C   UNL     1     -43.901  56.745 -53.581  1.00  0.00     0.052 C 
HETATM    2  C   UNL     1     -42.878  56.009 -54.372  1.00  0.00    -0.009 A 
HETATM    3  C   UNL     1     -42.666  56.089 -55.748  1.00  0.00     0.150 A 
HETATM    4  O   UNL     1     -41.702  55.196 -56.113  1.00  0.00    -0.304 OA
HETATM    5  C   UNL     1     -41.261  54.570 -55.000  1.00  0.00     0.088 A 
HETATM    6  C   UNL     1     -41.935  55.030 -53.873  1.00  0.00     0.020 A 
HETATM    7  C   UNL     1     -41.562  54.456 -52.629  1.00  0.00     0.011 A 
HETATM    8  C   UNL     1     -40.553  53.475 -52.601  1.00  0.00     0.081 A 
HETATM    9  O   UNL     1     -40.137  52.856 -51.452  1.00  0.00    -0.336 OA
HETATM   10  C   UNL     1     -40.514  53.438 -50.188  1.00  0.00     0.078 C 
HETATM   11  C   UNL     1     -39.291  54.188 -49.649  1.00  0.00     0.051 C 
HETATM   12  C   UNL     1     -40.840  52.255 -49.267  1.00  0.00     0.051 C 
HETATM   13  C   UNL     1     -41.701  54.372 -50.244  1.00  0.00     0.012 C 
HETATM   14  C   UNL     1     -42.203  54.853 -51.386  1.00  0.00     0.014 C 
HETATM   15  C   UNL     1     -39.927  53.044 -53.768  1.00  0.00     0.040 A 
HETATM   16  C   UNL     1     -40.268  53.593 -55.003  1.00  0.00     0.041 A 
ENDROOT
BRANCH   3  17
HETATM   17  C   UNL     1     -43.243  56.872 -56.828  1.00  0.00     0.276 C 
HETATM   18  N   UNL     1     -42.443  57.041 -57.943  1.00  0.00    -0.351 N 
HETATM   19  H   UNL     1     -41.650  56.425 -58.056  1.00  0.00     0.163 HD
HETATM   20  O   UNL     1     -44.386  57.324 -56.795  1.00  0.00    -0.265 OA
BRANCH  18  21
HETATM   21  C   UNL     1     -43.009  57.633 -59.133  1.00  0.00     0.161 C 
BRANCH  21  22
HETATM   22  C   UNL     1     -42.379  58.959 -59.469  1.00  0.00    -0.040 A 
HETATM   23  C   UNL     1     -42.310  59.398 -60.796  1.00  0.00     0.011 A 
HETATM   24  C   UNL     1     -41.801  60.665 -61.097  1.00  0.00     0.037 A 
HETATM   25  C   UNL     1     -41.365  61.518 -60.082  1.00  0.00     0.069 A 
HETATM   26  C   UNL     1     -41.401  61.075 -58.760  1.00  0.00     0.037 A 
HETATM   27  C   UNL     1     -41.913  59.808 -58.455  1.00  0.00     0.011 A 
BRANCH  25  28
HETATM   28  O   UNL     1     -40.912  62.733 -60.510  1.00  0.00    -0.347 OA
BRANCH  28  29
HETATM   29  C   UNL     1     -40.601  62.890 -61.899  1.00  0.00     0.120 C 
HETATM   30  C   UNL     1     -41.445  64.020 -62.476  1.00  0.00     0.040 C 
HETATM   31  C   UNL     1     -39.117  63.240 -61.987  1.00  0.00     0.040 C 
ENDBRANCH  28  29
ENDBRANCH  25  28
ENDBRANCH  21  22
ENDBRANCH  18  21
ENDBRANCH   3  17
TORSDOF 5
ENDMDL
MODEL 5
REMARK VINA RESULT:      -7.8      6.071     10.639
REMARK  5 active torsions:
REMARK  status: ('A' for Active; 'I' for Inactive)
REMARK    1  A    between atoms: C_3  and  C_4 
REMARK       I    between atoms: C_4  and  N_5 
REMARK    2  A    between atoms: N_5  and  C_6 
REMARK    3  A    between atoms: C_6  and  C_7 
REMARK    4  A    between atoms: C_10  and  O_11 
REMARK    5  A    between atoms: O_11  and  C_12 
ROOT
HETATM    1  C   UNL     1     -43.604  55.266 -54.133  1.00  0.00     0.052 C 
HETATM    2  C   UNL     1     -42.972  55.336 -52.788  1.00  0.00    -0.009 A 
HETATM    3  C   UNL     1     -43.272  56.239 -51.767  1.00  0.00     0.150 A 
HETATM    4  O   UNL     1     -42.416  56.046 -50.722  1.00  0.00    -0.304 OA
HETATM    5  C   UNL     1     -41.597  55.017 -51.030  1.00  0.00     0.088 A 
HETATM    6  C   UNL     1     -41.889  54.513 -52.294  1.00  0.00     0.020 A 
HETATM    7  C   UNL     1     -41.101  53.418 -52.740  1.00  0.00     0.011 A 
HETATM    8  C   UNL     1     -40.091  52.911 -51.900  1.00  0.00     0.081 A 
HETATM    9  O   UNL     1     -39.275  51.869 -52.250  1.00  0.00    -0.336 OA
HETATM   10  C   UNL     1     -39.652  51.055 -53.378  1.00  0.00     0.078 C 
HETATM   11  C   UNL     1     -40.255  49.759 -52.824  1.00  0.00     0.051 C 
HETATM   12  C   UNL     1     -38.345  50.740 -54.118  1.00  0.00     0.051 C 
HETATM   13  C   UNL     1     -40.626  51.702 -54.336  1.00  0.00     0.012 C 
HETATM   14  C   UNL     1     -41.310  52.815 -54.046  1.00  0.00     0.014 C 
HETATM   15  C   UNL     1     -39.838  53.472 -50.650  1.00  0.00     0.040 A 
HETATM   16  C   UNL     1     -40.597  54.543 -50.184  1.00  0.00     0.041 A 
ENDROOT
BRANCH   3  17
HETATM   17  C   UNL     1     -44.245  57.305 -51.598  1.00  0.00     0.276 C 
HETATM   18  N   UNL     1     -43.980  58.476 -52.284  1.00  0.00    -0.351 N 
HETATM   19  H   UNL     1     -43.306  58.444 -53.035  1.00  0.00     0.163 HD
HETATM   20  O   UNL     1     -45.270  57.180 -50.932  1.00  0.00    -0.265 OA
BRANCH  18  21
HETATM   21  C   UNL     1     -44.989  59.510 -52.329  1.00  0.00     0.161 C 
BRANCH  21  22
HETATM   22  C   UNL     1     -44.960  60.395 -51.112  1.00  0.00    -0.040 A 
HETATM   23  C   UNL     1     -43.751  60.678 -50.466  1.00  0.00     0.011 A 
HETATM   24  C   UNL     1     -43.716  61.566 -49.387  1.00  0.00     0.037 A 
HETATM   25  C   UNL     1     -44.880  62.194 -48.943  1.00  0.00     0.069 A 
HETATM   26  C   UNL     1     -46.094  61.893 -49.560  1.00  0.00     0.037 A 
HETATM   27  C   UNL     1     -46.131  61.006 -50.643  1.00  0.00     0.011 A 
BRANCH  25  28
HETATM   28  O   UNL     1     -44.703  63.054 -47.896  1.00  0.00    -0.347 OA
BRANCH  28  29
HETATM   29  C   UNL     1     -45.433  62.810 -46.688  1.00  0.00     0.120 C 
HETATM   30  C   UNL     1     -44.986  61.479 -46.094  1.00  0.00     0.040 C 
HETATM   31  C   UNL     1     -45.105  63.954 -45.730  1.00  0.00     0.040 C 
ENDBRANCH  28  29
ENDBRANCH  25  28
ENDBRANCH  21  22
ENDBRANCH  18  21
ENDBRANCH   3  17
TORSDOF 5
ENDMDL
MODEL 6
REMARK VINA RESULT:      -7.8      7.643     11.125
REMARK  5 active torsions:
REMARK  status: ('A' for Active; 'I' for Inactive)
REMARK    1  A    between atoms: C_3  and  C_4 
REMARK       I    between atoms: C_4  and  N_5 
REMARK    2  A    between atoms: N_5  and  C_6 
REMARK    3  A    between atoms: C_6  and  C_7 
REMARK    4  A    between atoms: C_10  and  O_11 
REMARK    5  A    between atoms: O_11  and  C_12 
ROOT
HETATM    1  C   UNL     1     -45.480  58.342 -50.876  1.00  0.00     0.052 C 
HETATM    2  C   UNL     1     -44.217  58.973 -51.346  1.00  0.00    -0.009 A 
HETATM    3  C   UNL     1     -43.900  60.331 -51.325  1.00  0.00     0.150 A 
HETATM    4  O   UNL     1     -42.691  60.526 -51.926  1.00  0.00    -0.304 OA
HETATM    5  C   UNL     1     -42.205  59.322 -52.300  1.00  0.00     0.088 A 
HETATM    6  C   UNL     1     -43.091  58.303 -51.962  1.00  0.00     0.020 A 
HETATM    7  C   UNL     1     -42.696  56.980 -52.295  1.00  0.00     0.011 A 
HETATM    8  C   UNL     1     -41.458  56.773 -52.934  1.00  0.00     0.081 A 
HETATM    9  O   UNL     1     -41.001  55.537 -53.305  1.00  0.00    -0.336 OA
HETATM   10  C   UNL     1     -41.652  54.375 -52.753  1.00  0.00     0.078 C 
HETATM   11  C   UNL     1     -40.751  53.835 -51.637  1.00  0.00     0.051 C 
HETATM   12  C   UNL     1     -41.720  53.355 -53.897  1.00  0.00     0.051 C 
HETATM   13  C   UNL     1     -43.043  54.617 -52.214  1.00  0.00     0.012 C 
HETATM   14  C   UNL     1     -43.544  55.838 -51.998  1.00  0.00     0.014 C 
HETATM   15  C   UNL     1     -40.623  57.839 -53.261  1.00  0.00     0.040 A 
HETATM   16  C   UNL     1     -40.981  59.147 -52.941  1.00  0.00     0.041 A 
ENDROOT
BRANCH   3  17
HETATM   17  C   UNL     1     -44.564  61.528 -50.838  1.00  0.00     0.276 C 
HETATM   18  N   UNL     1     -43.944  62.175 -49.785  1.00  0.00    -0.351 N 
HETATM   19  H   UNL     1     -42.979  61.949 -49.592  1.00  0.00     0.163 HD
HETATM   20  O   UNL     1     -45.586  61.984 -51.346  1.00  0.00    -0.265 OA
BRANCH  18  21
HETATM   21  C   UNL     1     -44.426  63.473 -49.372  1.00  0.00     0.161 C 
BRANCH  21  22
HETATM   22  C   UNL     1     -44.695  63.542 -47.892  1.00  0.00    -0.040 A 
HETATM   23  C   UNL     1     -45.081  62.398 -47.185  1.00  0.00     0.011 A 
HETATM   24  C   UNL     1     -45.250  62.447 -45.798  1.00  0.00     0.037 A 
HETATM   25  C   UNL     1     -45.025  63.630 -45.094  1.00  0.00     0.069 A 
HETATM   26  C   UNL     1     -44.672  64.782 -45.795  1.00  0.00     0.037 A 
HETATM   27  C   UNL     1     -44.499  64.736 -47.184  1.00  0.00     0.011 A 
BRANCH  25  28
HETATM   28  O   UNL     1     -45.203  63.536 -43.743  1.00  0.00    -0.347 OA
BRANCH  28  29
HETATM   29  C   UNL     1     -44.181  64.056 -42.886  1.00  0.00     0.120 C 
HETATM   30  C   UNL     1     -44.796  64.419 -41.539  1.00  0.00     0.040 C 
HETATM   31  C   UNL     1     -43.139  62.954 -42.712  1.00  0.00     0.040 C 
ENDBRANCH  28  29
ENDBRANCH  25  28
ENDBRANCH  21  22
ENDBRANCH  18  21
ENDBRANCH   3  17
TORSDOF 5
ENDMDL
MODEL 7
REMARK VINA RESULT:      -7.7      3.206      4.355
REMARK  5 active torsions:
REMARK  status: ('A' for Active; 'I' for Inactive)
REMARK    1  A    between atoms: C_3  and  C_4 
REMARK       I    between atoms: C_4  and  N_5 
REMARK    2  A    between atoms: N_5  and  C_6 
REMARK    3  A    between atoms: C_6  and  C_7 
REMARK    4  A    between atoms: C_10  and  O_11 
REMARK    5  A    between atoms: O_11  and  C_12 
ROOT
HETATM    1  C   UNL     1     -45.437  58.269 -54.684  1.00  0.00     0.052 C 
HETATM    2  C   UNL     1     -44.246  57.966 -55.522  1.00  0.00    -0.009 A 
HETATM    3  C   UNL     1     -42.945  57.734 -55.075  1.00  0.00     0.150 A 
HETATM    4  O   UNL     1     -42.115  57.584 -56.148  1.00  0.00    -0.304 OA
HETATM    5  C   UNL     1     -42.857  57.676 -57.273  1.00  0.00     0.088 A 
HETATM    6  C   UNL     1     -44.196  57.901 -56.967  1.00  0.00     0.020 A 
HETATM    7  C   UNL     1     -45.090  58.012 -58.065  1.00  0.00     0.011 A 
HETATM    8  C   UNL     1     -44.587  57.891 -59.375  1.00  0.00     0.081 A 
HETATM    9  O   UNL     1     -45.369  57.998 -60.494  1.00  0.00    -0.336 OA
HETATM   10  C   UNL     1     -46.800  57.920 -60.336  1.00  0.00     0.078 C 
HETATM   11  C   UNL     1     -47.230  56.512 -60.764  1.00  0.00     0.051 C 
HETATM   12  C   UNL     1     -47.382  58.953 -61.309  1.00  0.00     0.051 C 
HETATM   13  C   UNL     1     -47.306  58.206 -58.940  1.00  0.00     0.012 C 
HETATM   14  C   UNL     1     -46.509  58.254 -57.867  1.00  0.00     0.014 C 
HETATM   15  C   UNL     1     -43.231  57.683 -59.615  1.00  0.00     0.040 A 
HETATM   16  C   UNL     1     -42.331  57.564 -58.558  1.00  0.00     0.041 A 
ENDROOT
BRANCH   3  17
HETATM   17  C   UNL     1     -42.313  57.643 -53.770  1.00  0.00     0.276 C 
HETATM   18  N   UNL     1     -42.820  56.676 -52.921  1.00  0.00    -0.351 N 
HETATM   19  H   UNL     1     -43.391  55.945 -53.322  1.00  0.00     0.163 HD
HETATM   20  O   UNL     1     -41.355  58.337 -53.436  1.00  0.00    -0.265 OA
BRANCH  18  21
HETATM   21  C   UNL     1     -42.126  56.386 -51.688  1.00  0.00     0.161 C 
BRANCH  21  22
HETATM   22  C   UNL     1     -41.285  55.140 -51.781  1.00  0.00    -0.040 A 
HETATM   23  C   UNL     1     -40.574  54.676 -50.669  1.00  0.00     0.011 A 
HETATM   24  C   UNL     1     -39.861  53.476 -50.735  1.00  0.00     0.037 A 
HETATM   25  C   UNL     1     -39.855  52.714 -51.904  1.00  0.00     0.069 A 
HETATM   26  C   UNL     1     -40.534  53.185 -53.027  1.00  0.00     0.037 A 
HETATM   27  C   UNL     1     -41.251  54.386 -52.963  1.00  0.00     0.011 A 
BRANCH  25  28
HETATM   28  O   UNL     1     -39.138  51.553 -51.827  1.00  0.00    -0.347 OA
BRANCH  28  29
HETATM   29  C   UNL     1     -39.847  50.312 -51.911  1.00  0.00     0.120 C 
HETATM   30  C   UNL     1     -39.435  49.586 -53.186  1.00  0.00     0.040 C 
HETATM   31  C   UNL     1     -39.455  49.490 -50.684  1.00  0.00     0.040 C 
ENDBRANCH  28  29
ENDBRANCH  25  28
ENDBRANCH  21  22
ENDBRANCH  18  21
ENDBRANCH   3  17
TORSDOF 5
ENDMDL
MODEL 8
REMARK VINA RESULT:      -7.7      5.138      7.651
REMARK  5 active torsions:
REMARK  status: ('A' for Active; 'I' for Inactive)
REMARK    1  A    between atoms: C_3  and  C_4 
REMARK       I    between atoms: C_4  and  N_5 
REMARK    2  A    between atoms: N_5  and  C_6 
REMARK    3  A    between atoms: C_6  and  C_7 
REMARK    4  A    between atoms: C_10  and  O_11 
REMARK    5  A    between atoms: O_11  and  C_12 
ROOT
HETATM    1  C   UNL     1     -41.560  59.843 -50.383  1.00  0.00     0.052 C 
HETATM    2  C   UNL     1     -42.766  59.768 -51.252  1.00  0.00    -0.009 A 
HETATM    3  C   UNL     1     -42.864  59.145 -52.496  1.00  0.00     0.150 A 
HETATM    4  O   UNL     1     -44.102  59.372 -53.023  1.00  0.00    -0.304 OA
HETATM    5  C   UNL     1     -44.815  60.095 -52.132  1.00  0.00     0.088 A 
HETATM    6  C   UNL     1     -44.057  60.370 -50.998  1.00  0.00     0.020 A 
HETATM    7  C   UNL     1     -44.693  61.122 -49.974  1.00  0.00     0.011 A 
HETATM    8  C   UNL     1     -46.026  61.538 -50.156  1.00  0.00     0.081 A 
HETATM    9  O   UNL     1     -46.716  62.277 -49.232  1.00  0.00    -0.336 OA
HETATM   10  C   UNL     1     -46.180  62.373 -47.897  1.00  0.00     0.078 C 
HETATM   11  C   UNL     1     -46.985  61.415 -47.012  1.00  0.00     0.051 C 
HETATM   12  C   UNL     1     -46.433  63.819 -47.452  1.00  0.00     0.051 C 
HETATM   13  C   UNL     1     -44.705  62.062 -47.776  1.00  0.00     0.012 C 
HETATM   14  C   UNL     1     -43.998  61.477 -48.749  1.00  0.00     0.014 C 
HETATM   15  C   UNL     1     -46.726  61.244 -51.324  1.00  0.00     0.040 A 
HETATM   16  C   UNL     1     -46.130  60.503 -52.343  1.00  0.00     0.041 A 
ENDROOT
BRANCH   3  17
HETATM   17  C   UNL     1     -41.962  58.358 -53.320  1.00  0.00     0.276 C 
HETATM   18  N   UNL     1     -42.477  57.176 -53.819  1.00  0.00    -0.351 N 
HETATM   19  H   UNL     1     -43.480  57.055 -53.809  1.00  0.00     0.163 HD
HETATM   20  O   UNL     1     -40.823  58.722 -53.608  1.00  0.00    -0.265 OA
BRANCH  18  21
HETATM   21  C   UNL     1     -41.721  56.436 -54.802  1.00  0.00     0.161 C 
BRANCH  21  22
HETATM   22  C   UNL     1     -41.193  55.134 -54.259  1.00  0.00    -0.040 A 
HETATM   23  C   UNL     1     -40.417  54.290 -55.062  1.00  0.00     0.011 A 
HETATM   24  C   UNL     1     -39.861  53.124 -54.531  1.00  0.00     0.037 A 
HETATM   25  C   UNL     1     -40.056  52.785 -53.191  1.00  0.00     0.069 A 
HETATM   26  C   UNL     1     -40.856  53.604 -52.393  1.00  0.00     0.037 A 
HETATM   27  C   UNL     1     -41.412  54.775 -52.921  1.00  0.00     0.011 A 
BRANCH  25  28
HETATM   28  O   UNL     1     -39.440  51.633 -52.795  1.00  0.00    -0.347 OA
BRANCH  28  29
HETATM   29  C   UNL     1     -40.088  50.387 -53.074  1.00  0.00     0.120 C 
HETATM   30  C   UNL     1     -39.485  49.782 -54.337  1.00  0.00     0.040 C 
HETATM   31  C   UNL     1     -39.833  49.473 -51.877  1.00  0.00     0.040 C 
ENDBRANCH  28  29
ENDBRANCH  25  28
ENDBRANCH  21  22
ENDBRANCH  18  21
ENDBRANCH   3  17
TORSDOF 5
ENDMDL
MODEL 9
REMARK VINA RESULT:      -7.7      2.144      3.519
REMARK  5 active torsions:
REMARK  status: ('A' for Active; 'I' for Inactive)
REMARK    1  A    between atoms: C_3  and  C_4 
REMARK       I    between atoms: C_4  and  N_5 
REMARK    2  A    between atoms: N_5  and  C_6 
REMARK    3  A    between atoms: C_6  and  C_7 
REMARK    4  A    between atoms: C_10  and  O_11 
REMARK    5  A    between atoms: O_11  and  C_12 
ROOT
HETATM    1  C   UNL     1     -41.965  56.499 -55.514  1.00  0.00     0.052 C 
HETATM    2  C   UNL     1     -42.142  57.927 -55.135  1.00  0.00    -0.009 A 
HETATM    3  C   UNL     1     -42.026  58.475 -53.858  1.00  0.00     0.150 A 
HETATM    4  O   UNL     1     -42.353  59.800 -53.900  1.00  0.00    -0.304 OA
HETATM    5  C   UNL     1     -42.639  60.125 -55.179  1.00  0.00     0.088 A 
HETATM    6  C   UNL     1     -42.518  59.016 -56.011  1.00  0.00     0.020 A 
HETATM    7  C   UNL     1     -42.787  59.223 -57.391  1.00  0.00     0.011 A 
HETATM    8  C   UNL     1     -43.152  60.509 -57.834  1.00  0.00     0.081 A 
HETATM    9  O   UNL     1     -43.443  60.800 -59.140  1.00  0.00    -0.336 OA
HETATM   10  C   UNL     1     -43.066  59.845 -60.152  1.00  0.00     0.078 C 
HETATM   11  C   UNL     1     -41.795  60.374 -60.826  1.00  0.00     0.051 C 
HETATM   12  C   UNL     1     -44.219  59.837 -61.164  1.00  0.00     0.051 C 
HETATM   13  C   UNL     1     -42.830  58.440 -59.649  1.00  0.00     0.012 C 
HETATM   14  C   UNL     1     -42.701  58.137 -58.352  1.00  0.00     0.014 C 
HETATM   15  C   UNL     1     -43.272  61.576 -56.946  1.00  0.00     0.040 A 
HETATM   16  C   UNL     1     -43.009  61.404 -55.588  1.00  0.00     0.041 A 
ENDROOT
BRANCH   3  17
HETATM   17  C   UNL     1     -41.668  57.954 -52.550  1.00  0.00     0.276 C 
HETATM   18  N   UNL     1     -42.537  57.022 -52.014  1.00  0.00    -0.351 N 
HETATM   19  H   UNL     1     -43.197  56.576 -52.636  1.00  0.00     0.163 HD
HETATM   20  O   UNL     1     -40.637  58.270 -51.959  1.00  0.00    -0.265 OA
BRANCH  18  21
HETATM   21  C   UNL     1     -42.157  56.311 -50.815  1.00  0.00     0.161 C 
BRANCH  21  22
HETATM   22  C   UNL     1     -41.404  55.042 -51.114  1.00  0.00    -0.040 A 
HETATM   23  C   UNL     1     -41.596  54.368 -52.325  1.00  0.00     0.011 A 
HETATM   24  C   UNL     1     -40.836  53.237 -52.635  1.00  0.00     0.037 A 
HETATM   25  C   UNL     1     -39.864  52.767 -51.751  1.00  0.00     0.069 A 
HETATM   26  C   UNL     1     -39.688  53.414 -50.528  1.00  0.00     0.037 A 
HETATM   27  C   UNL     1     -40.446  54.549 -50.216  1.00  0.00     0.011 A 
BRANCH  25  28
HETATM   28  O   UNL     1     -39.177  51.669 -52.184  1.00  0.00    -0.347 OA
BRANCH  28  29
HETATM   29  C   UNL     1     -39.914  50.470 -52.449  1.00  0.00     0.120 C 
HETATM   30  C   UNL     1     -39.512  49.928 -53.816  1.00  0.00     0.040 C 
HETATM   31  C   UNL     1     -39.547  49.470 -51.354  1.00  0.00     0.040 C 
ENDBRANCH  28  29
ENDBRANCH  25  28
ENDBRANCH  21  22
ENDBRANCH  18  21
ENDBRANCH   3  17
TORSDOF 5
ENDMDL
MODEL 10
REMARK VINA RESULT:      -7.6      3.455      9.713
REMARK  5 active torsions:
REMARK  status: ('A' for Active; 'I' for Inactive)
REMARK    1  A    between atoms: C_3  and  C_4 
REMARK       I    between atoms: C_4  and  N_5 
REMARK    2  A    between atoms: N_5  and  C_6 
REMARK    3  A    between atoms: C_6  and  C_7 
REMARK    4  A    between atoms: C_10  and  O_11 
REMARK    5  A    between atoms: O_11  and  C_12 
ROOT
HETATM    1  C   UNL     1     -41.905  58.684 -54.250  1.00  0.00     0.052 C 
HETATM    2  C   UNL     1     -41.930  57.296 -54.786  1.00  0.00    -0.009 A 
HETATM    3  C   UNL     1     -42.162  56.913 -56.107  1.00  0.00     0.150 A 
HETATM    4  O   UNL     1     -42.198  55.551 -56.186  1.00  0.00    -0.304 OA
HETATM    5  C   UNL     1     -41.957  55.049 -54.956  1.00  0.00     0.088 A 
HETATM    6  C   UNL     1     -41.767  56.072 -54.032  1.00  0.00     0.020 A 
HETATM    7  C   UNL     1     -41.498  55.679 -52.694  1.00  0.00     0.011 A 
HETATM    8  C   UNL     1     -41.438  54.307 -52.379  1.00  0.00     0.081 A 
HETATM    9  O   UNL     1     -41.198  53.835 -51.117  1.00  0.00    -0.336 OA
HETATM   10  C   UNL     1     -40.681  54.752 -50.132  1.00  0.00     0.078 C 
HETATM   11  C   UNL     1     -39.180  54.474 -49.994  1.00  0.00     0.051 C 
HETATM   12  C   UNL     1     -41.393  54.395 -48.820  1.00  0.00     0.051 C 
HETATM   13  C   UNL     1     -40.903  56.214 -50.441  1.00  0.00     0.012 C 
HETATM   14  C   UNL     1     -41.290  56.660 -51.641  1.00  0.00     0.014 C 
HETATM   15  C   UNL     1     -41.654  53.331 -53.349  1.00  0.00     0.040 A 
HETATM   16  C   UNL     1     -41.915  53.686 -54.671  1.00  0.00     0.041 A 
ENDROOT
BRANCH   3  17
HETATM   17  C   UNL     1     -42.383  57.624 -57.354  1.00  0.00     0.276 C 
HETATM   18  N   UNL     1     -42.259  56.871 -58.508  1.00  0.00    -0.351 N 
HETATM   19  H   UNL     1     -42.284  55.865 -58.422  1.00  0.00     0.163 HD
HETATM   20  O   UNL     1     -42.708  58.809 -57.406  1.00  0.00    -0.265 OA
BRANCH  18  21
HETATM   21  C   UNL     1     -42.654  57.447 -59.772  1.00  0.00     0.161 C 
BRANCH  21  22
HETATM   22  C   UNL     1     -44.088  57.148 -60.118  1.00  0.00    -0.040 A 
HETATM   23  C   UNL     1     -45.069  58.140 -60.009  1.00  0.00     0.011 A 
HETATM   24  C   UNL     1     -46.383  57.882 -60.409  1.00  0.00     0.037 A 
HETATM   25  C   UNL     1     -46.738  56.639 -60.935  1.00  0.00     0.069 A 
HETATM   26  C   UNL     1     -45.775  55.635 -61.015  1.00  0.00     0.037 A 
HETATM   27  C   UNL     1     -44.456  55.891 -60.619  1.00  0.00     0.011 A 
BRANCH  25  28
HETATM   28  O   UNL     1     -48.048  56.528 -61.306  1.00  0.00    -0.347 OA
BRANCH  28  29
HETATM   29  C   UNL     1     -48.527  57.366 -62.363  1.00  0.00     0.120 C 
HETATM   30  C   UNL     1     -48.334  56.650 -63.695  1.00  0.00     0.040 C 
HETATM   31  C   UNL     1     -50.012  57.609 -62.103  1.00  0.00     0.040 C 
ENDBRANCH  28  29
ENDBRANCH  25  28
ENDBRANCH  21  22
ENDBRANCH  18  21
ENDBRANCH   3  17
TORSDOF 5
ENDMDL
