MODEL 1
REMARK VINA RESULT:      -7.6      0.000      0.000
REMARK  7 active torsions:
REMARK  status: ('A' for Active; 'I' for Inactive)
REMARK       I    between atoms: C_2  and  N_3 
REMARK    1  A    between atoms: N_3  and  C_4 
REMARK    2  A    between atoms: N_9  and  C_10 
REMARK    3  A    between atoms: C_10  and  C_11 
REMARK    4  A    between atoms: C_11  and  C_12 
REMARK    5  A    between atoms: C_12  and  O_13 
REMARK    6  A    between atoms: O_13  and  C_14 
REMARK    7  A    between atoms: C_17  and  C_18 
REMARK       I    between atoms: N_30  and  C_31 
ROOT
HETATM    1  C   UNL     1     -43.021  60.447 -53.330  1.00  0.00     0.191 C 
HETATM    2  S   UNL     1     -41.920  59.154 -53.675  1.00  0.00    -0.042 SA
HETATM    3  C   UNL     1     -43.016  58.043 -52.703  1.00  0.00     0.224 A 
HETATM    4  C   UNL     1     -43.796  57.153 -53.712  1.00  0.00     0.271 A 
HETATM    5  O   UNL     1     -44.623  57.554 -54.521  1.00  0.00    -0.269 OA
HETATM    6  N   UNL     1     -43.344  55.832 -53.527  1.00  0.00    -0.314 N 
HETATM    7  C   UNL     1     -42.454  55.768 -52.435  1.00  0.00     0.047 A 
HETATM    8  C   UNL     1     -42.235  57.046 -51.904  1.00  0.00     0.019 A 
HETATM    9  C   UNL     1     -41.851  54.651 -51.885  1.00  0.00     0.030 A 
HETATM   10  C   UNL     1     -41.012  54.832 -50.781  1.00  0.00     0.002 A 
HETATM   11  C   UNL     1     -40.792  56.112 -50.247  1.00  0.00     0.001 A 
HETATM   12  C   UNL     1     -41.405  57.234 -50.808  1.00  0.00     0.013 A 
HETATM   13  N   UNL     1     -43.920  58.949 -52.000  1.00  0.00    -0.201 N 
HETATM   14  C   UNL     1     -44.889  58.484 -51.127  1.00  0.00     0.238 C 
HETATM   15  C   UNL     1     -45.814  59.533 -50.562  1.00  0.00     0.119 C 
HETATM   16  O   UNL     1     -45.017  57.297 -50.825  1.00  0.00    -0.272 OA
HETATM   17  N   UNL     1     -43.948  60.258 -52.453  1.00  0.00    -0.141 NA
ENDROOT
BRANCH   6  18
HETATM   18  C   UNL     1     -43.830  54.640 -54.208  1.00  0.00     0.134 C 
BRANCH  18  19
HETATM   19  C   UNL     1     -42.878  54.026 -55.230  1.00  0.00     0.047 C 
BRANCH  19  20
HETATM   20  C   UNL     1     -42.213  55.081 -56.108  1.00  0.00     0.177 C 
BRANCH  20  21
HETATM   21  O   UNL     1     -43.064  55.277 -57.235  1.00  0.00    -0.351 OA
BRANCH  21  22
HETATM   22  C   UNL     1     -42.967  56.458 -57.909  1.00  0.00     0.068 A 
HETATM   23  C   UNL     1     -43.349  56.690 -59.226  1.00  0.00     0.037 A 
HETATM   24  C   UNL     1     -43.175  57.960 -59.800  1.00  0.00     0.011 A 
HETATM   25  C   UNL     1     -42.619  59.026 -59.074  1.00  0.00    -0.050 A 
HETATM   26  C   UNL     1     -42.249  58.768 -57.741  1.00  0.00     0.011 A 
HETATM   27  C   UNL     1     -42.419  57.505 -57.172  1.00  0.00     0.037 A 
BRANCH  25  28
HETATM   28  C   UNL     1     -42.408  60.426 -59.675  1.00  0.00    -0.024 C 
HETATM   29  C   UNL     1     -41.374  61.283 -58.913  1.00  0.00     0.019 C 
HETATM   30  C   UNL     1     -41.911  60.292 -61.131  1.00  0.00     0.019 C 
HETATM   31  C   UNL     1     -43.742  61.205 -59.664  1.00  0.00     0.019 C 
ENDBRANCH  25  28
ENDBRANCH  21  22
ENDBRANCH  20  21
ENDBRANCH  19  20
ENDBRANCH  18  19
ENDBRANCH   6  18
BRANCH   1  32
HETATM   32  N   UNL     1     -42.778  61.585 -54.042  1.00  0.00    -0.305 N 
HETATM   33  C   UNL     1     -43.339  62.046 -55.210  1.00  0.00     0.219 C 
HETATM   34  C   UNL     1     -44.340  61.182 -55.925  1.00  0.00     0.117 C 
HETATM   35  O   UNL     1     -43.008  63.150 -55.643  1.00  0.00    -0.274 OA
HETATM   36  H   UNL     1     -42.066  62.198 -53.671  1.00  0.00     0.171 HD
ENDBRANCH   1  32
TORSDOF 7
ENDMDL
MODEL 2
REMARK VINA RESULT:      -7.4      2.130      6.320
REMARK  7 active torsions:
REMARK  status: ('A' for Active; 'I' for Inactive)
REMARK       I    between atoms: C_2  and  N_3 
REMARK    1  A    between atoms: N_3  and  C_4 
REMARK    2  A    between atoms: N_9  and  C_10 
REMARK    3  A    between atoms: C_10  and  C_11 
REMARK    4  A    between atoms: C_11  and  C_12 
REMARK    5  A    between atoms: C_12  and  O_13 
REMARK    6  A    between atoms: O_13  and  C_14 
REMARK    7  A    between atoms: C_17  and  C_18 
REMARK       I    between atoms: N_30  and  C_31 
ROOT
HETATM    1  C   UNL     1     -44.385  59.780 -51.132  1.00  0.00     0.191 C 
HETATM    2  S   UNL     1     -45.321  60.344 -52.478  1.00  0.00    -0.042 SA
HETATM    3  C   UNL     1     -43.880  59.971 -53.557  1.00  0.00     0.224 A 
HETATM    4  C   UNL     1     -44.209  58.674 -54.349  1.00  0.00     0.271 A 
HETATM    5  O   UNL     1     -44.355  57.561 -53.859  1.00  0.00    -0.269 OA
HETATM    6  N   UNL     1     -44.331  59.039 -55.703  1.00  0.00    -0.314 N 
HETATM    7  C   UNL     1     -43.998  60.400 -55.874  1.00  0.00     0.047 A 
HETATM    8  C   UNL     1     -43.713  60.995 -54.638  1.00  0.00     0.019 A 
HETATM    9  C   UNL     1     -43.921  61.121 -57.052  1.00  0.00     0.030 A 
HETATM   10  C   UNL     1     -43.550  62.468 -56.975  1.00  0.00     0.002 A 
HETATM   11  C   UNL     1     -43.262  63.065 -55.738  1.00  0.00     0.001 A 
HETATM   12  C   UNL     1     -43.342  62.329 -54.554  1.00  0.00     0.013 A 
HETATM   13  N   UNL     1     -42.778  59.749 -52.627  1.00  0.00    -0.201 N 
HETATM   14  C   UNL     1     -41.494  59.470 -53.067  1.00  0.00     0.238 C 
HETATM   15  C   UNL     1     -40.489  59.159 -51.986  1.00  0.00     0.119 C 
HETATM   16  O   UNL     1     -41.173  59.457 -54.255  1.00  0.00    -0.272 OA
HETATM   17  N   UNL     1     -43.126  59.558 -51.300  1.00  0.00    -0.141 NA
ENDROOT
BRANCH   6  18
HETATM   18  C   UNL     1     -44.576  58.149 -56.830  1.00  0.00     0.134 C 
BRANCH  18  19
HETATM   19  C   UNL     1     -43.333  57.567 -57.496  1.00  0.00     0.047 C 
BRANCH  19  20
HETATM   20  C   UNL     1     -43.384  56.046 -57.588  1.00  0.00     0.177 C 
BRANCH  20  21
HETATM   21  O   UNL     1     -42.217  55.553 -56.931  1.00  0.00    -0.351 OA
BRANCH  21  22
HETATM   22  C   UNL     1     -42.306  55.277 -55.599  1.00  0.00     0.068 A 
HETATM   23  C   UNL     1     -43.255  54.467 -54.986  1.00  0.00     0.037 A 
HETATM   24  C   UNL     1     -43.236  54.283 -53.594  1.00  0.00     0.011 A 
HETATM   25  C   UNL     1     -42.270  54.901 -52.783  1.00  0.00    -0.050 A 
HETATM   26  C   UNL     1     -41.315  55.708 -53.428  1.00  0.00     0.011 A 
HETATM   27  C   UNL     1     -41.336  55.893 -54.812  1.00  0.00     0.037 A 
BRANCH  25  28
HETATM   28  C   UNL     1     -42.226  54.727 -51.255  1.00  0.00    -0.024 C 
HETATM   29  C   UNL     1     -43.596  54.392 -50.626  1.00  0.00     0.019 C 
HETATM   30  C   UNL     1     -41.261  53.577 -50.895  1.00  0.00     0.019 C 
HETATM   31  C   UNL     1     -41.729  56.033 -50.595  1.00  0.00     0.019 C 
ENDBRANCH  25  28
ENDBRANCH  21  22
ENDBRANCH  20  21
ENDBRANCH  19  20
ENDBRANCH  18  19
ENDBRANCH   6  18
BRANCH   1  32
HETATM   32  N   UNL     1     -45.103  59.633 -49.981  1.00  0.00    -0.305 N 
HETATM   33  C   UNL     1     -45.338  60.518 -48.956  1.00  0.00     0.219 C 
HETATM   34  C   UNL     1     -44.674  61.866 -48.992  1.00  0.00     0.117 C 
HETATM   35  O   UNL     1     -46.083  60.187 -48.032  1.00  0.00    -0.274 OA
HETATM   36  H   UNL     1     -45.531  58.730 -49.837  1.00  0.00     0.171 HD
ENDBRANCH   1  32
TORSDOF 7
ENDMDL
MODEL 3
REMARK VINA RESULT:      -7.3      2.530      5.015
REMARK  7 active torsions:
REMARK  status: ('A' for Active; 'I' for Inactive)
REMARK       I    between atoms: C_2  and  N_3 
REMARK    1  A    between atoms: N_3  and  C_4 
REMARK    2  A    between atoms: N_9  and  C_10 
REMARK    3  A    between atoms: C_10  and  C_11 
REMARK    4  A    between atoms: C_11  and  C_12 
REMARK    5  A    between atoms: C_12  and  O_13 
REMARK    6  A    between atoms: O_13  and  C_14 
REMARK    7  A    between atoms: C_17  and  C_18 
REMARK       I    between atoms: N_30  and  C_31 
ROOT
HETATM    1  C   UNL     1     -41.678  56.108 -50.173  1.00  0.00     0.191 C 
HETATM    2  S   UNL     1     -42.996  55.868 -51.272  1.00  0.00    -0.042 SA
HETATM    3  C   UNL     1     -42.274  57.186 -52.330  1.00  0.00     0.224 A 
HETATM    4  C   UNL     1     -41.612  56.494 -53.556  1.00  0.00     0.271 A 
HETATM    5  O   UNL     1     -40.640  55.750 -53.512  1.00  0.00    -0.269 OA
HETATM    6  N   UNL     1     -42.359  56.866 -54.689  1.00  0.00    -0.314 N 
HETATM    7  C   UNL     1     -43.346  57.810 -54.336  1.00  0.00     0.047 A 
HETATM    8  C   UNL     1     -43.331  58.043 -52.955  1.00  0.00     0.019 A 
HETATM    9  C   UNL     1     -44.232  58.474 -55.165  1.00  0.00     0.030 A 
HETATM   10  C   UNL     1     -45.117  59.388 -54.585  1.00  0.00     0.002 A 
HETATM   11  C   UNL     1     -45.103  59.625 -53.201  1.00  0.00     0.001 A 
HETATM   12  C   UNL     1     -44.205  58.950 -52.372  1.00  0.00     0.013 A 
HETATM   13  N   UNL     1     -41.268  57.820 -51.484  1.00  0.00    -0.201 N 
HETATM   14  C   UNL     1     -40.518  58.899 -51.922  1.00  0.00     0.238 C 
HETATM   15  C   UNL     1     -39.446  59.375 -50.974  1.00  0.00     0.119 C 
HETATM   16  O   UNL     1     -40.685  59.442 -53.015  1.00  0.00    -0.272 OA
HETATM   17  N   UNL     1     -40.908  57.129 -50.338  1.00  0.00    -0.141 NA
ENDROOT
BRANCH   6  18
HETATM   18  C   UNL     1     -42.082  56.508 -56.074  1.00  0.00     0.134 C 
BRANCH  18  19
HETATM   19  C   UNL     1     -43.022  55.479 -56.694  1.00  0.00     0.047 C 
BRANCH  19  20
HETATM   20  C   UNL     1     -43.211  55.696 -58.192  1.00  0.00     0.177 C 
BRANCH  20  21
HETATM   21  O   UNL     1     -44.089  56.811 -58.340  1.00  0.00    -0.351 OA
BRANCH  21  22
HETATM   22  C   UNL     1     -43.679  57.843 -59.132  1.00  0.00     0.068 A 
HETATM   23  C   UNL     1     -42.399  58.034 -59.640  1.00  0.00     0.037 A 
HETATM   24  C   UNL     1     -42.113  59.156 -60.434  1.00  0.00     0.011 A 
HETATM   25  C   UNL     1     -43.097  60.111 -60.741  1.00  0.00    -0.050 A 
HETATM   26  C   UNL     1     -44.386  59.890 -60.223  1.00  0.00     0.011 A 
HETATM   27  C   UNL     1     -44.669  58.775 -59.431  1.00  0.00     0.037 A 
BRANCH  25  28
HETATM   28  C   UNL     1     -42.815  61.355 -61.600  1.00  0.00    -0.024 C 
HETATM   29  C   UNL     1     -43.561  62.622 -61.129  1.00  0.00     0.019 C 
HETATM   30  C   UNL     1     -41.304  61.671 -61.569  1.00  0.00     0.019 C 
HETATM   31  C   UNL     1     -43.247  61.089 -63.060  1.00  0.00     0.019 C 
ENDBRANCH  25  28
ENDBRANCH  21  22
ENDBRANCH  20  21
ENDBRANCH  19  20
ENDBRANCH  18  19
ENDBRANCH   6  18
BRANCH   1  32
HETATM   32  N   UNL     1     -41.591  55.160 -49.195  1.00  0.00    -0.305 N 
HETATM   33  C   UNL     1     -40.775  54.059 -49.088  1.00  0.00     0.219 C 
HETATM   34  C   UNL     1     -39.845  53.730 -50.222  1.00  0.00     0.117 C 
HETATM   35  O   UNL     1     -40.825  53.368 -48.069  1.00  0.00    -0.274 OA
HETATM   36  H   UNL     1     -42.231  55.261 -48.421  1.00  0.00     0.171 HD
ENDBRANCH   1  32
TORSDOF 7
ENDMDL
MODEL 4
REMARK VINA RESULT:      -7.1      2.866      6.188
REMARK  7 active torsions:
REMARK  status: ('A' for Active; 'I' for Inactive)
REMARK       I    between atoms: C_2  and  N_3 
REMARK    1  A    between atoms: N_3  and  C_4 
REMARK    2  A    between atoms: N_9  and  C_10 
REMARK    3  A    between atoms: C_10  and  C_11 
REMARK    4  A    between atoms: C_11  and  C_12 
REMARK    5  A    between atoms: C_12  and  O_13 
REMARK    6  A    between atoms: O_13  and  C_14 
REMARK    7  A    between atoms: C_17  and  C_18 
REMARK       I    between atoms: N_30  and  C_31 
ROOT
HETATM    1  C   UNL     1     -42.474  60.083 -59.362  1.00  0.00     0.191 C 
HETATM    2  S   UNL     1     -41.998  59.627 -57.759  1.00  0.00    -0.042 SA
HETATM    3  C   UNL     1     -43.471  58.529 -57.700  1.00  0.00     0.224 A 
HETATM    4  C   UNL     1     -42.974  57.065 -57.864  1.00  0.00     0.271 A 
HETATM    5  O   UNL     1     -42.449  56.602 -58.869  1.00  0.00    -0.269 OA
HETATM    6  N   UNL     1     -43.217  56.410 -56.642  1.00  0.00    -0.314 N 
HETATM    7  C   UNL     1     -43.921  57.260 -55.763  1.00  0.00     0.047 A 
HETATM    8  C   UNL     1     -44.107  58.521 -56.344  1.00  0.00     0.019 A 
HETATM    9  C   UNL     1     -44.411  56.972 -54.502  1.00  0.00     0.030 A 
HETATM   10  C   UNL     1     -45.100  57.979 -53.818  1.00  0.00     0.002 A 
HETATM   11  C   UNL     1     -45.290  59.243 -54.399  1.00  0.00     0.001 A 
HETATM   12  C   UNL     1     -44.792  59.525 -55.672  1.00  0.00     0.013 A 
HETATM   13  N   UNL     1     -44.275  58.939 -58.847  1.00  0.00    -0.201 N 
HETATM   14  C   UNL     1     -45.500  58.357 -59.127  1.00  0.00     0.238 C 
HETATM   15  C   UNL     1     -46.160  58.811 -60.405  1.00  0.00     0.119 C 
HETATM   16  O   UNL     1     -46.032  57.513 -58.404  1.00  0.00    -0.272 OA
HETATM   17  N   UNL     1     -43.639  59.730 -59.789  1.00  0.00    -0.141 NA
ENDROOT
BRANCH   6  18
HETATM   18  C   UNL     1     -42.971  55.006 -56.339  1.00  0.00     0.134 C 
BRANCH  18  19
HETATM   19  C   UNL     1     -41.584  54.680 -55.794  1.00  0.00     0.047 C 
BRANCH  19  20
HETATM   20  C   UNL     1     -41.620  54.273 -54.325  1.00  0.00     0.177 C 
BRANCH  20  21
HETATM   21  O   UNL     1     -40.707  55.126 -53.637  1.00  0.00    -0.351 OA
BRANCH  21  22
HETATM   22  C   UNL     1     -41.210  56.229 -53.014  1.00  0.00     0.068 A 
HETATM   23  C   UNL     1     -41.960  56.244 -51.844  1.00  0.00     0.037 A 
HETATM   24  C   UNL     1     -42.431  57.459 -51.320  1.00  0.00     0.011 A 
HETATM   25  C   UNL     1     -42.163  58.686 -51.951  1.00  0.00    -0.050 A 
HETATM   26  C   UNL     1     -41.394  58.644 -53.128  1.00  0.00     0.011 A 
HETATM   27  C   UNL     1     -40.928  57.435 -53.650  1.00  0.00     0.037 A 
BRANCH  25  28
HETATM   28  C   UNL     1     -42.669  60.032 -51.408  1.00  0.00    -0.024 C 
HETATM   29  C   UNL     1     -44.089  59.967 -50.804  1.00  0.00     0.019 C 
HETATM   30  C   UNL     1     -41.719  60.531 -50.298  1.00  0.00     0.019 C 
HETATM   31  C   UNL     1     -42.708  61.073 -52.549  1.00  0.00     0.019 C 
ENDBRANCH  25  28
ENDBRANCH  21  22
ENDBRANCH  20  21
ENDBRANCH  19  20
ENDBRANCH  18  19
ENDBRANCH   6  18
BRANCH   1  32
HETATM   32  N   UNL     1     -41.534  60.809 -60.034  1.00  0.00    -0.305 N 
HETATM   33  C   UNL     1     -41.226  62.147 -59.972  1.00  0.00     0.219 C 
HETATM   34  C   UNL     1     -42.059  63.045 -59.101  1.00  0.00     0.117 C 
HETATM   35  O   UNL     1     -40.279  62.579 -60.630  1.00  0.00    -0.274 OA
HETATM   36  H   UNL     1     -40.969  60.298 -60.697  1.00  0.00     0.171 HD
ENDBRANCH   1  32
TORSDOF 7
ENDMDL
MODEL 5
REMARK VINA RESULT:      -7.1      3.582      7.387
REMARK  7 active torsions:
REMARK  status: ('A' for Active; 'I' for Inactive)
REMARK       I    between atoms: C_2  and  N_3 
REMARK    1  A    between atoms: N_3  and  C_4 
REMARK    2  A    between atoms: N_9  and  C_10 
REMARK    3  A    between atoms: C_10  and  C_11 
REMARK    4  A    between atoms: C_11  and  C_12 
REMARK    5  A    between atoms: C_12  and  O_13 
REMARK    6  A    between atoms: O_13  and  C_14 
REMARK    7  A    between atoms: C_17  and  C_18 
REMARK       I    between atoms: N_30  and  C_31 
ROOT
HETATM    1  C   UNL     1     -45.723  58.708 -60.459  1.00  0.00     0.191 C 
HETATM    2  S   UNL     1     -46.152  57.773 -59.064  1.00  0.00    -0.042 SA
HETATM    3  C   UNL     1     -44.560  58.290 -58.303  1.00  0.00     0.224 A 
HETATM    4  C   UNL     1     -44.882  59.363 -57.224  1.00  0.00     0.271 A 
HETATM    5  O   UNL     1     -45.342  60.476 -57.445  1.00  0.00    -0.269 OA
HETATM    6  N   UNL     1     -44.571  58.794 -55.975  1.00  0.00    -0.314 N 
HETATM    7  C   UNL     1     -43.977  57.526 -56.149  1.00  0.00     0.047 A 
HETATM    8  C   UNL     1     -43.936  57.185 -57.507  1.00  0.00     0.019 A 
HETATM    9  C   UNL     1     -43.465  56.680 -55.182  1.00  0.00     0.030 A 
HETATM   10  C   UNL     1     -42.903  55.469 -55.599  1.00  0.00     0.002 A 
HETATM   11  C   UNL     1     -42.859  55.126 -56.960  1.00  0.00     0.001 A 
HETATM   12  C   UNL     1     -43.379  55.986 -57.929  1.00  0.00     0.013 A 
HETATM   13  N   UNL     1     -43.802  58.872 -59.407  1.00  0.00    -0.201 N 
HETATM   14  C   UNL     1     -42.516  59.355 -59.237  1.00  0.00     0.238 C 
HETATM   15  C   UNL     1     -41.906  60.022 -60.444  1.00  0.00     0.119 C 
HETATM   16  O   UNL     1     -41.894  59.270 -58.178  1.00  0.00    -0.272 OA
HETATM   17  N   UNL     1     -44.522  59.169 -60.554  1.00  0.00    -0.141 NA
ENDROOT
BRANCH   6  18
HETATM   18  C   UNL     1     -44.653  59.444 -54.674  1.00  0.00     0.134 C 
BRANCH  18  19
HETATM   19  C   UNL     1     -43.548  60.450 -54.365  1.00  0.00     0.047 C 
BRANCH  19  20
HETATM   20  C   UNL     1     -43.288  60.583 -52.868  1.00  0.00     0.177 C 
BRANCH  20  21
HETATM   21  O   UNL     1     -41.945  60.159 -52.642  1.00  0.00    -0.351 OA
BRANCH  21  22
HETATM   22  C   UNL     1     -41.708  58.820 -52.536  1.00  0.00     0.068 A 
HETATM   23  C   UNL     1     -40.730  58.100 -53.212  1.00  0.00     0.037 A 
HETATM   24  C   UNL     1     -40.609  56.715 -53.017  1.00  0.00     0.011 A 
HETATM   25  C   UNL     1     -41.460  56.017 -52.143  1.00  0.00    -0.050 A 
HETATM   26  C   UNL     1     -42.434  56.771 -51.463  1.00  0.00     0.011 A 
HETATM   27  C   UNL     1     -42.556  58.148 -51.659  1.00  0.00     0.037 A 
BRANCH  25  28
HETATM   28  C   UNL     1     -41.359  54.500 -51.913  1.00  0.00    -0.024 C 
HETATM   29  C   UNL     1     -40.555  54.112 -50.653  1.00  0.00     0.019 C 
HETATM   30  C   UNL     1     -42.775  53.908 -51.755  1.00  0.00     0.019 C 
HETATM   31  C   UNL     1     -40.661  53.835 -53.120  1.00  0.00     0.019 C 
ENDBRANCH  25  28
ENDBRANCH  21  22
ENDBRANCH  20  21
ENDBRANCH  19  20
ENDBRANCH  18  19
ENDBRANCH   6  18
BRANCH   1  32
HETATM   32  N   UNL     1     -46.737  58.857 -61.359  1.00  0.00    -0.305 N 
HETATM   33  C   UNL     1     -47.714  59.820 -61.453  1.00  0.00     0.219 C 
HETATM   34  C   UNL     1     -47.797  60.878 -60.388  1.00  0.00     0.117 C 
HETATM   35  O   UNL     1     -48.499  59.792 -62.402  1.00  0.00    -0.274 OA
HETATM   36  H   UNL     1     -46.803  58.149 -62.075  1.00  0.00     0.171 HD
ENDBRANCH   1  32
TORSDOF 7
ENDMDL
MODEL 6
REMARK VINA RESULT:      -7.1      2.474      5.766
REMARK  7 active torsions:
REMARK  status: ('A' for Active; 'I' for Inactive)
REMARK       I    between atoms: C_2  and  N_3 
REMARK    1  A    between atoms: N_3  and  C_4 
REMARK    2  A    between atoms: N_9  and  C_10 
REMARK    3  A    between atoms: C_10  and  C_11 
REMARK    4  A    between atoms: C_11  and  C_12 
REMARK    5  A    between atoms: C_12  and  O_13 
REMARK    6  A    between atoms: O_13  and  C_14 
REMARK    7  A    between atoms: C_17  and  C_18 
REMARK       I    between atoms: N_30  and  C_31 
ROOT
HETATM    1  C   UNL     1     -41.913  58.539 -54.356  1.00  0.00     0.191 C 
HETATM    2  S   UNL     1     -42.574  59.582 -55.573  1.00  0.00    -0.042 SA
HETATM    3  C   UNL     1     -43.090  58.078 -56.495  1.00  0.00     0.224 A 
HETATM    4  C   UNL     1     -44.628  57.923 -56.319  1.00  0.00     0.271 A 
HETATM    5  O   UNL     1     -45.201  57.689 -55.263  1.00  0.00    -0.269 OA
HETATM    6  N   UNL     1     -45.208  58.133 -57.584  1.00  0.00    -0.314 N 
HETATM    7  C   UNL     1     -44.205  58.285 -58.564  1.00  0.00     0.047 A 
HETATM    8  C   UNL     1     -42.934  58.248 -57.975  1.00  0.00     0.019 A 
HETATM    9  C   UNL     1     -44.357  58.435 -59.931  1.00  0.00     0.030 A 
HETATM   10  C   UNL     1     -43.203  58.551 -60.712  1.00  0.00     0.002 A 
HETATM   11  C   UNL     1     -41.928  58.512 -60.124  1.00  0.00     0.001 A 
HETATM   12  C   UNL     1     -41.784  58.361 -58.744  1.00  0.00     0.013 A 
HETATM   13  N   UNL     1     -42.378  56.986 -55.838  1.00  0.00    -0.201 N 
HETATM   14  C   UNL     1     -42.484  55.676 -56.273  1.00  0.00     0.238 C 
HETATM   15  C   UNL     1     -41.775  54.649 -55.426  1.00  0.00     0.119 C 
HETATM   16  O   UNL     1     -43.119  55.343 -57.274  1.00  0.00    -0.272 OA
HETATM   17  N   UNL     1     -41.819  57.277 -54.603  1.00  0.00    -0.141 NA
ENDROOT
BRANCH   6  18
HETATM   18  C   UNL     1     -46.621  58.032 -57.925  1.00  0.00     0.134 C 
BRANCH  18  19
HETATM   19  C   UNL     1     -47.446  59.298 -57.713  1.00  0.00     0.047 C 
BRANCH  19  20
HETATM   20  C   UNL     1     -47.501  60.169 -58.963  1.00  0.00     0.177 C 
BRANCH  20  21
HETATM   21  O   UNL     1     -46.962  61.441 -58.605  1.00  0.00    -0.351 OA
BRANCH  21  22
HETATM   22  C   UNL     1     -45.676  61.712 -58.967  1.00  0.00     0.068 A 
HETATM   23  C   UNL     1     -45.210  61.915 -60.262  1.00  0.00     0.037 A 
HETATM   24  C   UNL     1     -43.849  62.172 -60.492  1.00  0.00     0.011 A 
HETATM   25  C   UNL     1     -42.923  62.236 -59.437  1.00  0.00    -0.050 A 
HETATM   26  C   UNL     1     -43.421  62.037 -58.137  1.00  0.00     0.011 A 
HETATM   27  C   UNL     1     -44.775  61.779 -57.908  1.00  0.00     0.037 A 
BRANCH  25  28
HETATM   28  C   UNL     1     -41.425  62.508 -59.656  1.00  0.00    -0.024 C 
HETATM   29  C   UNL     1     -41.057  64.007 -59.653  1.00  0.00     0.019 C 
HETATM   30  C   UNL     1     -40.609  61.831 -58.534  1.00  0.00     0.019 C 
HETATM   31  C   UNL     1     -40.985  61.934 -61.021  1.00  0.00     0.019 C 
ENDBRANCH  25  28
ENDBRANCH  21  22
ENDBRANCH  20  21
ENDBRANCH  19  20
ENDBRANCH  18  19
ENDBRANCH   6  18
BRANCH   1  32
HETATM   32  N   UNL     1     -41.533  59.188 -53.218  1.00  0.00    -0.305 N 
HETATM   33  C   UNL     1     -42.180  59.335 -52.014  1.00  0.00     0.219 C 
HETATM   34  C   UNL     1     -43.571  58.784 -51.865  1.00  0.00     0.117 C 
HETATM   35  O   UNL     1     -41.610  59.914 -51.089  1.00  0.00    -0.274 OA
HETATM   36  H   UNL     1     -40.636  59.650 -53.249  1.00  0.00     0.171 HD
ENDBRANCH   1  32
TORSDOF 7
ENDMDL
MODEL 7
REMARK VINA RESULT:      -7.0      2.171      7.774
REMARK  7 active torsions:
REMARK  status: ('A' for Active; 'I' for Inactive)
REMARK       I    between atoms: C_2  and  N_3 
REMARK    1  A    between atoms: N_3  and  C_4 
REMARK    2  A    between atoms: N_9  and  C_10 
REMARK    3  A    between atoms: C_10  and  C_11 
REMARK    4  A    between atoms: C_11  and  C_12 
REMARK    5  A    between atoms: C_12  and  O_13 
REMARK    6  A    between atoms: O_13  and  C_14 
REMARK    7  A    between atoms: C_17  and  C_18 
REMARK       I    between atoms: N_30  and  C_31 
ROOT
HETATM    1  C   UNL     1     -42.399  55.888 -56.499  1.00  0.00     0.191 C 
HETATM    2  S   UNL     1     -42.015  57.380 -55.706  1.00  0.00    -0.042 SA
HETATM    3  C   UNL     1     -43.174  58.220 -56.861  1.00  0.00     0.224 A 
HETATM    4  C   UNL     1     -44.466  58.559 -56.065  1.00  0.00     0.271 A 
HETATM    5  O   UNL     1     -45.247  57.740 -55.596  1.00  0.00    -0.269 OA
HETATM    6  N   UNL     1     -44.535  59.962 -55.972  1.00  0.00    -0.314 N 
HETATM    7  C   UNL     1     -43.496  60.553 -56.721  1.00  0.00     0.047 A 
HETATM    8  C   UNL     1     -42.669  59.568 -57.277  1.00  0.00     0.019 A 
HETATM    9  C   UNL     1     -43.259  61.897 -56.946  1.00  0.00     0.030 A 
HETATM   10  C   UNL     1     -42.166  62.248 -57.745  1.00  0.00     0.002 A 
HETATM   11  C   UNL     1     -41.337  61.262 -58.304  1.00  0.00     0.001 A 
HETATM   12  C   UNL     1     -41.584  59.908 -58.072  1.00  0.00     0.013 A 
HETATM   13  N   UNL     1     -43.443  57.224 -57.893  1.00  0.00    -0.201 N 
HETATM   14  C   UNL     1     -44.262  57.496 -58.976  1.00  0.00     0.238 C 
HETATM   15  C   UNL     1     -44.529  56.334 -59.899  1.00  0.00     0.119 C 
HETATM   16  O   UNL     1     -44.761  58.602 -59.188  1.00  0.00    -0.272 OA
HETATM   17  N   UNL     1     -43.071  55.922 -57.599  1.00  0.00    -0.141 NA
ENDROOT
BRANCH   6  18
HETATM   18  C   UNL     1     -45.602  60.746 -55.365  1.00  0.00     0.134 C 
BRANCH  18  19
HETATM   19  C   UNL     1     -45.309  61.300 -53.975  1.00  0.00     0.047 C 
BRANCH  19  20
HETATM   20  C   UNL     1     -45.117  60.196 -52.941  1.00  0.00     0.177 C 
BRANCH  20  21
HETATM   21  O   UNL     1     -43.735  60.198 -52.585  1.00  0.00    -0.351 OA
BRANCH  21  22
HETATM   22  C   UNL     1     -43.193  59.034 -52.129  1.00  0.00     0.068 A 
HETATM   23  C   UNL     1     -41.844  58.697 -52.130  1.00  0.00     0.037 A 
HETATM   24  C   UNL     1     -41.425  57.449 -51.641  1.00  0.00     0.011 A 
HETATM   25  C   UNL     1     -42.342  56.510 -51.139  1.00  0.00    -0.050 A 
HETATM   26  C   UNL     1     -43.699  56.879 -51.139  1.00  0.00     0.011 A 
HETATM   27  C   UNL     1     -44.115  58.119 -51.628  1.00  0.00     0.037 A 
BRANCH  25  28
HETATM   28  C   UNL     1     -41.917  55.132 -50.603  1.00  0.00    -0.024 C 
HETATM   29  C   UNL     1     -41.299  55.176 -49.189  1.00  0.00     0.019 C 
HETATM   30  C   UNL     1     -43.148  54.203 -50.539  1.00  0.00     0.019 C 
HETATM   31  C   UNL     1     -40.860  54.511 -51.543  1.00  0.00     0.019 C 
ENDBRANCH  25  28
ENDBRANCH  21  22
ENDBRANCH  20  21
ENDBRANCH  19  20
ENDBRANCH  18  19
ENDBRANCH   6  18
BRANCH   1  32
HETATM   32  N   UNL     1     -41.920  54.782 -55.860  1.00  0.00    -0.305 N 
HETATM   33  C   UNL     1     -42.456  54.040 -54.834  1.00  0.00     0.219 C 
HETATM   34  C   UNL     1     -43.744  54.493 -54.206  1.00  0.00     0.117 C 
HETATM   35  O   UNL     1     -41.870  53.026 -54.453  1.00  0.00    -0.274 OA
HETATM   36  H   UNL     1     -41.020  54.444 -56.170  1.00  0.00     0.171 HD
ENDBRANCH   1  32
TORSDOF 7
ENDMDL
MODEL 8
REMARK VINA RESULT:      -7.0      2.213      6.384
REMARK  7 active torsions:
REMARK  status: ('A' for Active; 'I' for Inactive)
REMARK       I    between atoms: C_2  and  N_3 
REMARK    1  A    between atoms: N_3  and  C_4 
REMARK    2  A    between atoms: N_9  and  C_10 
REMARK    3  A    between atoms: C_10  and  C_11 
REMARK    4  A    between atoms: C_11  and  C_12 
REMARK    5  A    between atoms: C_12  and  O_13 
REMARK    6  A    between atoms: O_13  and  C_14 
REMARK    7  A    between atoms: C_17  and  C_18 
REMARK       I    between atoms: N_30  and  C_31 
ROOT
HETATM    1  C   UNL     1     -43.408  57.298 -57.111  1.00  0.00     0.191 C 
HETATM    2  S   UNL     1     -43.175  56.756 -55.482  1.00  0.00    -0.042 SA
HETATM    3  C   UNL     1     -43.066  58.519 -54.975  1.00  0.00     0.224 A 
HETATM    4  C   UNL     1     -44.401  58.888 -54.268  1.00  0.00     0.271 A 
HETATM    5  O   UNL     1     -45.501  58.925 -54.803  1.00  0.00    -0.269 OA
HETATM    6  N   UNL     1     -44.094  59.132 -52.916  1.00  0.00    -0.314 N 
HETATM    7  C   UNL     1     -42.699  59.078 -52.713  1.00  0.00     0.047 A 
HETATM    8  C   UNL     1     -42.043  58.730 -53.901  1.00  0.00     0.019 A 
HETATM    9  C   UNL     1     -41.992  59.332 -51.551  1.00  0.00     0.030 A 
HETATM   10  C   UNL     1     -40.597  59.230 -51.595  1.00  0.00     0.002 A 
HETATM   11  C   UNL     1     -39.938  58.884 -52.785  1.00  0.00     0.001 A 
HETATM   12  C   UNL     1     -40.660  58.629 -53.953  1.00  0.00     0.013 A 
HETATM   13  N   UNL     1     -42.922  59.250 -56.230  1.00  0.00    -0.201 N 
HETATM   14  C   UNL     1     -42.775  60.626 -56.264  1.00  0.00     0.238 C 
HETATM   15  C   UNL     1     -42.747  61.245 -57.639  1.00  0.00     0.119 C 
HETATM   16  O   UNL     1     -42.685  61.323 -55.253  1.00  0.00    -0.272 OA
HETATM   17  N   UNL     1     -43.215  58.543 -57.386  1.00  0.00    -0.141 NA
ENDROOT
BRANCH   6  18
HETATM   18  C   UNL     1     -45.017  59.568 -51.875  1.00  0.00     0.134 C 
BRANCH  18  19
HETATM   19  C   UNL     1     -45.134  58.647 -50.665  1.00  0.00     0.047 C 
BRANCH  19  20
HETATM   20  C   UNL     1     -45.165  57.174 -51.060  1.00  0.00     0.177 C 
BRANCH  20  21
HETATM   21  O   UNL     1     -43.961  56.589 -50.567  1.00  0.00    -0.351 OA
BRANCH  21  22
HETATM   22  C   UNL     1     -43.276  55.748 -51.392  1.00  0.00     0.068 A 
HETATM   23  C   UNL     1     -43.829  54.870 -52.317  1.00  0.00     0.037 A 
HETATM   24  C   UNL     1     -43.000  54.046 -53.095  1.00  0.00     0.011 A 
HETATM   25  C   UNL     1     -41.601  54.081 -52.970  1.00  0.00    -0.050 A 
HETATM   26  C   UNL     1     -41.066  54.985 -52.034  1.00  0.00     0.011 A 
HETATM   27  C   UNL     1     -41.891  55.802 -51.258  1.00  0.00     0.037 A 
BRANCH  25  28
HETATM   28  C   UNL     1     -40.665  53.187 -53.800  1.00  0.00    -0.024 C 
HETATM   29  C   UNL     1     -39.590  52.461 -52.963  1.00  0.00     0.019 C 
HETATM   30  C   UNL     1     -41.494  52.103 -54.523  1.00  0.00     0.019 C 
HETATM   31  C   UNL     1     -39.923  54.042 -54.851  1.00  0.00     0.019 C 
ENDBRANCH  25  28
ENDBRANCH  21  22
ENDBRANCH  20  21
ENDBRANCH  19  20
ENDBRANCH  18  19
ENDBRANCH   6  18
BRANCH   1  32
HETATM   32  N   UNL     1     -43.777  56.310 -57.976  1.00  0.00    -0.305 N 
HETATM   33  C   UNL     1     -43.274  55.968 -59.210  1.00  0.00     0.219 C 
HETATM   34  C   UNL     1     -42.187  56.815 -59.812  1.00  0.00     0.117 C 
HETATM   35  O   UNL     1     -43.725  54.982 -59.793  1.00  0.00    -0.274 OA
HETATM   36  H   UNL     1     -44.550  55.730 -57.685  1.00  0.00     0.171 HD
ENDBRANCH   1  32
TORSDOF 7
ENDMDL
MODEL 9
REMARK VINA RESULT:      -7.0      2.519      5.696
REMARK  7 active torsions:
REMARK  status: ('A' for Active; 'I' for Inactive)
REMARK       I    between atoms: C_2  and  N_3 
REMARK    1  A    between atoms: N_3  and  C_4 
REMARK    2  A    between atoms: N_9  and  C_10 
REMARK    3  A    between atoms: C_10  and  C_11 
REMARK    4  A    between atoms: C_11  and  C_12 
REMARK    5  A    between atoms: C_12  and  O_13 
REMARK    6  A    between atoms: O_13  and  C_14 
REMARK    7  A    between atoms: C_17  and  C_18 
REMARK       I    between atoms: N_30  and  C_31 
ROOT
HETATM    1  C   UNL     1     -42.085  56.722 -52.908  1.00  0.00     0.191 C 
HETATM    2  S   UNL     1     -42.250  56.718 -54.634  1.00  0.00    -0.042 SA
HETATM    3  C   UNL     1     -43.106  58.339 -54.495  1.00  0.00     0.224 A 
HETATM    4  C   UNL     1     -42.110  59.438 -54.963  1.00  0.00     0.271 A 
HETATM    5  O   UNL     1     -41.068  59.739 -54.397  1.00  0.00    -0.269 OA
HETATM    6  N   UNL     1     -42.627  59.977 -56.157  1.00  0.00    -0.314 N 
HETATM    7  C   UNL     1     -43.897  59.427 -56.432  1.00  0.00     0.047 A 
HETATM    8  C   UNL     1     -44.232  58.462 -55.474  1.00  0.00     0.019 A 
HETATM    9  C   UNL     1     -44.763  59.745 -57.463  1.00  0.00     0.030 A 
HETATM   10  C   UNL     1     -45.988  59.073 -57.524  1.00  0.00     0.002 A 
HETATM   11  C   UNL     1     -46.327  58.107 -56.564  1.00  0.00     0.001 A 
HETATM   12  C   UNL     1     -45.447  57.792 -55.527  1.00  0.00     0.013 A 
HETATM   13  N   UNL     1     -43.399  58.474 -53.071  1.00  0.00    -0.201 N 
HETATM   14  C   UNL     1     -44.079  59.569 -52.565  1.00  0.00     0.238 C 
HETATM   15  C   UNL     1     -44.210  59.616 -51.063  1.00  0.00     0.119 C 
HETATM   16  O   UNL     1     -44.544  60.464 -53.270  1.00  0.00    -0.272 OA
HETATM   17  N   UNL     1     -42.731  57.605 -52.224  1.00  0.00    -0.141 NA
ENDROOT
BRANCH   6  18
HETATM   18  C   UNL     1     -42.068  61.076 -56.933  1.00  0.00     0.134 C 
BRANCH  18  19
HETATM   19  C   UNL     1     -41.266  60.675 -58.167  1.00  0.00     0.047 C 
BRANCH  19  20
HETATM   20  C   UNL     1     -41.765  61.366 -59.431  1.00  0.00     0.177 C 
BRANCH  20  21
HETATM   21  O   UNL     1     -41.647  60.421 -60.494  1.00  0.00    -0.351 OA
BRANCH  21  22
HETATM   22  C   UNL     1     -42.327  59.246 -60.379  1.00  0.00     0.068 A 
HETATM   23  C   UNL     1     -41.804  58.028 -59.959  1.00  0.00     0.037 A 
HETATM   24  C   UNL     1     -42.621  56.887 -59.903  1.00  0.00     0.011 A 
HETATM   25  C   UNL     1     -43.979  56.936 -60.262  1.00  0.00    -0.050 A 
HETATM   26  C   UNL     1     -44.486  58.182 -60.674  1.00  0.00     0.011 A 
HETATM   27  C   UNL     1     -43.672  59.315 -60.732  1.00  0.00     0.037 A 
BRANCH  25  28
HETATM   28  C   UNL     1     -44.899  55.705 -60.220  1.00  0.00    -0.024 C 
HETATM   29  C   UNL     1     -46.358  56.029 -59.831  1.00  0.00     0.019 C 
HETATM   30  C   UNL     1     -44.931  55.037 -61.611  1.00  0.00     0.019 C 
HETATM   31  C   UNL     1     -44.366  54.691 -59.182  1.00  0.00     0.019 C 
ENDBRANCH  25  28
ENDBRANCH  21  22
ENDBRANCH  20  21
ENDBRANCH  19  20
ENDBRANCH  18  19
ENDBRANCH   6  18
BRANCH   1  32
HETATM   32  N   UNL     1     -41.265  55.743 -52.428  1.00  0.00    -0.305 N 
HETATM   33  C   UNL     1     -41.553  54.472 -51.989  1.00  0.00     0.219 C 
HETATM   34  C   UNL     1     -42.989  54.032 -51.927  1.00  0.00     0.117 C 
HETATM   35  O   UNL     1     -40.631  53.726 -51.657  1.00  0.00    -0.274 OA
HETATM   36  H   UNL     1     -40.285  55.975 -52.368  1.00  0.00     0.171 HD
ENDBRANCH   1  32
TORSDOF 7
ENDMDL
MODEL 10
REMARK VINA RESULT:      -6.7      2.621      5.223
REMARK  7 active torsions:
REMARK  status: ('A' for Active; 'I' for Inactive)
REMARK       I    between atoms: C_2  and  N_3 
REMARK    1  A    between atoms: N_3  and  C_4 
REMARK    2  A    between atoms: N_9  and  C_10 
REMARK    3  A    between atoms: C_10  and  C_11 
REMARK    4  A    between atoms: C_11  and  C_12 
REMARK    5  A    between atoms: C_12  and  O_13 
REMARK    6  A    between atoms: O_13  and  C_14 
REMARK    7  A    between atoms: C_17  and  C_18 
REMARK       I    between atoms: N_30  and  C_31 
ROOT
HETATM    1  C   UNL     1     -41.658  55.743 -51.860  1.00  0.00     0.191 C 
HETATM    2  S   UNL     1     -43.222  55.984 -52.568  1.00  0.00    -0.042 SA
HETATM    3  C   UNL     1     -42.895  57.792 -52.527  1.00  0.00     0.224 A 
HETATM    4  C   UNL     1     -42.577  58.245 -53.980  1.00  0.00     0.271 A 
HETATM    5  O   UNL     1     -41.599  57.904 -54.632  1.00  0.00    -0.269 OA
HETATM    6  N   UNL     1     -43.634  59.081 -54.389  1.00  0.00    -0.314 N 
HETATM    7  C   UNL     1     -44.523  59.305 -53.318  1.00  0.00     0.047 A 
HETATM    8  C   UNL     1     -44.127  58.575 -52.189  1.00  0.00     0.019 A 
HETATM    9  C   UNL     1     -45.640  60.122 -53.287  1.00  0.00     0.030 A 
HETATM   10  C   UNL     1     -46.366  60.198 -52.094  1.00  0.00     0.002 A 
HETATM   11  C   UNL     1     -45.969  59.469 -50.962  1.00  0.00     0.001 A 
HETATM   12  C   UNL     1     -44.841  58.648 -51.002  1.00  0.00     0.013 A 
HETATM   13  N   UNL     1     -41.722  57.930 -51.670  1.00  0.00    -0.201 N 
HETATM   14  C   UNL     1     -41.180  59.167 -51.364  1.00  0.00     0.238 C 
HETATM   15  C   UNL     1     -39.907  59.138 -50.556  1.00  0.00     0.119 C 
HETATM   16  O   UNL     1     -41.678  60.233 -51.726  1.00  0.00    -0.272 OA
HETATM   17  N   UNL     1     -41.018  56.766 -51.405  1.00  0.00    -0.141 NA
ENDROOT
BRANCH   6  18
HETATM   18  C   UNL     1     -43.745  59.791 -55.656  1.00  0.00     0.134 C 
BRANCH  18  19
HETATM   19  C   UNL     1     -43.983  58.920 -56.886  1.00  0.00     0.047 C 
BRANCH  19  20
HETATM   20  C   UNL     1     -42.700  58.659 -57.667  1.00  0.00     0.177 C 
BRANCH  20  21
HETATM   21  O   UNL     1     -42.952  59.047 -59.017  1.00  0.00    -0.351 OA
BRANCH  21  22
HETATM   22  C   UNL     1     -42.256  60.108 -59.516  1.00  0.00     0.068 A 
HETATM   23  C   UNL     1     -42.234  60.530 -60.840  1.00  0.00     0.037 A 
HETATM   24  C   UNL     1     -41.456  61.636 -61.218  1.00  0.00     0.011 A 
HETATM   25  C   UNL     1     -40.685  62.347 -60.283  1.00  0.00    -0.050 A 
HETATM   26  C   UNL     1     -40.732  61.906 -58.948  1.00  0.00     0.011 A 
HETATM   27  C   UNL     1     -41.504  60.804 -58.573  1.00  0.00     0.037 A 
BRANCH  25  28
HETATM   28  C   UNL     1     -39.816  63.557 -60.665  1.00  0.00    -0.024 C 
HETATM   29  C   UNL     1     -38.970  63.341 -61.938  1.00  0.00     0.019 C 
HETATM   30  C   UNL     1     -40.721  64.782 -60.916  1.00  0.00     0.019 C 
HETATM   31  C   UNL     1     -38.834  63.878 -59.516  1.00  0.00     0.019 C 
ENDBRANCH  25  28
ENDBRANCH  21  22
ENDBRANCH  20  21
ENDBRANCH  19  20
ENDBRANCH  18  19
ENDBRANCH   6  18
BRANCH   1  32
HETATM   32  N   UNL     1     -41.252  54.441 -51.844  1.00  0.00    -0.305 N 
HETATM   33  C   UNL     1     -40.640  53.683 -52.814  1.00  0.00     0.219 C 
HETATM   34  C   UNL     1     -40.409  54.288 -54.170  1.00  0.00     0.117 C 
HETATM   35  O   UNL     1     -40.298  52.530 -52.552  1.00  0.00    -0.274 OA
HETATM   36  H   UNL     1     -41.431  53.931 -50.991  1.00  0.00     0.171 HD
ENDBRANCH   1  32
TORSDOF 7
ENDMDL
