MODEL 1
REMARK VINA RESULT:      -8.7      0.000      0.000
REMARK  9 active torsions:
REMARK  status: ('A' for Active; 'I' for Inactive)
REMARK    1  A    between atoms: O_2  and  C_3 
REMARK    2  A    between atoms: C_6  and  C_7 
REMARK    3  A    between atoms: C_13  and  C_14 
REMARK       I    between atoms: C_14  and  N_15 
REMARK    4  A    between atoms: N_15  and  N_16 
REMARK    5  A    between atoms: N_16  and  C_17 
REMARK    6  A    between atoms: C_17  and  N_18 
REMARK    7  A    between atoms: N_18  and  C_19 
REMARK    8  A    between atoms: C_19  and  C_20 
REMARK    9  A    between atoms: C_27  and  C_28 
ROOT
HETATM    1  C   UNL     1     -41.481  54.808 -53.831  1.00  0.00     0.118 C 
HETATM    2  N   UNL     1     -41.211  55.946 -52.965  1.00  0.00    -0.365 N 
HETATM    3  C   UNL     1     -41.475  57.208 -53.381  1.00  0.00     0.138 A 
HETATM    4  N   UNL     1     -41.741  57.464 -54.702  1.00  0.00    -0.240 N 
HETATM    5  N   UNL     1     -41.921  58.762 -54.978  1.00  0.00    -0.181 NA
HETATM    6  C   UNL     1     -41.792  59.347 -53.783  1.00  0.00     0.160 A 
HETATM    7  C   UNL     1     -41.530  58.427 -52.733  1.00  0.00     0.098 A 
HETATM    8  C   UNL     1     -41.782  56.451 -55.743  1.00  0.00     0.221 C 
HETATM    9  C   UNL     1     -41.062  55.173 -55.269  1.00  0.00     0.066 C 
HETATM   10  H   UNL     1     -41.048  55.745 -51.975  1.00  0.00     0.161 HD
ENDROOT
BRANCH   7  11
HETATM   11  C   UNL     1     -41.300  58.667 -51.319  1.00  0.00     0.275 C 
HETATM   12  N   UNL     1     -42.392  58.943 -50.515  1.00  0.00    -0.263 N 
HETATM   13  H   UNL     1     -42.160  59.085 -49.536  1.00  0.00     0.190 HD
HETATM   14  O   UNL     1     -40.179  58.618 -50.813  1.00  0.00    -0.266 OA
BRANCH  12  15
HETATM   15  N   UNL     1     -43.652  58.357 -50.745  1.00  0.00    -0.274 N 
HETATM   16  H   UNL     1     -43.656  57.368 -50.970  1.00  0.00     0.189 HD
BRANCH  15  17
HETATM   17  C   UNL     1     -44.764  59.121 -50.992  1.00  0.00     0.186 C 
HETATM   18  S   UNL     1     -45.341  59.538 -52.504  1.00  0.00    -0.040 SA
BRANCH  17  19
HETATM   19  N   UNL     1     -45.427  59.595 -49.902  1.00  0.00    -0.360 N 
HETATM   20  H   UNL     1     -46.049  58.926 -49.463  1.00  0.00     0.162 HD
BRANCH  19  21
HETATM   21  C   UNL     1     -45.375  60.913 -49.296  1.00  0.00     0.187 C 
BRANCH  21  22
HETATM   22  C   UNL     1     -45.469  60.793 -47.823  1.00  0.00     0.070 A 
HETATM   23  O   UNL     1     -46.325  59.846 -47.341  1.00  0.00    -0.325 OA
HETATM   24  C   UNL     1     -46.253  59.899 -45.987  1.00  0.00     0.142 A 
HETATM   25  C   UNL     1     -45.375  60.878 -45.589  1.00  0.00     0.027 A 
HETATM   26  C   UNL     1     -44.869  61.462 -46.775  1.00  0.00     0.036 A 
ENDBRANCH  21  22
ENDBRANCH  19  21
ENDBRANCH  17  19
ENDBRANCH  15  17
ENDBRANCH  12  15
ENDBRANCH   7  11
BRANCH   1  27
HETATM   27  C   UNL     1     -40.812  53.563 -53.282  1.00  0.00    -0.035 A 
HETATM   28  C   UNL     1     -40.565  53.472 -51.903  1.00  0.00     0.012 A 
HETATM   29  C   UNL     1     -39.978  52.329 -51.354  1.00  0.00     0.037 A 
HETATM   30  C   UNL     1     -39.629  51.251 -52.167  1.00  0.00     0.068 A 
HETATM   31  C   UNL     1     -39.825  51.347 -53.543  1.00  0.00     0.037 A 
HETATM   32  C   UNL     1     -40.403  52.497 -54.097  1.00  0.00     0.012 A 
BRANCH  30  33
HETATM   33  O   UNL     1     -39.091  50.182 -51.505  1.00  0.00    -0.356 OA
HETATM   34  C   UNL     1     -39.861  49.653 -50.433  1.00  0.00     0.210 C 
ENDBRANCH  30  33
ENDBRANCH   1  27
BRANCH   8  35
HETATM   35  C   UNL     1     -43.217  56.186 -56.140  1.00  0.00     0.409 C 
HETATM   36  F   UNL     1     -44.085  56.308 -55.110  1.00  0.00    -0.169 F 
HETATM   37  F   UNL     1     -43.650  56.992 -57.133  1.00  0.00    -0.169 F 
HETATM   38  F   UNL     1     -43.343  54.914 -56.601  1.00  0.00    -0.169 F 
ENDBRANCH   8  35
TORSDOF 9
ENDMDL
MODEL 2
REMARK VINA RESULT:      -8.5      3.965      7.371
REMARK  9 active torsions:
REMARK  status: ('A' for Active; 'I' for Inactive)
REMARK    1  A    between atoms: O_2  and  C_3 
REMARK    2  A    between atoms: C_6  and  C_7 
REMARK    3  A    between atoms: C_13  and  C_14 
REMARK       I    between atoms: C_14  and  N_15 
REMARK    4  A    between atoms: N_15  and  N_16 
REMARK    5  A    between atoms: N_16  and  C_17 
REMARK    6  A    between atoms: C_17  and  N_18 
REMARK    7  A    between atoms: N_18  and  C_19 
REMARK    8  A    between atoms: C_19  and  C_20 
REMARK    9  A    between atoms: C_27  and  C_28 
ROOT
HETATM    1  C   UNL     1     -41.132  56.108 -52.528  1.00  0.00     0.118 C 
HETATM    2  N   UNL     1     -42.331  56.386 -53.304  1.00  0.00    -0.365 N 
HETATM    3  C   UNL     1     -43.017  57.542 -53.126  1.00  0.00     0.138 A 
HETATM    4  N   UNL     1     -42.763  58.340 -52.040  1.00  0.00    -0.240 N 
HETATM    5  N   UNL     1     -43.558  59.415 -51.959  1.00  0.00    -0.181 NA
HETATM    6  C   UNL     1     -44.325  59.309 -53.049  1.00  0.00     0.160 A 
HETATM    7  C   UNL     1     -44.025  58.165 -53.836  1.00  0.00     0.098 A 
HETATM    8  C   UNL     1     -41.767  58.052 -51.022  1.00  0.00     0.221 C 
HETATM    9  C   UNL     1     -41.370  56.563 -51.074  1.00  0.00     0.066 C 
HETATM   10  H   UNL     1     -42.492  55.807 -54.132  1.00  0.00     0.161 HD
ENDROOT
BRANCH   7  11
HETATM   11  C   UNL     1     -44.644  57.687 -55.060  1.00  0.00     0.275 C 
HETATM   12  N   UNL     1     -44.083  58.065 -56.269  1.00  0.00    -0.263 N 
HETATM   13  H   UNL     1     -44.558  57.683 -57.082  1.00  0.00     0.190 HD
HETATM   14  O   UNL     1     -45.631  56.952 -55.060  1.00  0.00    -0.266 OA
BRANCH  12  15
HETATM   15  N   UNL     1     -42.695  58.240 -56.422  1.00  0.00    -0.274 N 
HETATM   16  H   UNL     1     -42.155  58.347 -55.569  1.00  0.00     0.189 HD
BRANCH  15  17
HETATM   17  C   UNL     1     -42.144  58.587 -57.629  1.00  0.00     0.186 C 
HETATM   18  S   UNL     1     -41.795  60.144 -58.126  1.00  0.00    -0.040 SA
BRANCH  17  19
HETATM   19  N   UNL     1     -41.893  57.568 -58.495  1.00  0.00    -0.360 N 
HETATM   20  H   UNL     1     -41.268  56.854 -58.137  1.00  0.00     0.162 HD
BRANCH  19  21
HETATM   21  C   UNL     1     -42.379  57.370 -59.849  1.00  0.00     0.187 C 
BRANCH  21  22
HETATM   22  C   UNL     1     -43.312  56.220 -59.885  1.00  0.00     0.070 A 
HETATM   23  O   UNL     1     -44.052  56.070 -61.022  1.00  0.00    -0.325 OA
HETATM   24  C   UNL     1     -44.824  54.968 -60.849  1.00  0.00     0.142 A 
HETATM   25  C   UNL     1     -44.604  54.415 -59.610  1.00  0.00     0.027 A 
HETATM   26  C   UNL     1     -43.629  55.225 -58.982  1.00  0.00     0.036 A 
ENDBRANCH  21  22
ENDBRANCH  19  21
ENDBRANCH  17  19
ENDBRANCH  15  17
ENDBRANCH  12  15
ENDBRANCH   7  11
BRANCH   1  27
HETATM   27  C   UNL     1     -40.744  54.649 -52.671  1.00  0.00    -0.035 A 
HETATM   28  C   UNL     1     -40.638  54.094 -53.955  1.00  0.00     0.012 A 
HETATM   29  C   UNL     1     -40.253  52.762 -54.130  1.00  0.00     0.037 A 
HETATM   30  C   UNL     1     -39.963  51.958 -53.029  1.00  0.00     0.068 A 
HETATM   31  C   UNL     1     -40.110  52.482 -51.747  1.00  0.00     0.037 A 
HETATM   32  C   UNL     1     -40.507  53.814 -51.569  1.00  0.00     0.012 A 
BRANCH  30  33
HETATM   33  O   UNL     1     -39.570  50.684 -53.335  1.00  0.00    -0.356 OA
HETATM   34  C   UNL     1     -40.250  50.059 -54.416  1.00  0.00     0.210 C 
ENDBRANCH  30  33
ENDBRANCH   1  27
BRANCH   8  35
HETATM   35  C   UNL     1     -40.577  58.968 -51.201  1.00  0.00     0.409 C 
HETATM   36  F   UNL     1     -40.314  59.251 -52.497  1.00  0.00    -0.169 F 
HETATM   37  F   UNL     1     -40.708  60.142 -50.548  1.00  0.00    -0.169 F 
HETATM   38  F   UNL     1     -39.459  58.378 -50.702  1.00  0.00    -0.169 F 
ENDBRANCH   8  35
TORSDOF 9
ENDMDL
MODEL 3
REMARK VINA RESULT:      -8.3      4.350      6.908
REMARK  9 active torsions:
REMARK  status: ('A' for Active; 'I' for Inactive)
REMARK    1  A    between atoms: O_2  and  C_3 
REMARK    2  A    between atoms: C_6  and  C_7 
REMARK    3  A    between atoms: C_13  and  C_14 
REMARK       I    between atoms: C_14  and  N_15 
REMARK    4  A    between atoms: N_15  and  N_16 
REMARK    5  A    between atoms: N_16  and  C_17 
REMARK    6  A    between atoms: C_17  and  N_18 
REMARK    7  A    between atoms: N_18  and  C_19 
REMARK    8  A    between atoms: C_19  and  C_20 
REMARK    9  A    between atoms: C_27  and  C_28 
ROOT
HETATM    1  C   UNL     1     -40.844  56.755 -53.179  1.00  0.00     0.118 C 
HETATM    2  N   UNL     1     -41.453  57.475 -54.287  1.00  0.00    -0.365 N 
HETATM    3  C   UNL     1     -41.828  58.769 -54.148  1.00  0.00     0.138 A 
HETATM    4  N   UNL     1     -41.896  59.343 -52.904  1.00  0.00    -0.240 N 
HETATM    5  N   UNL     1     -42.341  60.606 -52.913  1.00  0.00    -0.181 NA
HETATM    6  C   UNL     1     -42.536  60.851 -54.213  1.00  0.00     0.160 A 
HETATM    7  C   UNL     1     -42.215  59.746 -55.046  1.00  0.00     0.098 A 
HETATM    8  C   UNL     1     -41.572  58.659 -51.664  1.00  0.00     0.221 C 
HETATM    9  C   UNL     1     -41.586  57.133 -51.881  1.00  0.00     0.066 C 
HETATM   10  H   UNL     1     -41.366  57.053 -55.216  1.00  0.00     0.161 HD
ENDROOT
BRANCH   7  11
HETATM   11  C   UNL     1     -42.317  59.604 -56.488  1.00  0.00     0.275 C 
HETATM   12  N   UNL     1     -43.466  59.036 -57.011  1.00  0.00    -0.263 N 
HETATM   13  H   UNL     1     -43.476  58.983 -58.025  1.00  0.00     0.190 HD
HETATM   14  O   UNL     1     -41.433  59.984 -57.255  1.00  0.00    -0.266 OA
BRANCH  12  15
HETATM   15  N   UNL     1     -44.728  59.228 -56.416  1.00  0.00    -0.274 N 
HETATM   16  H   UNL     1     -44.964  60.179 -56.153  1.00  0.00     0.189 HD
BRANCH  15  17
HETATM   17  C   UNL     1     -45.449  58.178 -55.909  1.00  0.00     0.186 C 
HETATM   18  S   UNL     1     -45.051  57.293 -54.548  1.00  0.00    -0.040 SA
BRANCH  17  19
HETATM   19  N   UNL     1     -46.565  57.820 -56.600  1.00  0.00    -0.360 N 
HETATM   20  H   UNL     1     -47.154  57.142 -56.129  1.00  0.00     0.162 HD
BRANCH  19  21
HETATM   21  C   UNL     1     -47.017  58.258 -57.908  1.00  0.00     0.187 C 
BRANCH  21  22
HETATM   22  C   UNL     1     -46.416  57.406 -58.959  1.00  0.00     0.070 A 
HETATM   23  O   UNL     1     -45.061  57.487 -59.109  1.00  0.00    -0.325 OA
HETATM   24  C   UNL     1     -44.722  56.633 -60.108  1.00  0.00     0.142 A 
HETATM   25  C   UNL     1     -45.839  56.015 -60.613  1.00  0.00     0.027 A 
HETATM   26  C   UNL     1     -46.938  56.516 -59.876  1.00  0.00     0.036 A 
ENDBRANCH  21  22
ENDBRANCH  19  21
ENDBRANCH  17  19
ENDBRANCH  15  17
ENDBRANCH  12  15
ENDBRANCH   7  11
BRANCH   1  27
HETATM   27  C   UNL     1     -40.817  55.268 -53.473  1.00  0.00    -0.035 A 
HETATM   28  C   UNL     1     -40.538  54.835 -54.778  1.00  0.00     0.012 A 
HETATM   29  C   UNL     1     -40.474  53.473 -55.083  1.00  0.00     0.037 A 
HETATM   30  C   UNL     1     -40.682  52.515 -54.093  1.00  0.00     0.068 A 
HETATM   31  C   UNL     1     -41.006  52.930 -52.803  1.00  0.00     0.037 A 
HETATM   32  C   UNL     1     -41.083  54.295 -52.498  1.00  0.00     0.012 A 
BRANCH  30  33
HETATM   33  O   UNL     1     -40.563  51.218 -54.513  1.00  0.00    -0.356 OA
HETATM   34  C   UNL     1     -39.517  50.459 -53.919  1.00  0.00     0.210 C 
ENDBRANCH  30  33
ENDBRANCH   1  27
BRANCH   8  35
HETATM   35  C   UNL     1     -40.240  59.152 -51.144  1.00  0.00     0.409 C 
HETATM   36  F   UNL     1     -39.361  59.449 -52.129  1.00  0.00    -0.169 F 
HETATM   37  F   UNL     1     -40.348  60.242 -50.355  1.00  0.00    -0.169 F 
HETATM   38  F   UNL     1     -39.655  58.189 -50.384  1.00  0.00    -0.169 F 
ENDBRANCH   8  35
TORSDOF 9
ENDMDL
MODEL 4
REMARK VINA RESULT:      -8.3      4.546      6.734
REMARK  9 active torsions:
REMARK  status: ('A' for Active; 'I' for Inactive)
REMARK    1  A    between atoms: O_2  and  C_3 
REMARK    2  A    between atoms: C_6  and  C_7 
REMARK    3  A    between atoms: C_13  and  C_14 
REMARK       I    between atoms: C_14  and  N_15 
REMARK    4  A    between atoms: N_15  and  N_16 
REMARK    5  A    between atoms: N_16  and  C_17 
REMARK    6  A    between atoms: C_17  and  N_18 
REMARK    7  A    between atoms: N_18  and  C_19 
REMARK    8  A    between atoms: C_19  and  C_20 
REMARK    9  A    between atoms: C_27  and  C_28 
ROOT
HETATM    1  C   UNL     1     -40.968  55.383 -53.534  1.00  0.00     0.118 C 
HETATM    2  N   UNL     1     -41.682  55.455 -54.800  1.00  0.00    -0.365 N 
HETATM    3  C   UNL     1     -42.394  56.560 -55.129  1.00  0.00     0.138 A 
HETATM    4  N   UNL     1     -42.681  57.510 -54.182  1.00  0.00    -0.240 N 
HETATM    5  N   UNL     1     -43.444  58.514 -54.634  1.00  0.00    -0.181 NA
HETATM    6  C   UNL     1     -43.622  58.204 -55.922  1.00  0.00     0.160 A 
HETATM    7  C   UNL     1     -42.974  56.999 -56.304  1.00  0.00     0.098 A 
HETATM    8  C   UNL     1     -42.258  57.441 -52.793  1.00  0.00     0.221 C 
HETATM    9  C   UNL     1     -41.856  55.997 -52.432  1.00  0.00     0.066 C 
HETATM   10  H   UNL     1     -41.435  54.763 -55.511  1.00  0.00     0.161 HD
ENDROOT
BRANCH   7  11
HETATM   11  C   UNL     1     -42.953  56.317 -57.586  1.00  0.00     0.275 C 
HETATM   12  N   UNL     1     -42.630  57.053 -58.714  1.00  0.00    -0.263 N 
HETATM   13  H   UNL     1     -42.620  56.510 -59.572  1.00  0.00     0.190 HD
HETATM   14  O   UNL     1     -43.195  55.116 -57.702  1.00  0.00    -0.266 OA
BRANCH  12  15
HETATM   15  N   UNL     1     -41.701  58.109 -58.671  1.00  0.00    -0.274 N 
HETATM   16  H   UNL     1     -40.818  57.917 -58.211  1.00  0.00     0.189 HD
BRANCH  15  17
HETATM   17  C   UNL     1     -42.076  59.405 -58.920  1.00  0.00     0.186 C 
HETATM   18  S   UNL     1     -41.442  60.761 -58.176  1.00  0.00    -0.040 SA
BRANCH  17  19
HETATM   19  N   UNL     1     -43.069  59.583 -59.832  1.00  0.00    -0.360 N 
HETATM   20  H   UNL     1     -42.862  59.225 -60.758  1.00  0.00     0.162 HD
BRANCH  19  21
HETATM   21  C   UNL     1     -44.365  60.219 -59.670  1.00  0.00     0.187 C 
BRANCH  21  22
HETATM   22  C   UNL     1     -45.345  59.237 -59.152  1.00  0.00     0.070 A 
HETATM   23  O   UNL     1     -45.320  57.994 -59.716  1.00  0.00    -0.325 OA
HETATM   24  C   UNL     1     -46.281  57.261 -59.100  1.00  0.00     0.142 A 
HETATM   25  C   UNL     1     -46.936  58.017 -58.159  1.00  0.00     0.027 A 
HETATM   26  C   UNL     1     -46.336  59.298 -58.193  1.00  0.00     0.036 A 
ENDBRANCH  21  22
ENDBRANCH  19  21
ENDBRANCH  17  19
ENDBRANCH  15  17
ENDBRANCH  12  15
ENDBRANCH   7  11
BRANCH   1  27
HETATM   27  C   UNL     1     -40.532  53.956 -53.261  1.00  0.00    -0.035 A 
HETATM   28  C   UNL     1     -40.319  53.548 -51.936  1.00  0.00     0.012 A 
HETATM   29  C   UNL     1     -39.947  52.234 -51.641  1.00  0.00     0.037 A 
HETATM   30  C   UNL     1     -39.784  51.298 -52.661  1.00  0.00     0.068 A 
HETATM   31  C   UNL     1     -39.946  51.701 -53.985  1.00  0.00     0.037 A 
HETATM   32  C   UNL     1     -40.308  53.022 -54.283  1.00  0.00     0.012 A 
BRANCH  30  33
HETATM   33  O   UNL     1     -39.447  50.041 -52.240  1.00  0.00    -0.356 OA
HETATM   34  C   UNL     1     -39.535  49.802 -50.841  1.00  0.00     0.210 C 
ENDBRANCH  30  33
ENDBRANCH   1  27
BRANCH   8  35
HETATM   35  C   UNL     1     -41.135  58.425 -52.554  1.00  0.00     0.409 C 
HETATM   36  F   UNL     1     -40.313  58.059 -51.545  1.00  0.00    -0.169 F 
HETATM   37  F   UNL     1     -40.369  58.632 -53.647  1.00  0.00    -0.169 F 
HETATM   38  F   UNL     1     -41.646  59.638 -52.214  1.00  0.00    -0.169 F 
ENDBRANCH   8  35
TORSDOF 9
ENDMDL
MODEL 5
REMARK VINA RESULT:      -8.2      3.764      6.462
REMARK  9 active torsions:
REMARK  status: ('A' for Active; 'I' for Inactive)
REMARK    1  A    between atoms: O_2  and  C_3 
REMARK    2  A    between atoms: C_6  and  C_7 
REMARK    3  A    between atoms: C_13  and  C_14 
REMARK       I    between atoms: C_14  and  N_15 
REMARK    4  A    between atoms: N_15  and  N_16 
REMARK    5  A    between atoms: N_16  and  C_17 
REMARK    6  A    between atoms: C_17  and  N_18 
REMARK    7  A    between atoms: N_18  and  C_19 
REMARK    8  A    between atoms: C_19  and  C_20 
REMARK    9  A    between atoms: C_27  and  C_28 
ROOT
HETATM    1  C   UNL     1     -41.315  56.583 -52.842  1.00  0.00     0.118 C 
HETATM    2  N   UNL     1     -42.609  56.956 -53.394  1.00  0.00    -0.365 N 
HETATM    3  C   UNL     1     -43.301  58.004 -52.885  1.00  0.00     0.138 A 
HETATM    4  N   UNL     1     -42.938  58.560 -51.684  1.00  0.00    -0.240 N 
HETATM    5  N   UNL     1     -43.748  59.544 -51.275  1.00  0.00    -0.181 NA
HETATM    6  C   UNL     1     -44.640  59.636 -52.267  1.00  0.00     0.160 A 
HETATM    7  C   UNL     1     -44.407  58.709 -53.318  1.00  0.00     0.098 A 
HETATM    8  C   UNL     1     -41.815  58.113 -50.877  1.00  0.00     0.221 C 
HETATM    9  C   UNL     1     -41.384  56.696 -51.306  1.00  0.00     0.066 C 
HETATM   10  H   UNL     1     -42.854  56.562 -54.306  1.00  0.00     0.161 HD
ENDROOT
BRANCH   7  11
HETATM   11  C   UNL     1     -45.159  58.476 -54.539  1.00  0.00     0.275 C 
HETATM   12  N   UNL     1     -45.515  59.571 -55.308  1.00  0.00    -0.263 N 
HETATM   13  H   UNL     1     -46.025  59.333 -56.154  1.00  0.00     0.190 HD
HETATM   14  O   UNL     1     -45.473  57.348 -54.918  1.00  0.00    -0.266 OA
BRANCH  12  15
HETATM   15  N   UNL     1     -44.688  60.705 -55.415  1.00  0.00    -0.274 N 
HETATM   16  H   UNL     1     -44.964  61.519 -54.875  1.00  0.00     0.189 HD
BRANCH  15  17
HETATM   17  C   UNL     1     -43.773  60.834 -56.429  1.00  0.00     0.186 C 
HETATM   18  S   UNL     1     -43.846  61.954 -57.667  1.00  0.00    -0.040 SA
BRANCH  17  19
HETATM   19  N   UNL     1     -42.741  59.948 -56.429  1.00  0.00    -0.360 N 
HETATM   20  H   UNL     1     -42.423  59.670 -55.507  1.00  0.00     0.162 HD
BRANCH  19  21
HETATM   21  C   UNL     1     -42.031  59.362 -57.552  1.00  0.00     0.187 C 
BRANCH  21  22
HETATM   22  C   UNL     1     -42.444  57.950 -57.726  1.00  0.00     0.070 A 
HETATM   23  O   UNL     1     -42.552  57.202 -56.589  1.00  0.00    -0.325 OA
HETATM   24  C   UNL     1     -42.942  55.959 -56.969  1.00  0.00     0.142 A 
HETATM   25  C   UNL     1     -43.071  55.891 -58.335  1.00  0.00     0.027 A 
HETATM   26  C   UNL     1     -42.745  57.177 -58.829  1.00  0.00     0.036 A 
ENDBRANCH  21  22
ENDBRANCH  19  21
ENDBRANCH  17  19
ENDBRANCH  15  17
ENDBRANCH  12  15
ENDBRANCH   7  11
BRANCH   1  27
HETATM   27  C   UNL     1     -40.905  55.215 -53.350  1.00  0.00    -0.035 A 
HETATM   28  C   UNL     1     -40.950  54.119 -52.475  1.00  0.00     0.012 A 
HETATM   29  C   UNL     1     -40.610  52.837 -52.913  1.00  0.00     0.037 A 
HETATM   30  C   UNL     1     -40.222  52.619 -54.234  1.00  0.00     0.068 A 
HETATM   31  C   UNL     1     -40.128  53.705 -55.103  1.00  0.00     0.037 A 
HETATM   32  C   UNL     1     -40.458  54.994 -54.661  1.00  0.00     0.012 A 
BRANCH  30  33
HETATM   33  O   UNL     1     -39.944  51.317 -54.545  1.00  0.00    -0.356 OA
HETATM   34  C   UNL     1     -39.735  50.439 -53.446  1.00  0.00     0.210 C 
ENDBRANCH  30  33
ENDBRANCH   1  27
BRANCH   8  35
HETATM   35  C   UNL     1     -40.684  59.111 -50.983  1.00  0.00     0.409 C 
HETATM   36  F   UNL     1     -40.599  59.694 -52.201  1.00  0.00    -0.169 F 
HETATM   37  F   UNL     1     -40.761  60.099 -50.065  1.00  0.00    -0.169 F 
HETATM   38  F   UNL     1     -39.495  58.488 -50.771  1.00  0.00    -0.169 F 
ENDBRANCH   8  35
TORSDOF 9
ENDMDL
MODEL 6
REMARK VINA RESULT:      -8.1      4.401      7.135
REMARK  9 active torsions:
REMARK  status: ('A' for Active; 'I' for Inactive)
REMARK    1  A    between atoms: O_2  and  C_3 
REMARK    2  A    between atoms: C_6  and  C_7 
REMARK    3  A    between atoms: C_13  and  C_14 
REMARK       I    between atoms: C_14  and  N_15 
REMARK    4  A    between atoms: N_15  and  N_16 
REMARK    5  A    between atoms: N_16  and  C_17 
REMARK    6  A    between atoms: C_17  and  N_18 
REMARK    7  A    between atoms: N_18  and  C_19 
REMARK    8  A    between atoms: C_19  and  C_20 
REMARK    9  A    between atoms: C_27  and  C_28 
ROOT
HETATM    1  C   UNL     1     -41.927  55.476 -53.424  1.00  0.00     0.118 C 
HETATM    2  N   UNL     1     -42.097  55.839 -54.823  1.00  0.00    -0.365 N 
HETATM    3  C   UNL     1     -42.947  56.831 -55.181  1.00  0.00     0.138 A 
HETATM    4  N   UNL     1     -43.857  57.326 -54.281  1.00  0.00    -0.240 N 
HETATM    5  N   UNL     1     -44.673  58.257 -54.791  1.00  0.00    -0.181 NA
HETATM    6  C   UNL     1     -44.245  58.378 -56.052  1.00  0.00     0.160 A 
HETATM    7  C   UNL     1     -43.152  57.525 -56.358  1.00  0.00     0.098 A 
HETATM    8  C   UNL     1     -43.987  56.868 -52.908  1.00  0.00     0.221 C 
HETATM    9  C   UNL     1     -43.308  55.494 -52.740  1.00  0.00     0.066 C 
HETATM   10  H   UNL     1     -41.392  55.493 -55.480  1.00  0.00     0.161 HD
ENDROOT
BRANCH   7  11
HETATM   11  C   UNL     1     -42.435  57.341 -57.608  1.00  0.00     0.275 C 
HETATM   12  N   UNL     1     -42.650  56.174 -58.321  1.00  0.00    -0.263 N 
HETATM   13  H   UNL     1     -42.129  56.120 -59.191  1.00  0.00     0.190 HD
HETATM   14  O   UNL     1     -41.661  58.185 -58.058  1.00  0.00    -0.266 OA
BRANCH  12  15
HETATM   15  N   UNL     1     -43.906  55.538 -58.343  1.00  0.00    -0.274 N 
HETATM   16  H   UNL     1     -44.001  54.704 -57.773  1.00  0.00     0.189 HD
BRANCH  15  17
HETATM   17  C   UNL     1     -44.832  55.810 -59.318  1.00  0.00     0.186 C 
HETATM   18  S   UNL     1     -44.933  55.048 -60.802  1.00  0.00    -0.040 SA
BRANCH  17  19
HETATM   19  N   UNL     1     -45.718  56.807 -59.051  1.00  0.00    -0.360 N 
HETATM   20  H   UNL     1     -46.166  56.742 -58.143  1.00  0.00     0.162 HD
BRANCH  19  21
HETATM   21  C   UNL     1     -46.115  57.932 -59.879  1.00  0.00     0.187 C 
BRANCH  21  22
HETATM   22  C   UNL     1     -45.027  58.936 -59.918  1.00  0.00     0.070 A 
HETATM   23  O   UNL     1     -44.024  58.714 -60.817  1.00  0.00    -0.325 OA
HETATM   24  C   UNL     1     -43.147  59.742 -60.693  1.00  0.00     0.142 A 
HETATM   25  C   UNL     1     -43.563  60.615 -59.717  1.00  0.00     0.027 A 
HETATM   26  C   UNL     1     -44.777  60.094 -59.210  1.00  0.00     0.036 A 
ENDBRANCH  21  22
ENDBRANCH  19  21
ENDBRANCH  17  19
ENDBRANCH  15  17
ENDBRANCH  12  15
ENDBRANCH   7  11
BRANCH   1  27
HETATM   27  C   UNL     1     -41.192  54.155 -53.313  1.00  0.00    -0.035 A 
HETATM   28  C   UNL     1     -40.742  53.727 -52.055  1.00  0.00     0.012 A 
HETATM   29  C   UNL     1     -40.087  52.501 -51.906  1.00  0.00     0.037 A 
HETATM   30  C   UNL     1     -39.872  51.674 -53.007  1.00  0.00     0.068 A 
HETATM   31  C   UNL     1     -40.272  52.107 -54.270  1.00  0.00     0.037 A 
HETATM   32  C   UNL     1     -40.917  53.342 -54.423  1.00  0.00     0.012 A 
BRANCH  30  33
HETATM   33  O   UNL     1     -39.248  50.490 -52.725  1.00  0.00    -0.356 OA
HETATM   34  C   UNL     1     -39.483  49.949 -51.431  1.00  0.00     0.210 C 
ENDBRANCH  30  33
ENDBRANCH   1  27
BRANCH   8  35
HETATM   35  C   UNL     1     -43.416  57.907 -51.970  1.00  0.00     0.409 C 
HETATM   36  F   UNL     1     -42.452  58.666 -52.539  1.00  0.00    -0.169 F 
HETATM   37  F   UNL     1     -44.352  58.745 -51.473  1.00  0.00    -0.169 F 
HETATM   38  F   UNL     1     -42.844  57.299 -50.897  1.00  0.00    -0.169 F 
ENDBRANCH   8  35
TORSDOF 9
ENDMDL
MODEL 7
REMARK VINA RESULT:      -8.1      3.519      6.061
REMARK  9 active torsions:
REMARK  status: ('A' for Active; 'I' for Inactive)
REMARK    1  A    between atoms: O_2  and  C_3 
REMARK    2  A    between atoms: C_6  and  C_7 
REMARK    3  A    between atoms: C_13  and  C_14 
REMARK       I    between atoms: C_14  and  N_15 
REMARK    4  A    between atoms: N_15  and  N_16 
REMARK    5  A    between atoms: N_16  and  C_17 
REMARK    6  A    between atoms: C_17  and  N_18 
REMARK    7  A    between atoms: N_18  and  C_19 
REMARK    8  A    between atoms: C_19  and  C_20 
REMARK    9  A    between atoms: C_27  and  C_28 
ROOT
HETATM    1  C   UNL     1     -42.667  55.705 -55.404  1.00  0.00     0.118 C 
HETATM    2  N   UNL     1     -43.346  56.228 -54.228  1.00  0.00    -0.365 N 
HETATM    3  C   UNL     1     -43.184  55.638 -53.018  1.00  0.00     0.138 A 
HETATM    4  N   UNL     1     -42.609  54.397 -52.921  1.00  0.00    -0.240 N 
HETATM    5  N   UNL     1     -42.571  53.912 -51.673  1.00  0.00    -0.181 NA
HETATM    6  C   UNL     1     -43.117  54.895 -50.949  1.00  0.00     0.160 A 
HETATM    7  C   UNL     1     -43.507  56.016 -51.729  1.00  0.00     0.098 A 
HETATM    8  C   UNL     1     -42.120  53.626 -54.052  1.00  0.00     0.221 C 
HETATM    9  C   UNL     1     -42.727  54.165 -55.363  1.00  0.00     0.066 C 
HETATM   10  H   UNL     1     -43.741  57.169 -54.301  1.00  0.00     0.161 HD
ENDROOT
BRANCH   7  11
HETATM   11  C   UNL     1     -44.153  57.252 -51.326  1.00  0.00     0.275 C 
HETATM   12  N   UNL     1     -43.393  58.207 -50.672  1.00  0.00    -0.263 N 
HETATM   13  H   UNL     1     -43.905  59.051 -50.433  1.00  0.00     0.190 HD
HETATM   14  O   UNL     1     -45.339  57.486 -51.557  1.00  0.00    -0.266 OA
BRANCH  12  15
HETATM   15  N   UNL     1     -42.031  58.404 -50.971  1.00  0.00    -0.274 N 
HETATM   16  H   UNL     1     -41.372  58.221 -50.223  1.00  0.00     0.189 HD
BRANCH  15  17
HETATM   17  C   UNL     1     -41.635  59.119 -52.073  1.00  0.00     0.186 C 
HETATM   18  S   UNL     1     -40.544  58.599 -53.228  1.00  0.00    -0.040 SA
BRANCH  17  19
HETATM   19  N   UNL     1     -42.163  60.365 -52.208  1.00  0.00    -0.360 N 
HETATM   20  H   UNL     1     -41.856  61.032 -51.509  1.00  0.00     0.162 HD
BRANCH  19  21
HETATM   21  C   UNL     1     -43.104  60.864 -53.196  1.00  0.00     0.187 C 
BRANCH  21  22
HETATM   22  C   UNL     1     -44.478  60.830 -52.643  1.00  0.00     0.070 A 
HETATM   23  O   UNL     1     -44.597  60.999 -51.294  1.00  0.00    -0.325 OA
HETATM   24  C   UNL     1     -45.921  60.939 -51.003  1.00  0.00     0.142 A 
HETATM   25  C   UNL     1     -46.655  60.719 -52.144  1.00  0.00     0.027 A 
HETATM   26  C   UNL     1     -45.724  60.643 -53.206  1.00  0.00     0.036 A 
ENDBRANCH  21  22
ENDBRANCH  19  21
ENDBRANCH  17  19
ENDBRANCH  15  17
ENDBRANCH  12  15
ENDBRANCH   7  11
BRANCH   1  27
HETATM   27  C   UNL     1     -43.253  56.320 -56.660  1.00  0.00    -0.035 A 
HETATM   28  C   UNL     1     -43.985  57.512 -56.560  1.00  0.00     0.012 A 
HETATM   29  C   UNL     1     -44.515  58.127 -57.698  1.00  0.00     0.037 A 
HETATM   30  C   UNL     1     -44.321  57.567 -58.960  1.00  0.00     0.068 A 
HETATM   31  C   UNL     1     -43.636  56.359 -59.070  1.00  0.00     0.037 A 
HETATM   32  C   UNL     1     -43.115  55.736 -57.928  1.00  0.00     0.012 A 
BRANCH  30  33
HETATM   33  O   UNL     1     -44.863  58.279 -59.994  1.00  0.00    -0.356 OA
HETATM   34  C   UNL     1     -46.233  58.028 -60.280  1.00  0.00     0.210 C 
ENDBRANCH  30  33
ENDBRANCH   1  27
BRANCH   8  35
HETATM   35  C   UNL     1     -40.608  53.650 -54.069  1.00  0.00     0.409 C 
HETATM   36  F   UNL     1     -40.089  54.812 -53.612  1.00  0.00    -0.169 F 
HETATM   37  F   UNL     1     -40.054  52.648 -53.353  1.00  0.00    -0.169 F 
HETATM   38  F   UNL     1     -40.157  53.501 -55.343  1.00  0.00    -0.169 F 
ENDBRANCH   8  35
TORSDOF 9
ENDMDL
MODEL 8
REMARK VINA RESULT:      -8.0      2.729      5.182
REMARK  9 active torsions:
REMARK  status: ('A' for Active; 'I' for Inactive)
REMARK    1  A    between atoms: O_2  and  C_3 
REMARK    2  A    between atoms: C_6  and  C_7 
REMARK    3  A    between atoms: C_13  and  C_14 
REMARK       I    between atoms: C_14  and  N_15 
REMARK    4  A    between atoms: N_15  and  N_16 
REMARK    5  A    between atoms: N_16  and  C_17 
REMARK    6  A    between atoms: C_17  and  N_18 
REMARK    7  A    between atoms: N_18  and  C_19 
REMARK    8  A    between atoms: C_19  and  C_20 
REMARK    9  A    between atoms: C_27  and  C_28 
ROOT
HETATM    1  C   UNL     1     -42.057  55.788 -55.223  1.00  0.00     0.118 C 
HETATM    2  N   UNL     1     -41.874  56.884 -54.283  1.00  0.00    -0.365 N 
HETATM    3  C   UNL     1     -41.673  56.637 -52.966  1.00  0.00     0.138 A 
HETATM    4  N   UNL     1     -41.906  55.389 -52.449  1.00  0.00    -0.240 N 
HETATM    5  N   UNL     1     -41.727  55.308 -51.124  1.00  0.00    -0.181 NA
HETATM    6  C   UNL     1     -41.339  56.544 -50.794  1.00  0.00     0.160 A 
HETATM    7  C   UNL     1     -41.266  57.424 -51.906  1.00  0.00     0.098 A 
HETATM    8  C   UNL     1     -42.357  54.247 -53.227  1.00  0.00     0.221 C 
HETATM    9  C   UNL     1     -42.956  54.721 -54.566  1.00  0.00     0.066 C 
HETATM   10  H   UNL     1     -41.667  57.804 -54.680  1.00  0.00     0.161 HD
ENDROOT
BRANCH   7  11
HETATM   11  C   UNL     1     -40.919  58.834 -51.957  1.00  0.00     0.275 C 
HETATM   12  N   UNL     1     -41.903  59.762 -51.659  1.00  0.00    -0.263 N 
HETATM   13  H   UNL     1     -41.587  60.727 -51.700  1.00  0.00     0.190 HD
HETATM   14  O   UNL     1     -39.788  59.228 -52.239  1.00  0.00    -0.266 OA
BRANCH  12  15
HETATM   15  N   UNL     1     -42.900  59.506 -50.698  1.00  0.00    -0.274 N 
HETATM   16  H   UNL     1     -42.583  59.164 -49.797  1.00  0.00     0.189 HD
BRANCH  15  17
HETATM   17  C   UNL     1     -44.221  59.391 -51.049  1.00  0.00     0.186 C 
HETATM   18  S   UNL     1     -44.791  58.921 -52.548  1.00  0.00    -0.040 SA
BRANCH  17  19
HETATM   19  N   UNL     1     -45.132  59.717 -50.092  1.00  0.00    -0.360 N 
HETATM   20  H   UNL     1     -45.675  58.936 -49.742  1.00  0.00     0.162 HD
BRANCH  19  21
HETATM   21  C   UNL     1     -45.439  61.015 -49.519  1.00  0.00     0.187 C 
BRANCH  21  22
HETATM   22  C   UNL     1     -45.486  60.914 -48.042  1.00  0.00     0.070 A 
HETATM   23  O   UNL     1     -46.223  59.888 -47.525  1.00  0.00    -0.325 OA
HETATM   24  C   UNL     1     -46.129  59.976 -46.174  1.00  0.00     0.142 A 
HETATM   25  C   UNL     1     -45.355  61.052 -45.814  1.00  0.00     0.027 A 
HETATM   26  C   UNL     1     -44.941  61.665 -47.020  1.00  0.00     0.036 A 
ENDBRANCH  21  22
ENDBRANCH  19  21
ENDBRANCH  17  19
ENDBRANCH  15  17
ENDBRANCH  12  15
ENDBRANCH   7  11
BRANCH   1  27
HETATM   27  C   UNL     1     -42.579  56.316 -56.545  1.00  0.00    -0.035 A 
HETATM   28  C   UNL     1     -43.050  55.408 -57.506  1.00  0.00     0.012 A 
HETATM   29  C   UNL     1     -43.567  55.857 -58.724  1.00  0.00     0.037 A 
HETATM   30  C   UNL     1     -43.629  57.220 -59.008  1.00  0.00     0.068 A 
HETATM   31  C   UNL     1     -43.122  58.131 -58.083  1.00  0.00     0.037 A 
HETATM   32  C   UNL     1     -42.593  57.682 -56.866  1.00  0.00     0.012 A 
BRANCH  30  33
HETATM   33  O   UNL     1     -44.182  57.530 -60.220  1.00  0.00    -0.356 OA
HETATM   34  C   UNL     1     -44.769  58.821 -60.331  1.00  0.00     0.210 C 
ENDBRANCH  30  33
ENDBRANCH   1  27
BRANCH   8  35
HETATM   35  C   UNL     1     -41.210  53.281 -53.423  1.00  0.00     0.409 C 
HETATM   36  F   UNL     1     -41.435  52.380 -54.406  1.00  0.00    -0.169 F 
HETATM   37  F   UNL     1     -40.039  53.896 -53.697  1.00  0.00    -0.169 F 
HETATM   38  F   UNL     1     -41.007  52.566 -52.285  1.00  0.00    -0.169 F 
ENDBRANCH   8  35
TORSDOF 9
ENDMDL
MODEL 9
REMARK VINA RESULT:      -8.0      2.146      3.425
REMARK  9 active torsions:
REMARK  status: ('A' for Active; 'I' for Inactive)
REMARK    1  A    between atoms: O_2  and  C_3 
REMARK    2  A    between atoms: C_6  and  C_7 
REMARK    3  A    between atoms: C_13  and  C_14 
REMARK       I    between atoms: C_14  and  N_15 
REMARK    4  A    between atoms: N_15  and  N_16 
REMARK    5  A    between atoms: N_16  and  C_17 
REMARK    6  A    between atoms: C_17  and  N_18 
REMARK    7  A    between atoms: N_18  and  C_19 
REMARK    8  A    between atoms: C_19  and  C_20 
REMARK    9  A    between atoms: C_27  and  C_28 
ROOT
HETATM    1  C   UNL     1     -41.454  55.070 -53.678  1.00  0.00     0.118 C 
HETATM    2  N   UNL     1     -41.092  56.190 -52.824  1.00  0.00    -0.365 N 
HETATM    3  C   UNL     1     -41.350  57.464 -53.209  1.00  0.00     0.138 A 
HETATM    4  N   UNL     1     -41.699  57.741 -54.506  1.00  0.00    -0.240 N 
HETATM    5  N   UNL     1     -41.861  59.046 -54.757  1.00  0.00    -0.181 NA
HETATM    6  C   UNL     1     -41.634  59.615 -53.569  1.00  0.00     0.160 A 
HETATM    7  C   UNL     1     -41.325  58.677 -52.548  1.00  0.00     0.098 A 
HETATM    8  C   UNL     1     -41.840  56.741 -55.551  1.00  0.00     0.221 C 
HETATM    9  C   UNL     1     -41.125  55.438 -55.139  1.00  0.00     0.066 C 
HETATM   10  H   UNL     1     -40.867  55.975 -51.849  1.00  0.00     0.161 HD
ENDROOT
BRANCH   7  11
HETATM   11  C   UNL     1     -40.991  58.896 -51.152  1.00  0.00     0.275 C 
HETATM   12  N   UNL     1     -41.900  59.577 -50.359  1.00  0.00    -0.263 N 
HETATM   13  H   UNL     1     -41.608  59.680 -49.392  1.00  0.00     0.190 HD
HETATM   14  O   UNL     1     -39.945  58.486 -50.649  1.00  0.00    -0.266 OA
BRANCH  12  15
HETATM   15  N   UNL     1     -43.289  59.455 -50.549  1.00  0.00    -0.274 N 
HETATM   16  H   UNL     1     -43.617  58.582 -50.949  1.00  0.00     0.189 HD
BRANCH  15  17
HETATM   17  C   UNL     1     -44.116  60.550 -50.524  1.00  0.00     0.186 C 
HETATM   18  S   UNL     1     -45.360  60.802 -49.437  1.00  0.00    -0.040 SA
BRANCH  17  19
HETATM   19  N   UNL     1     -43.910  61.486 -51.489  1.00  0.00    -0.360 N 
HETATM   20  H   UNL     1     -42.948  61.793 -51.581  1.00  0.00     0.162 HD
BRANCH  19  21
HETATM   21  C   UNL     1     -44.867  62.110 -52.385  1.00  0.00     0.187 C 
BRANCH  21  22
HETATM   22  C   UNL     1     -44.970  61.324 -53.636  1.00  0.00     0.070 A 
HETATM   23  O   UNL     1     -44.582  61.952 -54.784  1.00  0.00    -0.325 OA
HETATM   24  C   UNL     1     -44.748  61.064 -55.797  1.00  0.00     0.142 A 
HETATM   25  C   UNL     1     -45.253  59.879 -55.319  1.00  0.00     0.027 A 
HETATM   26  C   UNL     1     -45.402  60.045 -53.922  1.00  0.00     0.036 A 
ENDBRANCH  21  22
ENDBRANCH  19  21
ENDBRANCH  17  19
ENDBRANCH  15  17
ENDBRANCH  12  15
ENDBRANCH   7  11
BRANCH   1  27
HETATM   27  C   UNL     1     -40.783  53.801 -53.188  1.00  0.00    -0.035 A 
HETATM   28  C   UNL     1     -40.603  53.613 -51.809  1.00  0.00     0.012 A 
HETATM   29  C   UNL     1     -40.017  52.444 -51.316  1.00  0.00     0.037 A 
HETATM   30  C   UNL     1     -39.602  51.438 -52.186  1.00  0.00     0.068 A 
HETATM   31  C   UNL     1     -39.731  51.632 -53.560  1.00  0.00     0.037 A 
HETATM   32  C   UNL     1     -40.308  52.808 -54.057  1.00  0.00     0.012 A 
BRANCH  30  33
HETATM   33  O   UNL     1     -39.072  50.333 -51.578  1.00  0.00    -0.356 OA
HETATM   34  C   UNL     1     -39.851  49.752 -50.540  1.00  0.00     0.210 C 
ENDBRANCH  30  33
ENDBRANCH   1  27
BRANCH   8  35
HETATM   35  C   UNL     1     -43.306  56.519 -55.849  1.00  0.00     0.409 C 
HETATM   36  F   UNL     1     -43.780  57.330 -56.823  1.00  0.00    -0.169 F 
HETATM   37  F   UNL     1     -43.588  55.248 -56.206  1.00  0.00    -0.169 F 
HETATM   38  F   UNL     1     -44.048  56.777 -54.740  1.00  0.00    -0.169 F 
ENDBRANCH   8  35
TORSDOF 9
ENDMDL
MODEL 10
REMARK VINA RESULT:      -7.8      4.090      7.273
REMARK  9 active torsions:
REMARK  status: ('A' for Active; 'I' for Inactive)
REMARK    1  A    between atoms: O_2  and  C_3 
REMARK    2  A    between atoms: C_6  and  C_7 
REMARK    3  A    between atoms: C_13  and  C_14 
REMARK       I    between atoms: C_14  and  N_15 
REMARK    4  A    between atoms: N_15  and  N_16 
REMARK    5  A    between atoms: N_16  and  C_17 
REMARK    6  A    between atoms: C_17  and  N_18 
REMARK    7  A    between atoms: N_18  and  C_19 
REMARK    8  A    between atoms: C_19  and  C_20 
REMARK    9  A    between atoms: C_27  and  C_28 
ROOT
HETATM    1  C   UNL     1     -41.359  55.676 -52.668  1.00  0.00     0.118 C 
HETATM    2  N   UNL     1     -42.099  55.961 -53.888  1.00  0.00    -0.365 N 
HETATM    3  C   UNL     1     -42.871  57.071 -53.984  1.00  0.00     0.138 A 
HETATM    4  N   UNL     1     -43.187  57.797 -52.865  1.00  0.00    -0.240 N 
HETATM    5  N   UNL     1     -44.007  58.829 -53.101  1.00  0.00    -0.181 NA
HETATM    6  C   UNL     1     -44.194  58.773 -54.424  1.00  0.00     0.160 A 
HETATM    7  C   UNL     1     -43.494  57.703 -55.043  1.00  0.00     0.098 A 
HETATM    8  C   UNL     1     -42.736  57.476 -51.521  1.00  0.00     0.221 C 
HETATM    9  C   UNL     1     -42.255  56.012 -51.459  1.00  0.00     0.066 C 
HETATM   10  H   UNL     1     -41.831  55.438 -54.725  1.00  0.00     0.161 HD
ENDROOT
BRANCH   7  11
HETATM   11  C   UNL     1     -43.463  57.292 -56.436  1.00  0.00     0.275 C 
HETATM   12  N   UNL     1     -44.666  57.183 -57.114  1.00  0.00    -0.263 N 
HETATM   13  H   UNL     1     -44.569  56.907 -58.086  1.00  0.00     0.190 HD
HETATM   14  O   UNL     1     -42.414  57.056 -57.034  1.00  0.00    -0.266 OA
BRANCH  12  15
HETATM   15  N   UNL     1     -45.749  58.042 -56.848  1.00  0.00    -0.274 N 
HETATM   16  H   UNL     1     -46.250  57.884 -55.980  1.00  0.00     0.189 HD
BRANCH  15  17
HETATM   17  C   UNL     1     -46.312  58.813 -57.833  1.00  0.00     0.186 C 
HETATM   18  S   UNL     1     -47.805  59.560 -57.748  1.00  0.00    -0.040 SA
BRANCH  17  19
HETATM   19  N   UNL     1     -45.595  58.948 -58.980  1.00  0.00    -0.360 N 
HETATM   20  H   UNL     1     -44.783  59.551 -58.903  1.00  0.00     0.162 HD
BRANCH  19  21
HETATM   21  C   UNL     1     -45.834  58.366 -60.289  1.00  0.00     0.187 C 
BRANCH  21  22
HETATM   22  C   UNL     1     -45.369  56.960 -60.306  1.00  0.00     0.070 A 
HETATM   23  O   UNL     1     -44.052  56.749 -60.015  1.00  0.00    -0.325 OA
HETATM   24  C   UNL     1     -43.841  55.410 -60.080  1.00  0.00     0.142 A 
HETATM   25  C   UNL     1     -45.000  54.757 -60.423  1.00  0.00     0.027 A 
HETATM   26  C   UNL     1     -45.989  55.756 -60.575  1.00  0.00     0.036 A 
ENDBRANCH  21  22
ENDBRANCH  19  21
ENDBRANCH  17  19
ENDBRANCH  15  17
ENDBRANCH  12  15
ENDBRANCH   7  11
BRANCH   1  27
HETATM   27  C   UNL     1     -40.848  54.249 -52.690  1.00  0.00    -0.035 A 
HETATM   28  C   UNL     1     -40.843  53.543 -53.902  1.00  0.00     0.012 A 
HETATM   29  C   UNL     1     -40.352  52.236 -53.969  1.00  0.00     0.037 A 
HETATM   30  C   UNL     1     -39.850  51.609 -52.830  1.00  0.00     0.068 A 
HETATM   31  C   UNL     1     -39.892  52.280 -51.610  1.00  0.00     0.037 A 
HETATM   32  C   UNL     1     -40.396  53.586 -51.539  1.00  0.00     0.012 A 
BRANCH  30  33
HETATM   33  O   UNL     1     -39.373  50.343 -53.034  1.00  0.00    -0.356 OA
HETATM   34  C   UNL     1     -39.605  49.783 -54.320  1.00  0.00     0.210 C 
ENDBRANCH  30  33
ENDBRANCH   1  27
BRANCH   8  35
HETATM   35  C   UNL     1     -41.659  58.450 -51.100  1.00  0.00     0.409 C 
HETATM   36  F   UNL     1     -42.150  59.565 -50.512  1.00  0.00    -0.169 F 
HETATM   37  F   UNL     1     -40.756  57.909 -50.254  1.00  0.00    -0.169 F 
HETATM   38  F   UNL     1     -40.958  58.865 -52.188  1.00  0.00    -0.169 F 
ENDBRANCH   8  35
TORSDOF 9
ENDMDL
