MODEL 1
REMARK VINA RESULT:      -7.4      0.000      0.000
REMARK  5 active torsions:
REMARK  status: ('A' for Active; 'I' for Inactive)
REMARK    1  A    between atoms: C_3  and  N_4 
REMARK       I    between atoms: N_4  and  C_5 
REMARK       I    between atoms: C_5  and  N_6 
REMARK    2  A    between atoms: N_6  and  C_7 
REMARK    3  A    between atoms: C_7  and  C_8 
REMARK    4  A    between atoms: C_8  and  O_9 
REMARK    5  A    between atoms: O_9  and  C_10 
ROOT
HETATM    1  N   UNL     1     -44.087  56.821 -52.282  1.00  0.00    -0.307 N 
HETATM    2  C   UNL     1     -44.334  56.511 -53.590  1.00  0.00     0.320 C 
HETATM    3  N   UNL     1     -43.854  55.299 -53.998  1.00  0.00    -0.340 N 
HETATM    4  O   UNL     1     -44.958  57.186 -54.399  1.00  0.00    -0.247 OA
HETATM    5  H   UNL     1     -44.042  56.008 -51.689  1.00  0.00     0.170 HD
HETATM    6  H   UNL     1     -43.958  55.184 -55.003  1.00  0.00     0.164 HD
ENDROOT
BRANCH   3   7
HETATM    7  C   UNL     1     -42.878  54.432 -53.348  1.00  0.00     0.156 C 
BRANCH   7   8
HETATM    8  C   UNL     1     -41.895  53.790 -54.342  1.00  0.00     0.142 C 
HETATM    9  C   UNL     1     -41.641  54.693 -55.550  1.00  0.00     0.042 C 
BRANCH   8  10
HETATM   10  O   UNL     1     -40.633  53.583 -53.693  1.00  0.00    -0.343 OA
BRANCH  10  11
HETATM   11  C   UNL     1     -40.264  52.299 -53.395  1.00  0.00     0.086 A 
HETATM   12  C   UNL     1     -39.919  52.019 -52.064  1.00  0.00     0.044 A 
HETATM   13 BR   UNL     1     -39.916  53.376 -50.734  1.00  0.00    -0.048 Br
HETATM   14  C   UNL     1     -39.553  50.726 -51.678  1.00  0.00     0.022 A 
HETATM   15  C   UNL     1     -39.539  49.698 -52.618  1.00  0.00     0.002 A 
HETATM   16  C   UNL     1     -39.902  49.960 -53.938  1.00  0.00     0.003 A 
HETATM   17  C   UNL     1     -40.271  51.252 -54.323  1.00  0.00     0.038 A 
ENDBRANCH  10  11
ENDBRANCH   8  10
ENDBRANCH   7   8
ENDBRANCH   3   7
BRANCH   1  18
HETATM   18  C   UNL     1     -44.358  58.039 -51.611  1.00  0.00     0.059 A 
HETATM   19  C   UNL     1     -43.549  59.185 -51.580  1.00  0.00    -0.032 A 
HETATM   20  C   UNL     1     -42.195  59.306 -52.217  1.00  0.00     0.050 C 
HETATM   21  C   UNL     1     -44.023  60.312 -50.882  1.00  0.00     0.028 A 
HETATM   22  C   UNL     1     -45.226  60.246 -50.199  1.00  0.00     0.117 A 
HETATM   23  N   UNL     1     -45.992  59.144 -50.154  1.00  0.00    -0.271 NA
HETATM   24  C   UNL     1     -45.539  58.079 -50.857  1.00  0.00     0.146 A 
ENDBRANCH   1  18
TORSDOF 5
ENDMDL
MODEL 2
REMARK VINA RESULT:      -7.2      4.162      5.999
REMARK  5 active torsions:
REMARK  status: ('A' for Active; 'I' for Inactive)
REMARK    1  A    between atoms: C_3  and  N_4 
REMARK       I    between atoms: N_4  and  C_5 
REMARK       I    between atoms: C_5  and  N_6 
REMARK    2  A    between atoms: N_6  and  C_7 
REMARK    3  A    between atoms: C_7  and  C_8 
REMARK    4  A    between atoms: C_8  and  O_9 
REMARK    5  A    between atoms: O_9  and  C_10 
ROOT
HETATM    1  N   UNL     1     -43.972  55.932 -58.201  1.00  0.00    -0.307 N 
HETATM    2  C   UNL     1     -42.892  56.715 -57.907  1.00  0.00     0.320 C 
HETATM    3  N   UNL     1     -42.200  56.350 -56.787  1.00  0.00    -0.340 N 
HETATM    4  O   UNL     1     -42.479  57.669 -58.554  1.00  0.00    -0.247 OA
HETATM    5  H   UNL     1     -43.857  54.978 -57.901  1.00  0.00     0.170 HD
HETATM    6  H   UNL     1     -41.491  57.041 -56.554  1.00  0.00     0.164 HD
ENDROOT
BRANCH   3   7
HETATM    7  C   UNL     1     -42.602  55.452 -55.712  1.00  0.00     0.156 C 
BRANCH   7   8
HETATM    8  C   UNL     1     -41.442  54.582 -55.197  1.00  0.00     0.142 C 
HETATM    9  C   UNL     1     -40.250  55.432 -54.755  1.00  0.00     0.042 C 
BRANCH   8  10
HETATM   10  O   UNL     1     -41.881  53.837 -54.053  1.00  0.00    -0.343 OA
BRANCH  10  11
HETATM   11  C   UNL     1     -41.025  52.915 -53.515  1.00  0.00     0.086 A 
HETATM   12  C   UNL     1     -40.666  53.075 -52.168  1.00  0.00     0.044 A 
HETATM   13 BR   UNL     1     -41.304  54.542 -51.141  1.00  0.00    -0.048 Br
HETATM   14  C   UNL     1     -39.814  52.161 -51.542  1.00  0.00     0.022 A 
HETATM   15  C   UNL     1     -39.321  51.070 -52.254  1.00  0.00     0.002 A 
HETATM   16  C   UNL     1     -39.688  50.888 -53.586  1.00  0.00     0.003 A 
HETATM   17  C   UNL     1     -40.543  51.800 -54.212  1.00  0.00     0.038 A 
ENDBRANCH  10  11
ENDBRANCH   8  10
ENDBRANCH   7   8
ENDBRANCH   3   7
BRANCH   1  18
HETATM   18  C   UNL     1     -44.937  56.128 -59.219  1.00  0.00     0.059 A 
HETATM   19  C   UNL     1     -45.996  57.049 -59.216  1.00  0.00    -0.032 A 
HETATM   20  C   UNL     1     -46.337  57.970 -58.080  1.00  0.00     0.050 C 
HETATM   21  C   UNL     1     -46.824  57.112 -60.352  1.00  0.00     0.028 A 
HETATM   22  C   UNL     1     -46.622  56.234 -61.404  1.00  0.00     0.117 A 
HETATM   23  N   UNL     1     -45.659  55.296 -61.411  1.00  0.00    -0.271 NA
HETATM   24  C   UNL     1     -44.850  55.271 -60.325  1.00  0.00     0.146 A 
ENDBRANCH   1  18
TORSDOF 5
ENDMDL
MODEL 3
REMARK VINA RESULT:      -7.2      1.885      2.266
REMARK  5 active torsions:
REMARK  status: ('A' for Active; 'I' for Inactive)
REMARK    1  A    between atoms: C_3  and  N_4 
REMARK       I    between atoms: N_4  and  C_5 
REMARK       I    between atoms: C_5  and  N_6 
REMARK    2  A    between atoms: N_6  and  C_7 
REMARK    3  A    between atoms: C_7  and  C_8 
REMARK    4  A    between atoms: C_8  and  O_9 
REMARK    5  A    between atoms: O_9  and  C_10 
ROOT
HETATM    1  N   UNL     1     -42.353  56.609 -52.053  1.00  0.00    -0.307 N 
HETATM    2  C   UNL     1     -42.680  55.436 -51.433  1.00  0.00     0.320 C 
HETATM    3  N   UNL     1     -42.779  54.352 -52.258  1.00  0.00    -0.340 N 
HETATM    4  O   UNL     1     -42.856  55.266 -50.233  1.00  0.00    -0.247 OA
HETATM    5  H   UNL     1     -41.779  56.473 -52.869  1.00  0.00     0.170 HD
HETATM    6  H   UNL     1     -43.146  53.546 -51.760  1.00  0.00     0.164 HD
ENDROOT
BRANCH   3   7
HETATM    7  C   UNL     1     -42.880  54.312 -53.712  1.00  0.00     0.156 C 
BRANCH   7   8
HETATM    8  C   UNL     1     -41.552  53.933 -54.391  1.00  0.00     0.142 C 
HETATM    9  C   UNL     1     -40.988  55.091 -55.215  1.00  0.00     0.042 C 
BRANCH   8  10
HETATM   10  O   UNL     1     -40.581  53.614 -53.385  1.00  0.00    -0.343 OA
BRANCH  10  11
HETATM   11  C   UNL     1     -40.229  52.301 -53.222  1.00  0.00     0.086 A 
HETATM   12  C   UNL     1     -39.922  51.872 -51.922  1.00  0.00     0.044 A 
HETATM   13 BR   UNL     1     -39.946  53.074 -50.450  1.00  0.00    -0.048 Br
HETATM   14  C   UNL     1     -39.577  50.541 -51.672  1.00  0.00     0.022 A 
HETATM   15  C   UNL     1     -39.546  49.623 -52.719  1.00  0.00     0.002 A 
HETATM   16  C   UNL     1     -39.870  50.033 -54.010  1.00  0.00     0.003 A 
HETATM   17  C   UNL     1     -40.219  51.363 -54.260  1.00  0.00     0.038 A 
ENDBRANCH  10  11
ENDBRANCH   8  10
ENDBRANCH   7   8
ENDBRANCH   3   7
BRANCH   1  18
HETATM   18  C   UNL     1     -42.291  57.906 -51.486  1.00  0.00     0.059 A 
HETATM   19  C   UNL     1     -43.272  58.906 -51.553  1.00  0.00    -0.032 A 
HETATM   20  C   UNL     1     -44.566  58.799 -52.307  1.00  0.00     0.050 C 
HETATM   21  C   UNL     1     -43.029  60.120 -50.883  1.00  0.00     0.028 A 
HETATM   22  C   UNL     1     -41.820  60.322 -50.237  1.00  0.00     0.117 A 
HETATM   23  N   UNL     1     -40.834  59.411 -50.210  1.00  0.00    -0.271 NA
HETATM   24  C   UNL     1     -41.097  58.236 -50.831  1.00  0.00     0.146 A 
ENDBRANCH   1  18
TORSDOF 5
ENDMDL
MODEL 4
REMARK VINA RESULT:      -7.0      2.580      6.985
REMARK  5 active torsions:
REMARK  status: ('A' for Active; 'I' for Inactive)
REMARK    1  A    between atoms: C_3  and  N_4 
REMARK       I    between atoms: N_4  and  C_5 
REMARK       I    between atoms: C_5  and  N_6 
REMARK    2  A    between atoms: N_6  and  C_7 
REMARK    3  A    between atoms: C_7  and  C_8 
REMARK    4  A    between atoms: C_8  and  O_9 
REMARK    5  A    between atoms: O_9  and  C_10 
ROOT
HETATM    1  N   UNL     1     -41.341  53.644 -53.808  1.00  0.00    -0.307 N 
HETATM    2  C   UNL     1     -40.870  54.606 -54.656  1.00  0.00     0.320 C 
HETATM    3  N   UNL     1     -41.763  55.590 -54.970  1.00  0.00    -0.340 N 
HETATM    4  O   UNL     1     -39.741  54.682 -55.124  1.00  0.00    -0.247 OA
HETATM    5  H   UNL     1     -42.035  53.993 -53.168  1.00  0.00     0.170 HD
HETATM    6  H   UNL     1     -41.397  56.198 -55.696  1.00  0.00     0.164 HD
ENDROOT
BRANCH   3   7
HETATM    7  C   UNL     1     -43.208  55.613 -54.778  1.00  0.00     0.156 C 
BRANCH   7   8
HETATM    8  C   UNL     1     -43.718  56.964 -54.247  1.00  0.00     0.142 C 
HETATM    9  C   UNL     1     -45.060  57.347 -54.872  1.00  0.00     0.042 C 
BRANCH   8  10
HETATM   10  O   UNL     1     -43.920  56.870 -52.830  1.00  0.00    -0.343 OA
BRANCH  10  11
HETATM   11  C   UNL     1     -42.870  57.170 -52.007  1.00  0.00     0.086 A 
HETATM   12  C   UNL     1     -42.490  56.203 -51.064  1.00  0.00     0.044 A 
HETATM   13 BR   UNL     1     -43.429  54.558 -50.901  1.00  0.00    -0.048 Br
HETATM   14  C   UNL     1     -41.412  56.427 -50.204  1.00  0.00     0.022 A 
HETATM   15  C   UNL     1     -40.694  57.618 -50.286  1.00  0.00     0.002 A 
HETATM   16  C   UNL     1     -41.047  58.576 -51.233  1.00  0.00     0.003 A 
HETATM   17  C   UNL     1     -42.124  58.351 -52.096  1.00  0.00     0.038 A 
ENDBRANCH  10  11
ENDBRANCH   8  10
ENDBRANCH   7   8
ENDBRANCH   3   7
BRANCH   1  18
HETATM   18  C   UNL     1     -40.694  52.451 -53.400  1.00  0.00     0.059 A 
HETATM   19  C   UNL     1     -40.024  52.225 -52.189  1.00  0.00    -0.032 A 
HETATM   20  C   UNL     1     -39.817  53.249 -51.110  1.00  0.00     0.050 C 
HETATM   21  C   UNL     1     -39.479  50.947 -51.960  1.00  0.00     0.028 A 
HETATM   22  C   UNL     1     -39.558  49.977 -52.945  1.00  0.00     0.117 A 
HETATM   23  N   UNL     1     -40.134  50.182 -54.142  1.00  0.00    -0.271 NA
HETATM   24  C   UNL     1     -40.682  51.405 -54.333  1.00  0.00     0.146 A 
ENDBRANCH   1  18
TORSDOF 5
ENDMDL
MODEL 5
REMARK VINA RESULT:      -7.0      1.435      2.035
REMARK  5 active torsions:
REMARK  status: ('A' for Active; 'I' for Inactive)
REMARK    1  A    between atoms: C_3  and  N_4 
REMARK       I    between atoms: N_4  and  C_5 
REMARK       I    between atoms: C_5  and  N_6 
REMARK    2  A    between atoms: N_6  and  C_7 
REMARK    3  A    between atoms: C_7  and  C_8 
REMARK    4  A    between atoms: C_8  and  O_9 
REMARK    5  A    between atoms: O_9  and  C_10 
ROOT
HETATM    1  N   UNL     1     -43.854  57.318 -52.641  1.00  0.00    -0.307 N 
HETATM    2  C   UNL     1     -44.420  57.249 -53.882  1.00  0.00     0.320 C 
HETATM    3  N   UNL     1     -44.550  55.988 -54.391  1.00  0.00    -0.340 N 
HETATM    4  O   UNL     1     -44.840  58.186 -54.549  1.00  0.00    -0.247 OA
HETATM    5  H   UNL     1     -44.045  56.505 -52.079  1.00  0.00     0.170 HD
HETATM    6  H   UNL     1     -44.858  56.015 -55.359  1.00  0.00     0.164 HD
ENDROOT
BRANCH   3   7
HETATM    7  C   UNL     1     -43.919  54.751 -53.949  1.00  0.00     0.156 C 
BRANCH   7   8
HETATM    8  C   UNL     1     -42.759  54.315 -54.862  1.00  0.00     0.142 C 
HETATM    9  C   UNL     1     -42.774  55.065 -56.193  1.00  0.00     0.042 C 
BRANCH   8  10
HETATM   10  O   UNL     1     -41.513  54.615 -54.218  1.00  0.00    -0.343 OA
BRANCH  10  11
HETATM   11  C   UNL     1     -40.817  53.585 -53.646  1.00  0.00     0.086 A 
HETATM   12  C   UNL     1     -40.642  53.618 -52.254  1.00  0.00     0.044 A 
HETATM   13 BR   UNL     1     -41.301  55.061 -51.207  1.00  0.00    -0.048 Br
HETATM   14  C   UNL     1     -39.963  52.589 -51.595  1.00  0.00     0.022 A 
HETATM   15  C   UNL     1     -39.461  51.511 -52.321  1.00  0.00     0.002 A 
HETATM   16  C   UNL     1     -39.649  51.456 -53.700  1.00  0.00     0.003 A 
HETATM   17  C   UNL     1     -40.331  52.483 -54.359  1.00  0.00     0.038 A 
ENDBRANCH  10  11
ENDBRANCH   8  10
ENDBRANCH   7   8
ENDBRANCH   3   7
BRANCH   1  18
HETATM   18  C   UNL     1     -43.489  58.478 -51.914  1.00  0.00     0.059 A 
HETATM   19  C   UNL     1     -44.332  59.294 -51.146  1.00  0.00    -0.032 A 
HETATM   20  C   UNL     1     -45.816  59.114 -51.002  1.00  0.00     0.050 C 
HETATM   21  C   UNL     1     -43.759  60.385 -50.465  1.00  0.00     0.028 A 
HETATM   22  C   UNL     1     -42.411  60.664 -50.618  1.00  0.00     0.117 A 
HETATM   23  N   UNL     1     -41.590  59.941 -51.398  1.00  0.00    -0.271 NA
HETATM   24  C   UNL     1     -42.149  58.876 -52.020  1.00  0.00     0.146 A 
ENDBRANCH   1  18
TORSDOF 5
ENDMDL
MODEL 6
REMARK VINA RESULT:      -6.9      2.202      3.175
REMARK  5 active torsions:
REMARK  status: ('A' for Active; 'I' for Inactive)
REMARK    1  A    between atoms: C_3  and  N_4 
REMARK       I    between atoms: N_4  and  C_5 
REMARK       I    between atoms: C_5  and  N_6 
REMARK    2  A    between atoms: N_6  and  C_7 
REMARK    3  A    between atoms: C_7  and  C_8 
REMARK    4  A    between atoms: C_8  and  O_9 
REMARK    5  A    between atoms: O_9  and  C_10 
ROOT
HETATM    1  N   UNL     1     -43.251  57.374 -52.240  1.00  0.00    -0.307 N 
HETATM    2  C   UNL     1     -43.745  56.834 -51.086  1.00  0.00     0.320 C 
HETATM    3  N   UNL     1     -42.832  56.163 -50.323  1.00  0.00    -0.340 N 
HETATM    4  O   UNL     1     -44.892  56.922 -50.667  1.00  0.00    -0.247 OA
HETATM    5  H   UNL     1     -42.283  57.638 -52.165  1.00  0.00     0.170 HD
HETATM    6  H   UNL     1     -43.284  55.682 -49.551  1.00  0.00     0.164 HD
ENDROOT
BRANCH   3   7
HETATM    7  C   UNL     1     -41.503  55.688 -50.689  1.00  0.00     0.156 C 
BRANCH   7   8
HETATM    8  C   UNL     1     -41.482  54.191 -51.044  1.00  0.00     0.142 C 
HETATM    9  C   UNL     1     -42.733  53.775 -51.817  1.00  0.00     0.042 C 
BRANCH   8  10
HETATM   10  O   UNL     1     -40.352  53.921 -51.885  1.00  0.00    -0.343 OA
BRANCH  10  11
HETATM   11  C   UNL     1     -40.130  52.627 -52.271  1.00  0.00     0.086 A 
HETATM   12  C   UNL     1     -40.128  52.354 -53.647  1.00  0.00     0.044 A 
HETATM   13 BR   UNL     1     -40.469  53.717 -54.927  1.00  0.00    -0.048 Br
HETATM   14  C   UNL     1     -39.884  51.061 -54.119  1.00  0.00     0.022 A 
HETATM   15  C   UNL     1     -39.629  50.030 -53.219  1.00  0.00     0.002 A 
HETATM   16  C   UNL     1     -39.606  50.293 -51.851  1.00  0.00     0.003 A 
HETATM   17  C   UNL     1     -39.846  51.586 -51.378  1.00  0.00     0.038 A 
ENDBRANCH  10  11
ENDBRANCH   8  10
ENDBRANCH   7   8
ENDBRANCH   3   7
BRANCH   1  18
HETATM   18  C   UNL     1     -43.971  58.018 -53.276  1.00  0.00     0.059 A 
HETATM   19  C   UNL     1     -44.388  59.357 -53.310  1.00  0.00    -0.032 A 
HETATM   20  C   UNL     1     -44.194  60.352 -52.202  1.00  0.00     0.050 C 
HETATM   21  C   UNL     1     -45.062  59.814 -54.459  1.00  0.00     0.028 A 
HETATM   22  C   UNL     1     -45.351  58.931 -55.486  1.00  0.00     0.117 A 
HETATM   23  N   UNL     1     -45.025  57.628 -55.456  1.00  0.00    -0.271 NA
HETATM   24  C   UNL     1     -44.348  57.212 -54.359  1.00  0.00     0.146 A 
ENDBRANCH   1  18
TORSDOF 5
ENDMDL
MODEL 7
REMARK VINA RESULT:      -6.8      2.297      3.216
REMARK  5 active torsions:
REMARK  status: ('A' for Active; 'I' for Inactive)
REMARK    1  A    between atoms: C_3  and  N_4 
REMARK       I    between atoms: N_4  and  C_5 
REMARK       I    between atoms: C_5  and  N_6 
REMARK    2  A    between atoms: N_6  and  C_7 
REMARK    3  A    between atoms: C_7  and  C_8 
REMARK    4  A    between atoms: C_8  and  O_9 
REMARK    5  A    between atoms: O_9  and  C_10 
ROOT
HETATM    1  N   UNL     1     -43.015  58.749 -51.114  1.00  0.00    -0.307 N 
HETATM    2  C   UNL     1     -43.980  57.782 -51.138  1.00  0.00     0.320 C 
HETATM    3  N   UNL     1     -43.583  56.556 -50.686  1.00  0.00    -0.340 N 
HETATM    4  O   UNL     1     -45.145  57.917 -51.488  1.00  0.00    -0.247 OA
HETATM    5  H   UNL     1     -42.346  58.616 -50.373  1.00  0.00     0.170 HD
HETATM    6  H   UNL     1     -44.302  55.856 -50.847  1.00  0.00     0.164 HD
ENDROOT
BRANCH   3   7
HETATM    7  C   UNL     1     -42.232  56.053 -50.464  1.00  0.00     0.156 C 
BRANCH   7   8
HETATM    8  C   UNL     1     -42.038  54.617 -50.982  1.00  0.00     0.142 C 
HETATM    9  C   UNL     1     -43.320  54.063 -51.604  1.00  0.00     0.042 C 
BRANCH   8  10
HETATM   10  O   UNL     1     -41.033  54.615 -52.005  1.00  0.00    -0.343 OA
BRANCH  10  11
HETATM   11  C   UNL     1     -40.550  53.409 -52.433  1.00  0.00     0.086 A 
HETATM   12  C   UNL     1     -40.561  53.162 -53.814  1.00  0.00     0.044 A 
HETATM   13 BR   UNL     1     -41.264  54.431 -55.042  1.00  0.00    -0.048 Br
HETATM   14  C   UNL     1     -40.062  51.962 -54.329  1.00  0.00     0.022 A 
HETATM   15  C   UNL     1     -39.537  51.001 -53.468  1.00  0.00     0.002 A 
HETATM   16  C   UNL     1     -39.500  51.245 -52.097  1.00  0.00     0.003 A 
HETATM   17  C   UNL     1     -39.995  52.446 -51.582  1.00  0.00     0.038 A 
ENDBRANCH  10  11
ENDBRANCH   8  10
ENDBRANCH   7   8
ENDBRANCH   3   7
BRANCH   1  18
HETATM   18  C   UNL     1     -43.094  60.070 -51.621  1.00  0.00     0.059 A 
HETATM   19  C   UNL     1     -43.515  61.216 -50.931  1.00  0.00    -0.032 A 
HETATM   20  C   UNL     1     -44.024  61.238 -49.519  1.00  0.00     0.050 C 
HETATM   21  C   UNL     1     -43.482  62.449 -51.610  1.00  0.00     0.028 A 
HETATM   22  C   UNL     1     -43.103  62.494 -52.942  1.00  0.00     0.117 A 
HETATM   23  N   UNL     1     -42.759  61.405 -53.651  1.00  0.00    -0.271 NA
HETATM   24  C   UNL     1     -42.764  60.232 -52.974  1.00  0.00     0.146 A 
ENDBRANCH   1  18
TORSDOF 5
ENDMDL
MODEL 8
REMARK VINA RESULT:      -6.7      3.208      7.053
REMARK  5 active torsions:
REMARK  status: ('A' for Active; 'I' for Inactive)
REMARK    1  A    between atoms: C_3  and  N_4 
REMARK       I    between atoms: N_4  and  C_5 
REMARK       I    between atoms: C_5  and  N_6 
REMARK    2  A    between atoms: N_6  and  C_7 
REMARK    3  A    between atoms: C_7  and  C_8 
REMARK    4  A    between atoms: C_8  and  O_9 
REMARK    5  A    between atoms: O_9  and  C_10 
ROOT
HETATM    1  N   UNL     1     -40.764  53.934 -51.334  1.00  0.00    -0.307 N 
HETATM    2  C   UNL     1     -40.339  54.677 -50.270  1.00  0.00     0.320 C 
HETATM    3  N   UNL     1     -40.858  55.939 -50.199  1.00  0.00    -0.340 N 
HETATM    4  O   UNL     1     -39.580  54.316 -49.379  1.00  0.00    -0.247 OA
HETATM    5  H   UNL     1     -41.697  54.172 -51.629  1.00  0.00     0.170 HD
HETATM    6  H   UNL     1     -40.410  56.478 -49.464  1.00  0.00     0.164 HD
ENDROOT
BRANCH   3   7
HETATM    7  C   UNL     1     -41.554  56.703 -51.227  1.00  0.00     0.156 C 
BRANCH   7   8
HETATM    8  C   UNL     1     -42.842  56.016 -51.712  1.00  0.00     0.142 C 
HETATM    9  C   UNL     1     -43.934  56.042 -50.642  1.00  0.00     0.042 C 
BRANCH   8  10
HETATM   10  O   UNL     1     -43.350  56.718 -52.856  1.00  0.00    -0.343 OA
BRANCH  10  11
HETATM   11  C   UNL     1     -43.207  56.136 -54.086  1.00  0.00     0.086 A 
HETATM   12  C   UNL     1     -42.637  56.913 -55.106  1.00  0.00     0.044 A 
HETATM   13 BR   UNL     1     -42.127  58.719 -54.807  1.00  0.00    -0.048 Br
HETATM   14  C   UNL     1     -42.437  56.380 -56.382  1.00  0.00     0.022 A 
HETATM   15  C   UNL     1     -42.796  55.061 -56.649  1.00  0.00     0.002 A 
HETATM   16  C   UNL     1     -43.341  54.273 -55.638  1.00  0.00     0.003 A 
HETATM   17  C   UNL     1     -43.538  54.804 -54.360  1.00  0.00     0.038 A 
ENDBRANCH  10  11
ENDBRANCH   8  10
ENDBRANCH   7   8
ENDBRANCH   3   7
BRANCH   1  18
HETATM   18  C   UNL     1     -40.318  52.650 -51.732  1.00  0.00     0.059 A 
HETATM   19  C   UNL     1     -40.048  52.216 -53.038  1.00  0.00    -0.032 A 
HETATM   20  C   UNL     1     -40.245  53.036 -54.281  1.00  0.00     0.050 C 
HETATM   21  C   UNL     1     -39.573  50.902 -53.216  1.00  0.00     0.028 A 
HETATM   22  C   UNL     1     -39.447  50.060 -52.124  1.00  0.00     0.117 A 
HETATM   23  N   UNL     1     -39.760  50.423 -50.869  1.00  0.00    -0.271 NA
HETATM   24  C   UNL     1     -40.184  51.699 -50.711  1.00  0.00     0.146 A 
ENDBRANCH   1  18
TORSDOF 5
ENDMDL
MODEL 9
REMARK VINA RESULT:      -6.6      3.671      7.078
REMARK  5 active torsions:
REMARK  status: ('A' for Active; 'I' for Inactive)
REMARK    1  A    between atoms: C_3  and  N_4 
REMARK       I    between atoms: N_4  and  C_5 
REMARK       I    between atoms: C_5  and  N_6 
REMARK    2  A    between atoms: N_6  and  C_7 
REMARK    3  A    between atoms: C_7  and  C_8 
REMARK    4  A    between atoms: C_8  and  O_9 
REMARK    5  A    between atoms: O_9  and  C_10 
ROOT
HETATM    1  N   UNL     1     -42.254  55.207 -52.793  1.00  0.00    -0.307 N 
HETATM    2  C   UNL     1     -41.885  56.496 -53.051  1.00  0.00     0.320 C 
HETATM    3  N   UNL     1     -42.886  57.304 -53.511  1.00  0.00    -0.340 N 
HETATM    4  O   UNL     1     -40.778  56.990 -52.884  1.00  0.00    -0.247 OA
HETATM    5  H   UNL     1     -43.215  55.125 -52.504  1.00  0.00     0.170 HD
HETATM    6  H   UNL     1     -42.523  58.207 -53.802  1.00  0.00     0.164 HD
ENDROOT
BRANCH   3   7
HETATM    7  C   UNL     1     -44.193  56.934 -54.040  1.00  0.00     0.156 C 
BRANCH   7   8
HETATM    8  C   UNL     1     -44.359  57.295 -55.527  1.00  0.00     0.142 C 
HETATM    9  C   UNL     1     -45.280  58.500 -55.717  1.00  0.00     0.042 C 
BRANCH   8  10
HETATM   10  O   UNL     1     -43.080  57.647 -56.073  1.00  0.00    -0.343 OA
BRANCH  10  11
HETATM   11  C   UNL     1     -42.843  57.371 -57.392  1.00  0.00     0.086 A 
HETATM   12  C   UNL     1     -42.286  58.393 -58.176  1.00  0.00     0.044 A 
HETATM   13 BR   UNL     1     -41.918  60.110 -57.448  1.00  0.00    -0.048 Br
HETATM   14  C   UNL     1     -41.994  58.179 -59.526  1.00  0.00     0.022 A 
HETATM   15  C   UNL     1     -42.247  56.937 -60.103  1.00  0.00     0.002 A 
HETATM   16  C   UNL     1     -42.779  55.908 -59.329  1.00  0.00     0.003 A 
HETATM   17  C   UNL     1     -43.068  56.120 -57.978  1.00  0.00     0.038 A 
ENDBRANCH  10  11
ENDBRANCH   8  10
ENDBRANCH   7   8
ENDBRANCH   3   7
BRANCH   1  18
HETATM   18  C   UNL     1     -41.422  54.122 -52.421  1.00  0.00     0.059 A 
HETATM   19  C   UNL     1     -40.609  53.351 -53.265  1.00  0.00    -0.032 A 
HETATM   20  C   UNL     1     -40.521  53.504 -54.756  1.00  0.00     0.050 C 
HETATM   21  C   UNL     1     -39.824  52.337 -52.686  1.00  0.00     0.028 A 
HETATM   22  C   UNL     1     -39.917  52.082 -51.327  1.00  0.00     0.117 A 
HETATM   23  N   UNL     1     -40.734  52.757 -50.502  1.00  0.00    -0.271 NA
HETATM   24  C   UNL     1     -41.458  53.752 -51.069  1.00  0.00     0.146 A 
ENDBRANCH   1  18
TORSDOF 5
ENDMDL
MODEL 10
REMARK VINA RESULT:      -6.6      2.655      4.589
REMARK  5 active torsions:
REMARK  status: ('A' for Active; 'I' for Inactive)
REMARK    1  A    between atoms: C_3  and  N_4 
REMARK       I    between atoms: N_4  and  C_5 
REMARK       I    between atoms: C_5  and  N_6 
REMARK    2  A    between atoms: N_6  and  C_7 
REMARK    3  A    between atoms: C_7  and  C_8 
REMARK    4  A    between atoms: C_8  and  O_9 
REMARK    5  A    between atoms: O_9  and  C_10 
ROOT
HETATM    1  N   UNL     1     -44.831  60.355 -49.772  1.00  0.00    -0.307 N 
HETATM    2  C   UNL     1     -45.169  59.176 -50.374  1.00  0.00     0.320 C 
HETATM    3  N   UNL     1     -44.130  58.503 -50.954  1.00  0.00    -0.340 N 
HETATM    4  O   UNL     1     -46.280  58.664 -50.414  1.00  0.00    -0.247 OA
HETATM    5  H   UNL     1     -43.893  60.353 -49.407  1.00  0.00     0.170 HD
HETATM    6  H   UNL     1     -44.464  57.707 -51.489  1.00  0.00     0.164 HD
ENDROOT
BRANCH   3   7
HETATM    7  C   UNL     1     -42.794  58.985 -51.280  1.00  0.00     0.156 C 
BRANCH   7   8
HETATM    8  C   UNL     1     -41.838  57.854 -51.697  1.00  0.00     0.142 C 
HETATM    9  C   UNL     1     -41.162  57.210 -50.486  1.00  0.00     0.042 C 
BRANCH   8  10
HETATM   10  O   UNL     1     -42.584  56.826 -52.364  1.00  0.00    -0.343 OA
BRANCH  10  11
HETATM   11  C   UNL     1     -41.889  55.854 -53.032  1.00  0.00     0.086 A 
HETATM   12  C   UNL     1     -42.157  54.520 -52.693  1.00  0.00     0.044 A 
HETATM   13 BR   UNL     1     -43.400  54.076 -51.324  1.00  0.00    -0.048 Br
HETATM   14  C   UNL     1     -41.505  53.471 -53.348  1.00  0.00     0.022 A 
HETATM   15  C   UNL     1     -40.585  53.748 -54.357  1.00  0.00     0.002 A 
HETATM   16  C   UNL     1     -40.328  55.068 -54.718  1.00  0.00     0.003 A 
HETATM   17  C   UNL     1     -40.983  56.117 -54.066  1.00  0.00     0.038 A 
ENDBRANCH  10  11
ENDBRANCH   8  10
ENDBRANCH   7   8
ENDBRANCH   3   7
BRANCH   1  18
HETATM   18  C   UNL     1     -45.698  61.316 -49.195  1.00  0.00     0.059 A 
HETATM   19  C   UNL     1     -45.981  61.490 -47.833  1.00  0.00    -0.032 A 
HETATM   20  C   UNL     1     -45.449  60.630 -46.722  1.00  0.00     0.050 C 
HETATM   21  C   UNL     1     -46.845  62.537 -47.463  1.00  0.00     0.028 A 
HETATM   22  C   UNL     1     -47.440  63.319 -48.439  1.00  0.00     0.117 A 
HETATM   23  N   UNL     1     -47.243  63.136 -49.756  1.00  0.00    -0.271 NA
HETATM   24  C   UNL     1     -46.382  62.147 -50.093  1.00  0.00     0.146 A 
ENDBRANCH   1  18
TORSDOF 5
ENDMDL
