MODEL 1
REMARK VINA RESULT:      -8.4      0.000      0.000
REMARK  7 active torsions:
REMARK  status: ('A' for Active; 'I' for Inactive)
REMARK    1  A    between atoms: C_3  and  C_4 
REMARK    2  A    between atoms: C_4  and  N_5 
REMARK    3  A    between atoms: C_4  and  C_9 
REMARK       I    between atoms: N_5  and  C_6 
REMARK       I    between atoms: C_6  and  N_7 
REMARK    4  A    between atoms: C_9  and  C_10 
REMARK       I    between atoms: C_10  and  N_11 
REMARK    5  A    between atoms: N_11  and  C_12 
REMARK    6  A    between atoms: C_12  and  C_13 
REMARK    7  A    between atoms: C_13  and  N_14 
ROOT
HETATM    1  C   UNL     1     -40.583  54.406 -54.759  1.00  0.00     0.132 C 
ENDROOT
BRANCH   1   2
HETATM    2  C   UNL     1     -40.814  53.836 -53.347  1.00  0.00     0.128 C 
BRANCH   2   3
HETATM    3  C   UNL     1     -40.348  52.383 -53.260  1.00  0.00    -0.029 A 
HETATM    4  C   UNL     1     -39.869  51.822 -52.055  1.00  0.00    -0.054 A 
HETATM    5  C   UNL     1     -39.777  52.614 -50.777  1.00  0.00     0.049 C 
HETATM    6  C   UNL     1     -39.453  50.479 -52.037  1.00  0.00     0.007 A 
HETATM    7  C   UNL     1     -39.521  49.690 -53.182  1.00  0.00     0.001 A 
HETATM    8  C   UNL     1     -40.012  50.227 -54.365  1.00  0.00     0.001 A 
HETATM    9  C   UNL     1     -40.426  51.558 -54.403  1.00  0.00     0.010 A 
ENDBRANCH   2   3
BRANCH   2  10
HETATM   10  N   UNL     1     -42.221  53.893 -52.957  1.00  0.00    -0.334 N 
HETATM   11  C   UNL     1     -42.689  54.616 -51.907  1.00  0.00     0.314 C 
HETATM   12  N   UNL     1     -44.022  54.461 -51.718  1.00  0.00    -0.352 N 
HETATM   13  O   UNL     1     -42.028  55.380 -51.216  1.00  0.00    -0.248 OA
HETATM   14  H   UNL     1     -44.458  53.586 -51.975  1.00  0.00     0.160 HD
HETATM   15  H   UNL     1     -44.405  54.899 -50.891  1.00  0.00     0.160 HD
HETATM   16  H   UNL     1     -42.854  53.245 -53.404  1.00  0.00     0.165 HD
ENDBRANCH   2  10
ENDBRANCH   1   2
BRANCH   1  17
HETATM   17  C   UNL     1     -41.729  55.291 -55.188  1.00  0.00     0.219 C 
HETATM   18  N   UNL     1     -41.598  56.621 -54.866  1.00  0.00    -0.359 N 
HETATM   19  H   UNL     1     -40.779  56.912 -54.341  1.00  0.00     0.162 HD
HETATM   20  O   UNL     1     -42.717  54.873 -55.789  1.00  0.00    -0.274 OA
BRANCH  18  21
HETATM   21  C   UNL     1     -42.623  57.615 -55.142  1.00  0.00     0.150 C 
BRANCH  21  22
HETATM   22  C   UNL     1     -42.599  58.198 -56.573  1.00  0.00     0.254 C 
BRANCH  22  23
HETATM   23  N   UNL     1     -43.277  57.317 -57.590  1.00  0.00    -0.065 N 
HETATM   24  H   UNL     1     -43.433  56.401 -57.118  1.00  0.00     0.280 HD
HETATM   25  C   UNL     1     -44.664  57.775 -57.991  1.00  0.00     0.274 C 
HETATM   26  C   UNL     1     -45.223  56.966 -59.114  1.00  0.00    -0.019 A 
HETATM   27  C   UNL     1     -44.441  56.115 -59.870  1.00  0.00    -0.008 A 
HETATM   28  C   UNL     1     -46.579  56.952 -59.567  1.00  0.00     0.017 A 
HETATM   29  S   UNL     1     -45.308  55.319 -61.093  1.00  0.00    -0.106 SA
HETATM   30  C   UNL     1     -42.983  55.878 -59.636  1.00  0.00     0.074 C 
HETATM   31  C   UNL     1     -46.762  56.100 -60.637  1.00  0.00     0.051 A 
HETATM   32  C   UNL     1     -42.398  57.023 -58.794  1.00  0.00     0.240 C 
ENDBRANCH  22  23
ENDBRANCH  21  22
ENDBRANCH  18  21
ENDBRANCH   1  17
TORSDOF 7
ENDMDL
MODEL 2
REMARK VINA RESULT:      -8.1      2.252      3.133
REMARK  7 active torsions:
REMARK  status: ('A' for Active; 'I' for Inactive)
REMARK    1  A    between atoms: C_3  and  C_4 
REMARK    2  A    between atoms: C_4  and  N_5 
REMARK    3  A    between atoms: C_4  and  C_9 
REMARK       I    between atoms: N_5  and  C_6 
REMARK       I    between atoms: C_6  and  N_7 
REMARK    4  A    between atoms: C_9  and  C_10 
REMARK       I    between atoms: C_10  and  N_11 
REMARK    5  A    between atoms: N_11  and  C_12 
REMARK    6  A    between atoms: C_12  and  C_13 
REMARK    7  A    between atoms: C_13  and  N_14 
ROOT
HETATM    1  C   UNL     1     -40.312  54.441 -54.778  1.00  0.00     0.132 C 
ENDROOT
BRANCH   1   2
HETATM    2  C   UNL     1     -40.676  53.889 -53.387  1.00  0.00     0.128 C 
BRANCH   2   3
HETATM    3  C   UNL     1     -40.285  52.417 -53.261  1.00  0.00    -0.029 A 
HETATM    4  C   UNL     1     -39.854  51.860 -52.037  1.00  0.00    -0.054 A 
HETATM    5  C   UNL     1     -39.743  52.673 -50.775  1.00  0.00     0.049 C 
HETATM    6  C   UNL     1     -39.506  50.498 -51.984  1.00  0.00     0.007 A 
HETATM    7  C   UNL     1     -39.595  49.688 -53.113  1.00  0.00     0.001 A 
HETATM    8  C   UNL     1     -40.040  50.223 -54.315  1.00  0.00     0.001 A 
HETATM    9  C   UNL     1     -40.386  51.572 -54.388  1.00  0.00     0.010 A 
ENDBRANCH   2   3
BRANCH   2  10
HETATM   10  N   UNL     1     -42.104  54.013 -53.106  1.00  0.00    -0.334 N 
HETATM   11  C   UNL     1     -42.613  54.676 -52.035  1.00  0.00     0.314 C 
HETATM   12  N   UNL     1     -43.963  54.601 -51.967  1.00  0.00    -0.352 N 
HETATM   13  O   UNL     1     -41.965  55.330 -51.228  1.00  0.00    -0.248 OA
HETATM   14  H   UNL     1     -44.431  53.783 -52.335  1.00  0.00     0.160 HD
HETATM   15  H   UNL     1     -44.387  54.993 -51.137  1.00  0.00     0.160 HD
HETATM   16  H   UNL     1     -42.737  53.451 -53.658  1.00  0.00     0.165 HD
ENDBRANCH   2  10
ENDBRANCH   1   2
BRANCH   1  17
HETATM   17  C   UNL     1     -41.324  55.459 -55.247  1.00  0.00     0.219 C 
HETATM   18  N   UNL     1     -42.062  55.091 -56.346  1.00  0.00    -0.359 N 
HETATM   19  H   UNL     1     -41.861  54.198 -56.787  1.00  0.00     0.162 HD
HETATM   20  O   UNL     1     -41.496  56.544 -54.695  1.00  0.00    -0.274 OA
BRANCH  18  21
HETATM   21  C   UNL     1     -43.041  55.962 -56.980  1.00  0.00     0.150 C 
BRANCH  21  22
HETATM   22  C   UNL     1     -42.868  56.137 -58.505  1.00  0.00     0.254 C 
BRANCH  22  23
HETATM   23  N   UNL     1     -42.713  57.575 -58.930  1.00  0.00    -0.065 N 
HETATM   24  H   UNL     1     -43.675  57.920 -59.132  1.00  0.00     0.280 HD
HETATM   25  C   UNL     1     -42.205  58.497 -57.840  1.00  0.00     0.274 C 
HETATM   26  C   UNL     1     -41.916  59.869 -58.353  1.00  0.00    -0.019 A 
HETATM   27  C   UNL     1     -41.842  60.151 -59.703  1.00  0.00    -0.008 A 
HETATM   28  C   UNL     1     -41.671  61.041 -57.572  1.00  0.00     0.017 A 
HETATM   29  S   UNL     1     -41.488  61.779 -60.028  1.00  0.00    -0.106 SA
HETATM   30  C   UNL     1     -42.075  59.149 -60.789  1.00  0.00     0.074 C 
HETATM   31  C   UNL     1     -41.425  62.148 -58.357  1.00  0.00     0.051 A 
HETATM   32  C   UNL     1     -41.931  57.727 -60.224  1.00  0.00     0.240 C 
ENDBRANCH  22  23
ENDBRANCH  21  22
ENDBRANCH  18  21
ENDBRANCH   1  17
TORSDOF 7
ENDMDL
MODEL 3
REMARK VINA RESULT:      -8.1      2.863      4.266
REMARK  7 active torsions:
REMARK  status: ('A' for Active; 'I' for Inactive)
REMARK    1  A    between atoms: C_3  and  C_4 
REMARK    2  A    between atoms: C_4  and  N_5 
REMARK    3  A    between atoms: C_4  and  C_9 
REMARK       I    between atoms: N_5  and  C_6 
REMARK       I    between atoms: C_6  and  N_7 
REMARK    4  A    between atoms: C_9  and  C_10 
REMARK       I    between atoms: C_10  and  N_11 
REMARK    5  A    between atoms: N_11  and  C_12 
REMARK    6  A    between atoms: C_12  and  C_13 
REMARK    7  A    between atoms: C_13  and  N_14 
ROOT
HETATM    1  C   UNL     1     -40.404  54.168 -54.753  1.00  0.00     0.132 C 
ENDROOT
BRANCH   1   2
HETATM    2  C   UNL     1     -40.718  53.602 -53.355  1.00  0.00     0.128 C 
BRANCH   2   3
HETATM    3  C   UNL     1     -40.270  52.146 -53.240  1.00  0.00    -0.029 A 
HETATM    4  C   UNL     1     -39.878  51.580 -52.006  1.00  0.00    -0.054 A 
HETATM    5  C   UNL     1     -39.867  52.369 -50.723  1.00  0.00     0.049 C 
HETATM    6  C   UNL     1     -39.474  50.234 -51.963  1.00  0.00     0.007 A 
HETATM    7  C   UNL     1     -39.470  49.447 -53.112  1.00  0.00     0.001 A 
HETATM    8  C   UNL     1     -39.876  49.989 -54.324  1.00  0.00     0.001 A 
HETATM    9  C   UNL     1     -40.277  51.323 -54.387  1.00  0.00     0.010 A 
ENDBRANCH   2   3
BRANCH   2  10
HETATM   10  N   UNL     1     -42.144  53.672 -53.044  1.00  0.00    -0.334 N 
HETATM   11  C   UNL     1     -42.659  54.360 -51.992  1.00  0.00     0.314 C 
HETATM   12  N   UNL     1     -44.003  54.225 -51.888  1.00  0.00    -0.352 N 
HETATM   13  O   UNL     1     -42.025  55.080 -51.232  1.00  0.00    -0.248 OA
HETATM   14  H   UNL     1     -44.440  53.370 -52.206  1.00  0.00     0.160 HD
HETATM   15  H   UNL     1     -44.426  54.635 -51.065  1.00  0.00     0.160 HD
HETATM   16  H   UNL     1     -42.762  53.057 -53.555  1.00  0.00     0.165 HD
ENDBRANCH   2  10
ENDBRANCH   1   2
BRANCH   1  17
HETATM   17  C   UNL     1     -40.973  55.556 -54.924  1.00  0.00     0.219 C 
HETATM   18  N   UNL     1     -41.712  55.752 -56.066  1.00  0.00    -0.359 N 
HETATM   19  H   UNL     1     -41.796  54.984 -56.725  1.00  0.00     0.162 HD
HETATM   20  O   UNL     1     -40.804  56.461 -54.108  1.00  0.00    -0.274 OA
BRANCH  18  21
HETATM   21  C   UNL     1     -42.289  57.036 -56.435  1.00  0.00     0.150 C 
BRANCH  21  22
HETATM   22  C   UNL     1     -43.832  57.060 -56.511  1.00  0.00     0.254 C 
BRANCH  22  23
HETATM   23  N   UNL     1     -44.476  57.821 -55.381  1.00  0.00    -0.065 N 
HETATM   24  H   UNL     1     -45.504  57.735 -55.525  1.00  0.00     0.280 HD
HETATM   25  C   UNL     1     -44.238  57.224 -54.009  1.00  0.00     0.274 C 
HETATM   26  C   UNL     1     -44.756  58.099 -52.915  1.00  0.00    -0.019 A 
HETATM   27  C   UNL     1     -45.126  59.412 -53.135  1.00  0.00    -0.008 A 
HETATM   28  C   UNL     1     -44.928  57.742 -51.542  1.00  0.00     0.017 A 
HETATM   29  S   UNL     1     -45.668  60.197 -51.731  1.00  0.00    -0.106 SA
HETATM   30  C   UNL     1     -45.092  60.087 -54.469  1.00  0.00     0.074 C 
HETATM   31  C   UNL     1     -45.418  58.789 -50.789  1.00  0.00     0.051 A 
HETATM   32  C   UNL     1     -44.170  59.309 -55.422  1.00  0.00     0.240 C 
ENDBRANCH  22  23
ENDBRANCH  21  22
ENDBRANCH  18  21
ENDBRANCH   1  17
TORSDOF 7
ENDMDL
MODEL 4
REMARK VINA RESULT:      -7.9      1.559      2.075
REMARK  7 active torsions:
REMARK  status: ('A' for Active; 'I' for Inactive)
REMARK    1  A    between atoms: C_3  and  C_4 
REMARK    2  A    between atoms: C_4  and  N_5 
REMARK    3  A    between atoms: C_4  and  C_9 
REMARK       I    between atoms: N_5  and  C_6 
REMARK       I    between atoms: C_6  and  N_7 
REMARK    4  A    between atoms: C_9  and  C_10 
REMARK       I    between atoms: C_10  and  N_11 
REMARK    5  A    between atoms: N_11  and  C_12 
REMARK    6  A    between atoms: C_12  and  C_13 
REMARK    7  A    between atoms: C_13  and  N_14 
ROOT
HETATM    1  C   UNL     1     -40.263  54.402 -54.816  1.00  0.00     0.132 C 
ENDROOT
BRANCH   1   2
HETATM    2  C   UNL     1     -40.654  53.898 -53.414  1.00  0.00     0.128 C 
BRANCH   2   3
HETATM    3  C   UNL     1     -40.276  52.429 -53.235  1.00  0.00    -0.029 A 
HETATM    4  C   UNL     1     -39.830  51.916 -51.996  1.00  0.00    -0.054 A 
HETATM    5  C   UNL     1     -39.688  52.779 -50.770  1.00  0.00     0.049 C 
HETATM    6  C   UNL     1     -39.496  50.555 -51.894  1.00  0.00     0.007 A 
HETATM    7  C   UNL     1     -39.613  49.700 -52.987  1.00  0.00     0.001 A 
HETATM    8  C   UNL     1     -40.072  50.191 -54.203  1.00  0.00     0.001 A 
HETATM    9  C   UNL     1     -40.406  51.540 -54.324  1.00  0.00     0.010 A 
ENDBRANCH   2   3
BRANCH   2  10
HETATM   10  N   UNL     1     -42.085  54.041 -53.160  1.00  0.00    -0.334 N 
HETATM   11  C   UNL     1     -42.605  54.687 -52.084  1.00  0.00     0.314 C 
HETATM   12  N   UNL     1     -43.958  54.635 -52.046  1.00  0.00    -0.352 N 
HETATM   13  O   UNL     1     -41.963  55.309 -51.247  1.00  0.00    -0.248 OA
HETATM   14  H   UNL     1     -44.432  53.835 -52.444  1.00  0.00     0.160 HD
HETATM   15  H   UNL     1     -44.392  55.014 -51.215  1.00  0.00     0.160 HD
HETATM   16  H   UNL     1     -42.716  53.505 -53.740  1.00  0.00     0.165 HD
ENDBRANCH   2  10
ENDBRANCH   1   2
BRANCH   1  17
HETATM   17  C   UNL     1     -41.244  55.434 -55.322  1.00  0.00     0.219 C 
HETATM   18  N   UNL     1     -41.928  55.086 -56.462  1.00  0.00    -0.359 N 
HETATM   19  H   UNL     1     -41.710  54.198 -56.904  1.00  0.00     0.162 HD
HETATM   20  O   UNL     1     -41.437  56.513 -54.764  1.00  0.00    -0.274 OA
BRANCH  18  21
HETATM   21  C   UNL     1     -42.868  55.972 -57.132  1.00  0.00     0.150 C 
BRANCH  21  22
HETATM   22  C   UNL     1     -43.522  55.387 -58.404  1.00  0.00     0.254 C 
BRANCH  22  23
HETATM   23  N   UNL     1     -44.688  56.199 -58.905  1.00  0.00    -0.065 N 
HETATM   24  H   UNL     1     -45.450  56.070 -58.207  1.00  0.00     0.280 HD
HETATM   25  C   UNL     1     -44.447  57.694 -58.926  1.00  0.00     0.274 C 
HETATM   26  C   UNL     1     -45.564  58.437 -59.580  1.00  0.00    -0.019 A 
HETATM   27  C   UNL     1     -46.535  57.800 -60.328  1.00  0.00    -0.008 A 
HETATM   28  C   UNL     1     -45.788  59.849 -59.549  1.00  0.00     0.017 A 
HETATM   29  S   UNL     1     -47.687  58.865 -60.976  1.00  0.00    -0.106 SA
HETATM   30  C   UNL     1     -46.605  56.320 -60.535  1.00  0.00     0.074 C 
HETATM   31  C   UNL     1     -46.908  60.215 -60.267  1.00  0.00     0.051 A 
HETATM   32  C   UNL     1     -45.239  55.687 -60.226  1.00  0.00     0.240 C 
ENDBRANCH  22  23
ENDBRANCH  21  22
ENDBRANCH  18  21
ENDBRANCH   1  17
TORSDOF 7
ENDMDL
MODEL 5
REMARK VINA RESULT:      -7.7      3.471      5.388
REMARK  7 active torsions:
REMARK  status: ('A' for Active; 'I' for Inactive)
REMARK    1  A    between atoms: C_3  and  C_4 
REMARK    2  A    between atoms: C_4  and  N_5 
REMARK    3  A    between atoms: C_4  and  C_9 
REMARK       I    between atoms: N_5  and  C_6 
REMARK       I    between atoms: C_6  and  N_7 
REMARK    4  A    between atoms: C_9  and  C_10 
REMARK       I    between atoms: C_10  and  N_11 
REMARK    5  A    between atoms: N_11  and  C_12 
REMARK    6  A    between atoms: C_12  and  C_13 
REMARK    7  A    between atoms: C_13  and  N_14 
ROOT
HETATM    1  C   UNL     1     -42.949  54.061 -54.732  1.00  0.00     0.132 C 
ENDROOT
BRANCH   1   2
HETATM    2  C   UNL     1     -42.180  54.066 -53.398  1.00  0.00     0.128 C 
BRANCH   2   3
HETATM    3  C   UNL     1     -41.177  52.915 -53.339  1.00  0.00    -0.029 A 
HETATM    4  C   UNL     1     -40.269  52.767 -52.266  1.00  0.00    -0.054 A 
HETATM    5  C   UNL     1     -40.221  53.732 -51.112  1.00  0.00     0.049 C 
HETATM    6  C   UNL     1     -39.369  51.687 -52.269  1.00  0.00     0.007 A 
HETATM    7  C   UNL     1     -39.368  50.753 -53.302  1.00  0.00     0.001 A 
HETATM    8  C   UNL     1     -40.272  50.878 -54.349  1.00  0.00     0.001 A 
HETATM    9  C   UNL     1     -41.171  51.945 -54.365  1.00  0.00     0.010 A 
ENDBRANCH   2   3
BRANCH   2  10
HETATM   10  N   UNL     1     -43.076  53.957 -52.249  1.00  0.00    -0.334 N 
HETATM   11  C   UNL     1     -43.640  55.021 -51.621  1.00  0.00     0.314 C 
HETATM   12  N   UNL     1     -44.387  54.660 -50.550  1.00  0.00    -0.352 N 
HETATM   13  O   UNL     1     -43.556  56.188 -51.982  1.00  0.00    -0.248 OA
HETATM   14  H   UNL     1     -44.135  53.831 -50.030  1.00  0.00     0.160 HD
HETATM   15  H   UNL     1     -44.750  55.419 -49.988  1.00  0.00     0.160 HD
HETATM   16  H   UNL     1     -43.161  53.049 -51.811  1.00  0.00     0.165 HD
ENDBRANCH   2  10
ENDBRANCH   1   2
BRANCH   1  17
HETATM   17  C   UNL     1     -42.916  55.420 -55.390  1.00  0.00     0.219 C 
HETATM   18  N   UNL     1     -43.988  56.234 -55.114  1.00  0.00    -0.359 N 
HETATM   19  H   UNL     1     -44.735  55.868 -54.531  1.00  0.00     0.162 HD
HETATM   20  O   UNL     1     -42.000  55.795 -56.120  1.00  0.00    -0.274 OA
BRANCH  18  21
HETATM   21  C   UNL     1     -44.163  57.553 -55.702  1.00  0.00     0.150 C 
BRANCH  21  22
HETATM   22  C   UNL     1     -44.557  58.665 -54.704  1.00  0.00     0.254 C 
BRANCH  22  23
HETATM   23  N   UNL     1     -43.670  58.719 -53.487  1.00  0.00    -0.065 N 
HETATM   24  H   UNL     1     -43.756  57.788 -53.027  1.00  0.00     0.280 HD
HETATM   25  C   UNL     1     -42.192  58.852 -53.794  1.00  0.00     0.274 C 
HETATM   26  C   UNL     1     -41.376  59.064 -52.562  1.00  0.00    -0.019 A 
HETATM   27  C   UNL     1     -41.947  59.394 -51.348  1.00  0.00    -0.008 A 
HETATM   28  C   UNL     1     -39.954  58.976 -52.451  1.00  0.00     0.017 A 
HETATM   29  S   UNL     1     -40.808  59.594 -50.106  1.00  0.00    -0.106 SA
HETATM   30  C   UNL     1     -43.418  59.537 -51.118  1.00  0.00     0.074 C 
HETATM   31  C   UNL     1     -39.514  59.241 -51.171  1.00  0.00     0.051 A 
HETATM   32  C   UNL     1     -44.138  59.738 -52.461  1.00  0.00     0.240 C 
ENDBRANCH  22  23
ENDBRANCH  21  22
ENDBRANCH  18  21
ENDBRANCH   1  17
TORSDOF 7
ENDMDL
MODEL 6
REMARK VINA RESULT:      -7.3      2.581      3.562
REMARK  7 active torsions:
REMARK  status: ('A' for Active; 'I' for Inactive)
REMARK    1  A    between atoms: C_3  and  C_4 
REMARK    2  A    between atoms: C_4  and  N_5 
REMARK    3  A    between atoms: C_4  and  C_9 
REMARK       I    between atoms: N_5  and  C_6 
REMARK       I    between atoms: C_6  and  N_7 
REMARK    4  A    between atoms: C_9  and  C_10 
REMARK       I    between atoms: C_10  and  N_11 
REMARK    5  A    between atoms: N_11  and  C_12 
REMARK    6  A    between atoms: C_12  and  C_13 
REMARK    7  A    between atoms: C_13  and  N_14 
ROOT
HETATM    1  C   UNL     1     -43.160  54.412 -52.924  1.00  0.00     0.132 C 
ENDROOT
BRANCH   1   2
HETATM    2  C   UNL     1     -41.702  54.731 -52.543  1.00  0.00     0.128 C 
BRANCH   2   3
HETATM    3  C   UNL     1     -40.918  53.451 -52.253  1.00  0.00    -0.029 A 
HETATM    4  C   UNL     1     -40.235  52.746 -53.269  1.00  0.00    -0.054 A 
HETATM    5  C   UNL     1     -40.234  53.199 -54.705  1.00  0.00     0.049 C 
HETATM    6  C   UNL     1     -39.531  51.574 -52.941  1.00  0.00     0.007 A 
HETATM    7  C   UNL     1     -39.485  51.106 -51.630  1.00  0.00     0.001 A 
HETATM    8  C   UNL     1     -40.135  51.806 -50.622  1.00  0.00     0.001 A 
HETATM    9  C   UNL     1     -40.840  52.969 -50.929  1.00  0.00     0.010 A 
ENDBRANCH   2   3
BRANCH   2  10
HETATM   10  N   UNL     1     -41.620  55.598 -51.370  1.00  0.00    -0.334 N 
HETATM   11  C   UNL     1     -41.461  56.945 -51.431  1.00  0.00     0.314 C 
HETATM   12  N   UNL     1     -41.359  57.515 -50.206  1.00  0.00    -0.352 N 
HETATM   13  O   UNL     1     -41.462  57.618 -52.454  1.00  0.00    -0.248 OA
HETATM   14  H   UNL     1     -40.955  56.984 -49.447  1.00  0.00     0.160 HD
HETATM   15  H   UNL     1     -41.141  58.503 -50.195  1.00  0.00     0.160 HD
HETATM   16  H   UNL     1     -41.531  55.152 -50.467  1.00  0.00     0.165 HD
ENDBRANCH   2  10
ENDBRANCH   1   2
BRANCH   1  17
HETATM   17  C   UNL     1     -43.473  54.871 -54.328  1.00  0.00     0.219 C 
HETATM   18  N   UNL     1     -43.300  56.214 -54.560  1.00  0.00    -0.359 N 
HETATM   19  H   UNL     1     -43.016  56.806 -53.785  1.00  0.00     0.162 HD
HETATM   20  O   UNL     1     -43.852  54.112 -55.219  1.00  0.00    -0.274 OA
BRANCH  18  21
HETATM   21  C   UNL     1     -43.608  56.853 -55.831  1.00  0.00     0.150 C 
BRANCH  21  22
HETATM   22  C   UNL     1     -42.581  56.595 -56.957  1.00  0.00     0.254 C 
BRANCH  22  23
HETATM   23  N   UNL     1     -42.111  57.853 -57.639  1.00  0.00    -0.065 N 
HETATM   24  H   UNL     1     -41.070  57.817 -57.623  1.00  0.00     0.280 HD
HETATM   25  C   UNL     1     -42.461  57.936 -59.111  1.00  0.00     0.274 C 
HETATM   26  C   UNL     1     -42.119  59.265 -59.698  1.00  0.00    -0.019 A 
HETATM   27  C   UNL     1     -41.805  60.359 -58.914  1.00  0.00    -0.008 A 
HETATM   28  C   UNL     1     -42.076  59.602 -61.087  1.00  0.00     0.017 A 
HETATM   29  S   UNL     1     -41.468  61.754 -59.819  1.00  0.00    -0.106 SA
HETATM   30  C   UNL     1     -41.734  60.334 -57.421  1.00  0.00     0.074 C 
HETATM   31  C   UNL     1     -41.735  60.923 -61.292  1.00  0.00     0.051 A 
HETATM   32  C   UNL     1     -42.499  59.114 -56.884  1.00  0.00     0.240 C 
ENDBRANCH  22  23
ENDBRANCH  21  22
ENDBRANCH  18  21
ENDBRANCH   1  17
TORSDOF 7
ENDMDL
MODEL 7
REMARK VINA RESULT:      -7.3      4.610      6.206
REMARK  7 active torsions:
REMARK  status: ('A' for Active; 'I' for Inactive)
REMARK    1  A    between atoms: C_3  and  C_4 
REMARK    2  A    between atoms: C_4  and  N_5 
REMARK    3  A    between atoms: C_4  and  C_9 
REMARK       I    between atoms: N_5  and  C_6 
REMARK       I    between atoms: C_6  and  N_7 
REMARK    4  A    between atoms: C_9  and  C_10 
REMARK       I    between atoms: C_10  and  N_11 
REMARK    5  A    between atoms: N_11  and  C_12 
REMARK    6  A    between atoms: C_12  and  C_13 
REMARK    7  A    between atoms: C_13  and  N_14 
ROOT
HETATM    1  C   UNL     1     -41.337  55.638 -53.688  1.00  0.00     0.132 C 
ENDROOT
BRANCH   1   2
HETATM    2  C   UNL     1     -41.383  54.688 -52.476  1.00  0.00     0.128 C 
BRANCH   2   3
HETATM    3  C   UNL     1     -40.745  53.340 -52.811  1.00  0.00    -0.029 A 
HETATM    4  C   UNL     1     -39.988  52.615 -51.864  1.00  0.00    -0.054 A 
HETATM    5  C   UNL     1     -39.751  53.118 -50.465  1.00  0.00     0.049 C 
HETATM    6  C   UNL     1     -39.425  51.381 -52.231  1.00  0.00     0.007 A 
HETATM    7  C   UNL     1     -39.614  50.854 -53.507  1.00  0.00     0.001 A 
HETATM    8  C   UNL     1     -40.376  51.550 -54.437  1.00  0.00     0.001 A 
HETATM    9  C   UNL     1     -40.940  52.778 -54.091  1.00  0.00     0.010 A 
ENDBRANCH   2   3
BRANCH   2  10
HETATM   10  N   UNL     1     -42.750  54.450 -52.019  1.00  0.00    -0.334 N 
HETATM   11  C   UNL     1     -43.177  54.679 -50.750  1.00  0.00     0.314 C 
HETATM   12  N   UNL     1     -44.473  54.329 -50.564  1.00  0.00    -0.352 N 
HETATM   13  O   UNL     1     -42.518  55.197 -49.858  1.00  0.00    -0.248 OA
HETATM   14  H   UNL     1     -44.862  53.571 -51.108  1.00  0.00     0.160 HD
HETATM   15  H   UNL     1     -44.814  54.386 -49.613  1.00  0.00     0.160 HD
HETATM   16  H   UNL     1     -43.369  53.952 -52.644  1.00  0.00     0.165 HD
ENDBRANCH   2  10
ENDBRANCH   1   2
BRANCH   1  17
HETATM   17  C   UNL     1     -41.377  57.084 -53.254  1.00  0.00     0.219 C 
HETATM   18  N   UNL     1     -41.548  57.997 -54.266  1.00  0.00    -0.359 N 
HETATM   19  H   UNL     1     -41.596  57.656 -55.222  1.00  0.00     0.162 HD
HETATM   20  O   UNL     1     -41.273  57.440 -52.082  1.00  0.00    -0.274 OA
BRANCH  18  21
HETATM   21  C   UNL     1     -41.551  59.436 -54.053  1.00  0.00     0.150 C 
BRANCH  21  22
HETATM   22  C   UNL     1     -42.953  60.075 -53.936  1.00  0.00     0.254 C 
BRANCH  22  23
HETATM   23  N   UNL     1     -43.436  60.206 -52.514  1.00  0.00    -0.065 N 
HETATM   24  H   UNL     1     -42.759  59.669 -51.931  1.00  0.00     0.280 HD
HETATM   25  C   UNL     1     -43.375  61.614 -51.960  1.00  0.00     0.274 C 
HETATM   26  C   UNL     1     -44.012  61.718 -50.613  1.00  0.00    -0.019 A 
HETATM   27  C   UNL     1     -44.810  60.716 -50.096  1.00  0.00    -0.008 A 
HETATM   28  C   UNL     1     -43.913  62.815 -49.702  1.00  0.00     0.017 A 
HETATM   29  S   UNL     1     -45.425  61.080 -48.557  1.00  0.00    -0.106 SA
HETATM   30  C   UNL     1     -45.094  59.421 -50.788  1.00  0.00     0.074 C 
HETATM   31  C   UNL     1     -44.633  62.597 -48.545  1.00  0.00     0.051 A 
HETATM   32  C   UNL     1     -44.791  59.556 -52.289  1.00  0.00     0.240 C 
ENDBRANCH  22  23
ENDBRANCH  21  22
ENDBRANCH  18  21
ENDBRANCH   1  17
TORSDOF 7
ENDMDL
MODEL 8
REMARK VINA RESULT:      -7.2      1.974      2.900
REMARK  7 active torsions:
REMARK  status: ('A' for Active; 'I' for Inactive)
REMARK    1  A    between atoms: C_3  and  C_4 
REMARK    2  A    between atoms: C_4  and  N_5 
REMARK    3  A    between atoms: C_4  and  C_9 
REMARK       I    between atoms: N_5  and  C_6 
REMARK       I    between atoms: C_6  and  N_7 
REMARK    4  A    between atoms: C_9  and  C_10 
REMARK       I    between atoms: C_10  and  N_11 
REMARK    5  A    between atoms: N_11  and  C_12 
REMARK    6  A    between atoms: C_12  and  C_13 
REMARK    7  A    between atoms: C_13  and  N_14 
ROOT
HETATM    1  C   UNL     1     -43.253  55.762 -52.586  1.00  0.00     0.132 C 
ENDROOT
BRANCH   1   2
HETATM    2  C   UNL     1     -41.729  55.886 -52.765  1.00  0.00     0.128 C 
BRANCH   2   3
HETATM    3  C   UNL     1     -41.047  54.527 -52.615  1.00  0.00    -0.029 A 
HETATM    4  C   UNL     1     -40.629  53.771 -53.734  1.00  0.00    -0.054 A 
HETATM    5  C   UNL     1     -40.831  54.246 -55.149  1.00  0.00     0.049 C 
HETATM    6  C   UNL     1     -40.008  52.526 -53.532  1.00  0.00     0.007 A 
HETATM    7  C   UNL     1     -39.783  52.034 -52.249  1.00  0.00     0.001 A 
HETATM    8  C   UNL     1     -40.170  52.780 -51.144  1.00  0.00     0.001 A 
HETATM    9  C   UNL     1     -40.790  54.016 -51.324  1.00  0.00     0.010 A 
ENDBRANCH   2   3
BRANCH   2  10
HETATM   10  N   UNL     1     -41.136  56.809 -51.799  1.00  0.00    -0.334 N 
HETATM   11  C   UNL     1     -40.713  58.062 -52.107  1.00  0.00     0.314 C 
HETATM   12  N   UNL     1     -40.152  58.698 -51.050  1.00  0.00    -0.352 N 
HETATM   13  O   UNL     1     -40.855  58.617 -53.189  1.00  0.00    -0.248 OA
HETATM   14  H   UNL     1     -39.677  58.154 -50.343  1.00  0.00     0.160 HD
HETATM   15  H   UNL     1     -39.731  59.596 -51.247  1.00  0.00     0.160 HD
HETATM   16  H   UNL     1     -40.897  56.438 -50.890  1.00  0.00     0.165 HD
ENDBRANCH   2  10
ENDBRANCH   1   2
BRANCH   1  17
HETATM   17  C   UNL     1     -43.962  57.018 -53.033  1.00  0.00     0.219 C 
HETATM   18  N   UNL     1     -43.618  57.475 -54.283  1.00  0.00    -0.359 N 
HETATM   19  H   UNL     1     -42.900  56.975 -54.799  1.00  0.00     0.162 HD
HETATM   20  O   UNL     1     -44.797  57.604 -52.346  1.00  0.00    -0.274 OA
BRANCH  18  21
HETATM   21  C   UNL     1     -44.148  58.701 -54.861  1.00  0.00     0.150 C 
BRANCH  21  22
HETATM   22  C   UNL     1     -43.679  58.998 -56.303  1.00  0.00     0.254 C 
BRANCH  22  23
HETATM   23  N   UNL     1     -44.062  57.925 -57.290  1.00  0.00    -0.065 N 
HETATM   24  H   UNL     1     -44.291  57.081 -56.724  1.00  0.00     0.280 HD
HETATM   25  C   UNL     1     -45.332  58.212 -58.065  1.00  0.00     0.274 C 
HETATM   26  C   UNL     1     -45.577  57.204 -59.139  1.00  0.00    -0.019 A 
HETATM   27  C   UNL     1     -44.605  56.312 -59.548  1.00  0.00    -0.008 A 
HETATM   28  C   UNL     1     -46.785  57.021 -59.881  1.00  0.00     0.017 A 
HETATM   29  S   UNL     1     -45.127  55.279 -60.790  1.00  0.00    -0.106 SA
HETATM   30  C   UNL     1     -43.237  56.223 -58.953  1.00  0.00     0.074 C 
HETATM   31  C   UNL     1     -46.676  56.007 -60.810  1.00  0.00     0.051 A 
HETATM   32  C   UNL     1     -42.912  57.522 -58.198  1.00  0.00     0.240 C 
ENDBRANCH  22  23
ENDBRANCH  21  22
ENDBRANCH  18  21
ENDBRANCH   1  17
TORSDOF 7
ENDMDL
MODEL 9
REMARK VINA RESULT:      -7.2      3.835      5.614
REMARK  7 active torsions:
REMARK  status: ('A' for Active; 'I' for Inactive)
REMARK    1  A    between atoms: C_3  and  C_4 
REMARK    2  A    between atoms: C_4  and  N_5 
REMARK    3  A    between atoms: C_4  and  C_9 
REMARK       I    between atoms: N_5  and  C_6 
REMARK       I    between atoms: C_6  and  N_7 
REMARK    4  A    between atoms: C_9  and  C_10 
REMARK       I    between atoms: C_10  and  N_11 
REMARK    5  A    between atoms: N_11  and  C_12 
REMARK    6  A    between atoms: C_12  and  C_13 
REMARK    7  A    between atoms: C_13  and  N_14 
ROOT
HETATM    1  C   UNL     1     -42.992  54.804 -53.236  1.00  0.00     0.132 C 
ENDROOT
BRANCH   1   2
HETATM    2  C   UNL     1     -41.567  55.003 -52.687  1.00  0.00     0.128 C 
BRANCH   2   3
HETATM    3  C   UNL     1     -40.824  53.671 -52.591  1.00  0.00    -0.029 A 
HETATM    4  C   UNL     1     -40.257  53.048 -53.725  1.00  0.00    -0.054 A 
HETATM    5  C   UNL     1     -40.349  53.645 -55.105  1.00  0.00     0.049 C 
HETATM    6  C   UNL     1     -39.587  51.821 -53.575  1.00  0.00     0.007 A 
HETATM    7  C   UNL     1     -39.458  51.220 -52.325  1.00  0.00     0.001 A 
HETATM    8  C   UNL     1     -39.993  51.838 -51.202  1.00  0.00     0.001 A 
HETATM    9  C   UNL     1     -40.664  53.053 -51.332  1.00  0.00     0.010 A 
ENDBRANCH   2   3
BRANCH   2  10
HETATM   10  N   UNL     1     -41.572  55.625 -51.364  1.00  0.00    -0.334 N 
HETATM   11  C   UNL     1     -41.313  56.939 -51.141  1.00  0.00     0.314 C 
HETATM   12  N   UNL     1     -41.326  57.258 -49.825  1.00  0.00    -0.352 N 
HETATM   13  O   UNL     1     -41.138  57.788 -52.006  1.00  0.00    -0.248 OA
HETATM   14  H   UNL     1     -41.058  56.559 -49.145  1.00  0.00     0.160 HD
HETATM   15  H   UNL     1     -41.042  58.202 -49.596  1.00  0.00     0.160 HD
HETATM   16  H   UNL     1     -41.628  55.011 -50.563  1.00  0.00     0.165 HD
ENDBRANCH   2  10
ENDBRANCH   1   2
BRANCH   1  17
HETATM   17  C   UNL     1     -43.379  55.921 -54.176  1.00  0.00     0.219 C 
HETATM   18  N   UNL     1     -42.331  56.636 -54.704  1.00  0.00    -0.359 N 
HETATM   19  H   UNL     1     -41.388  56.400 -54.408  1.00  0.00     0.162 HD
HETATM   20  O   UNL     1     -44.544  56.185 -54.467  1.00  0.00    -0.274 OA
BRANCH  18  21
HETATM   21  C   UNL     1     -42.507  57.785 -55.579  1.00  0.00     0.150 C 
BRANCH  21  22
HETATM   22  C   UNL     1     -42.127  59.146 -54.954  1.00  0.00     0.254 C 
BRANCH  22  23
HETATM   23  N   UNL     1     -42.991  59.527 -53.779  1.00  0.00    -0.065 N 
HETATM   24  H   UNL     1     -42.923  58.737 -53.103  1.00  0.00     0.280 HD
HETATM   25  C   UNL     1     -42.495  60.730 -53.002  1.00  0.00     0.274 C 
HETATM   26  C   UNL     1     -43.466  61.164 -51.954  1.00  0.00    -0.019 A 
HETATM   27  C   UNL     1     -44.767  60.703 -51.919  1.00  0.00    -0.008 A 
HETATM   28  C   UNL     1     -43.220  62.084 -50.888  1.00  0.00     0.017 A 
HETATM   29  S   UNL     1     -45.673  61.355 -50.641  1.00  0.00    -0.106 SA
HETATM   30  C   UNL     1     -45.336  59.707 -52.880  1.00  0.00     0.074 C 
HETATM   31  C   UNL     1     -44.336  62.276 -50.100  1.00  0.00     0.051 A 
HETATM   32  C   UNL     1     -44.462  59.644 -54.142  1.00  0.00     0.240 C 
ENDBRANCH  22  23
ENDBRANCH  21  22
ENDBRANCH  18  21
ENDBRANCH   1  17
TORSDOF 7
ENDMDL
MODEL 10
REMARK VINA RESULT:      -7.1      2.338      3.415
REMARK  7 active torsions:
REMARK  status: ('A' for Active; 'I' for Inactive)
REMARK    1  A    between atoms: C_3  and  C_4 
REMARK    2  A    between atoms: C_4  and  N_5 
REMARK    3  A    between atoms: C_4  and  C_9 
REMARK       I    between atoms: N_5  and  C_6 
REMARK       I    between atoms: C_6  and  N_7 
REMARK    4  A    between atoms: C_9  and  C_10 
REMARK       I    between atoms: C_10  and  N_11 
REMARK    5  A    between atoms: N_11  and  C_12 
REMARK    6  A    between atoms: C_12  and  C_13 
REMARK    7  A    between atoms: C_13  and  N_14 
ROOT
HETATM    1  C   UNL     1     -43.195  54.857 -51.734  1.00  0.00     0.132 C 
ENDROOT
BRANCH   1   2
HETATM    2  C   UNL     1     -41.659  54.826 -51.622  1.00  0.00     0.128 C 
BRANCH   2   3
HETATM    3  C   UNL     1     -41.039  54.071 -52.796  1.00  0.00    -0.029 A 
HETATM    4  C   UNL     1     -40.602  54.734 -53.965  1.00  0.00    -0.054 A 
HETATM    5  C   UNL     1     -40.722  56.225 -54.139  1.00  0.00     0.049 C 
HETATM    6  C   UNL     1     -40.040  53.984 -55.013  1.00  0.00     0.007 A 
HETATM    7  C   UNL     1     -39.892  52.603 -54.912  1.00  0.00     0.001 A 
HETATM    8  C   UNL     1     -40.298  51.947 -53.758  1.00  0.00     0.001 A 
HETATM    9  C   UNL     1     -40.860  52.673 -52.708  1.00  0.00     0.010 A 
ENDBRANCH   2   3
BRANCH   2  10
HETATM   10  N   UNL     1     -41.213  54.196 -50.381  1.00  0.00    -0.334 N 
HETATM   11  C   UNL     1     -40.972  54.873 -49.229  1.00  0.00     0.314 C 
HETATM   12  N   UNL     1     -40.517  54.071 -48.237  1.00  0.00    -0.352 N 
HETATM   13  O   UNL     1     -41.183  56.065 -49.045  1.00  0.00    -0.248 OA
HETATM   14  H   UNL     1     -39.974  53.252 -48.474  1.00  0.00     0.160 HD
HETATM   15  H   UNL     1     -40.228  54.539 -47.388  1.00  0.00     0.160 HD
HETATM   16  H   UNL     1     -40.930  53.226 -50.428  1.00  0.00     0.165 HD
ENDBRANCH   2  10
ENDBRANCH   1   2
BRANCH   1  17
HETATM   17  C   UNL     1     -43.696  56.252 -52.024  1.00  0.00     0.219 C 
HETATM   18  N   UNL     1     -44.212  56.440 -53.284  1.00  0.00    -0.359 N 
HETATM   19  H   UNL     1     -44.190  55.662 -53.936  1.00  0.00     0.162 HD
HETATM   20  O   UNL     1     -43.660  57.167 -51.204  1.00  0.00    -0.274 OA
BRANCH  18  21
HETATM   21  C   UNL     1     -44.687  57.728 -53.769  1.00  0.00     0.150 C 
BRANCH  21  22
HETATM   22  C   UNL     1     -43.579  58.698 -54.235  1.00  0.00     0.254 C 
BRANCH  22  23
HETATM   23  N   UNL     1     -43.009  58.352 -55.587  1.00  0.00    -0.065 N 
HETATM   24  H   UNL     1     -42.027  58.047 -55.415  1.00  0.00     0.280 HD
HETATM   25  C   UNL     1     -43.662  57.160 -56.255  1.00  0.00     0.274 C 
HETATM   26  C   UNL     1     -43.176  56.960 -57.652  1.00  0.00    -0.019 A 
HETATM   27  C   UNL     1     -42.452  57.924 -58.326  1.00  0.00    -0.008 A 
HETATM   28  C   UNL     1     -43.380  55.807 -58.473  1.00  0.00     0.017 A 
HETATM   29  S   UNL     1     -42.028  57.462 -59.903  1.00  0.00    -0.106 SA
HETATM   30  C   UNL     1     -42.045  59.238 -57.739  1.00  0.00     0.074 C 
HETATM   31  C   UNL     1     -42.808  55.949 -59.720  1.00  0.00     0.051 A 
HETATM   32  C   UNL     1     -42.918  59.553 -56.514  1.00  0.00     0.240 C 
ENDBRANCH  22  23
ENDBRANCH  21  22
ENDBRANCH  18  21
ENDBRANCH   1  17
TORSDOF 7
ENDMDL
