MODEL 1
REMARK VINA RESULT:      -8.1      0.000      0.000
REMARK  4 active torsions:
REMARK  status: ('A' for Active; 'I' for Inactive)
REMARK    1  A    between atoms: C_5  and  C_6 
REMARK    2  A    between atoms: C_10  and  N_11 
REMARK       I    between atoms: N_11  and  C_12 
REMARK    3  A    between atoms: C_12  and  C_13 
REMARK    4  A    between atoms: C_13  and  O_14 
ROOT
HETATM    1  C   UNL     1     -41.480  54.104 -54.344  1.00  0.00     0.070 A 
HETATM    2  N   UNL     1     -42.823  54.389 -54.357  1.00  0.00    -0.275 N 
HETATM    3  H   UNL     1     -43.524  54.077 -53.692  1.00  0.00     0.189 HD
HETATM    4  N   UNL     1     -43.214  55.168 -55.379  1.00  0.00    -0.156 NA
HETATM    5  C   UNL     1     -42.098  55.363 -56.082  1.00  0.00     0.152 A 
HETATM    6  C   UNL     1     -40.992  54.734 -55.474  1.00  0.00     0.084 A 
ENDROOT
BRANCH   5   7
HETATM    7  N   UNL     1     -42.162  56.103 -57.233  1.00  0.00    -0.308 N 
HETATM    8  C   UNL     1     -42.940  55.820 -58.335  1.00  0.00     0.258 C 
HETATM    9  O   UNL     1     -43.687  54.854 -58.453  1.00  0.00    -0.270 OA
HETATM   10  H   UNL     1     -41.677  56.993 -57.194  1.00  0.00     0.170 HD
BRANCH   8  11
HETATM   11  C   UNL     1     -42.753  56.872 -59.463  1.00  0.00     0.140 C 
HETATM   12  C   UNL     1     -43.975  56.875 -60.393  1.00  0.00     0.058 C 
HETATM   13  C   UNL     1     -45.231  57.460 -59.763  1.00  0.00     0.077 C 
HETATM   14  S   UNL     1     -44.986  59.200 -59.321  1.00  0.00    -0.169 SA
HETATM   15  C   UNL     1     -43.557  59.000 -58.226  1.00  0.00     0.077 C 
HETATM   16  C   UNL     1     -42.412  58.263 -58.910  1.00  0.00     0.058 C 
BRANCH  11  17
HETATM   17  O   UNL     1     -41.635  56.431 -60.266  1.00  0.00    -0.380 OA
HETATM   18  H   UNL     1     -40.986  56.020 -59.665  1.00  0.00     0.211 HD
ENDBRANCH  11  17
ENDBRANCH   8  11
ENDBRANCH   5   7
BRANCH   1  19
HETATM   19  C   UNL     1     -40.829  53.287 -53.315  1.00  0.00     0.069 A 
HETATM   20  C   UNL     1     -40.753  53.713 -51.981  1.00  0.00     0.132 A 
HETATM   21  C   UNL     1     -40.153  52.936 -50.989  1.00  0.00     0.043 A 
HETATM   22  F   UNL     1     -41.268  54.900 -51.621  1.00  0.00    -0.205 F 
HETATM   23  C   UNL     1     -39.599  51.701 -51.315  1.00  0.00     0.006 A 
HETATM   24  C   UNL     1     -39.650  51.256 -52.633  1.00  0.00     0.043 A 
HETATM   25  C   UNL     1     -40.259  52.043 -53.615  1.00  0.00     0.132 A 
HETATM   26  F   UNL     1     -40.266  51.569 -54.870  1.00  0.00    -0.205 F 
ENDBRANCH   1  19
TORSDOF 4
ENDMDL
MODEL 2
REMARK VINA RESULT:      -7.9      4.994      6.021
REMARK  4 active torsions:
REMARK  status: ('A' for Active; 'I' for Inactive)
REMARK    1  A    between atoms: C_5  and  C_6 
REMARK    2  A    between atoms: C_10  and  N_11 
REMARK       I    between atoms: N_11  and  C_12 
REMARK    3  A    between atoms: C_12  and  C_13 
REMARK    4  A    between atoms: C_13  and  O_14 
ROOT
HETATM    1  C   UNL     1     -42.254  54.283 -51.741  1.00  0.00     0.070 A 
HETATM    2  N   UNL     1     -43.370  53.881 -51.050  1.00  0.00    -0.275 N 
HETATM    3  H   UNL     1     -43.679  52.929 -50.881  1.00  0.00     0.189 HD
HETATM    4  N   UNL     1     -44.111  54.889 -50.560  1.00  0.00    -0.156 NA
HETATM    5  C   UNL     1     -43.483  55.987 -50.982  1.00  0.00     0.152 A 
HETATM    6  C   UNL     1     -42.317  55.664 -51.708  1.00  0.00     0.084 A 
ENDROOT
BRANCH   5   7
HETATM    7  N   UNL     1     -44.014  57.212 -50.678  1.00  0.00    -0.308 N 
HETATM    8  C   UNL     1     -44.749  58.010 -51.528  1.00  0.00     0.258 C 
HETATM    9  O   UNL     1     -45.029  57.744 -52.692  1.00  0.00    -0.270 OA
HETATM   10  H   UNL     1     -43.949  57.472 -49.700  1.00  0.00     0.170 HD
BRANCH   8  11
HETATM   11  C   UNL     1     -45.184  59.337 -50.848  1.00  0.00     0.140 C 
HETATM   12  C   UNL     1     -43.957  60.219 -50.572  1.00  0.00     0.058 C 
HETATM   13  C   UNL     1     -43.330  60.815 -51.824  1.00  0.00     0.077 C 
HETATM   14  S   UNL     1     -44.496  61.907 -52.677  1.00  0.00    -0.169 SA
HETATM   15  C   UNL     1     -45.835  60.716 -52.941  1.00  0.00     0.077 C 
HETATM   16  C   UNL     1     -46.282  60.063 -51.639  1.00  0.00     0.058 C 
BRANCH  11  17
HETATM   17  O   UNL     1     -45.729  58.988 -49.556  1.00  0.00    -0.380 OA
HETATM   18  H   UNL     1     -45.639  58.022 -49.450  1.00  0.00     0.211 HD
ENDBRANCH  11  17
ENDBRANCH   8  11
ENDBRANCH   5   7
BRANCH   1  19
HETATM   19  C   UNL     1     -41.292  53.357 -52.347  1.00  0.00     0.069 A 
HETATM   20  C   UNL     1     -40.306  52.719 -51.581  1.00  0.00     0.132 A 
HETATM   21  C   UNL     1     -39.397  51.821 -52.143  1.00  0.00     0.043 A 
HETATM   22  F   UNL     1     -40.213  52.962 -50.263  1.00  0.00    -0.205 F 
HETATM   23  C   UNL     1     -39.449  51.544 -53.506  1.00  0.00     0.006 A 
HETATM   24  C   UNL     1     -40.410  52.169 -54.295  1.00  0.00     0.043 A 
HETATM   25  C   UNL     1     -41.318  53.062 -53.716  1.00  0.00     0.132 A 
HETATM   26  F   UNL     1     -42.213  53.645 -54.527  1.00  0.00    -0.205 F 
ENDBRANCH   1  19
TORSDOF 4
ENDMDL
MODEL 3
REMARK VINA RESULT:      -7.9      5.001      6.132
REMARK  4 active torsions:
REMARK  status: ('A' for Active; 'I' for Inactive)
REMARK    1  A    between atoms: C_5  and  C_6 
REMARK    2  A    between atoms: C_10  and  N_11 
REMARK       I    between atoms: N_11  and  C_12 
REMARK    3  A    between atoms: C_12  and  C_13 
REMARK    4  A    between atoms: C_13  and  O_14 
ROOT
HETATM    1  C   UNL     1     -42.276  54.285 -51.726  1.00  0.00     0.070 A 
HETATM    2  N   UNL     1     -43.402  53.885 -51.049  1.00  0.00    -0.275 N 
HETATM    3  H   UNL     1     -43.716  52.933 -50.888  1.00  0.00     0.189 HD
HETATM    4  N   UNL     1     -44.143  54.894 -50.563  1.00  0.00    -0.156 NA
HETATM    5  C   UNL     1     -43.506  55.991 -50.974  1.00  0.00     0.152 A 
HETATM    6  C   UNL     1     -42.333  55.666 -51.688  1.00  0.00     0.084 A 
ENDROOT
BRANCH   5   7
HETATM    7  N   UNL     1     -44.035  57.217 -50.670  1.00  0.00    -0.308 N 
HETATM    8  C   UNL     1     -44.756  58.023 -51.525  1.00  0.00     0.258 C 
HETATM    9  O   UNL     1     -45.022  57.764 -52.694  1.00  0.00    -0.270 OA
HETATM   10  H   UNL     1     -43.981  57.472 -49.690  1.00  0.00     0.170 HD
BRANCH   8  11
HETATM   11  C   UNL     1     -45.193  59.348 -50.844  1.00  0.00     0.140 C 
HETATM   12  C   UNL     1     -43.968  60.233 -50.571  1.00  0.00     0.058 C 
HETATM   13  C   UNL     1     -43.345  60.832 -51.824  1.00  0.00     0.077 C 
HETATM   14  S   UNL     1     -44.516  61.921 -52.674  1.00  0.00    -0.169 SA
HETATM   15  C   UNL     1     -45.853  60.726 -52.935  1.00  0.00     0.077 C 
HETATM   16  C   UNL     1     -46.295  60.071 -51.632  1.00  0.00     0.058 C 
BRANCH  11  17
HETATM   17  O   UNL     1     -45.734  58.997 -49.551  1.00  0.00    -0.380 OA
HETATM   18  H   UNL     1     -45.226  59.485 -48.877  1.00  0.00     0.211 HD
ENDBRANCH  11  17
ENDBRANCH   8  11
ENDBRANCH   5   7
BRANCH   1  19
HETATM   19  C   UNL     1     -41.311  53.358 -52.326  1.00  0.00     0.069 A 
HETATM   20  C   UNL     1     -41.324  53.073 -53.699  1.00  0.00     0.132 A 
HETATM   21  C   UNL     1     -40.399  52.206 -54.284  1.00  0.00     0.043 A 
HETATM   22  F   UNL     1     -42.244  53.640 -54.497  1.00  0.00    -0.205 F 
HETATM   23  C   UNL     1     -39.433  51.589 -53.496  1.00  0.00     0.006 A 
HETATM   24  C   UNL     1     -39.401  51.843 -52.128  1.00  0.00     0.043 A 
HETATM   25  C   UNL     1     -40.330  52.718 -51.557  1.00  0.00     0.132 A 
HETATM   26  F   UNL     1     -40.260  52.915 -50.232  1.00  0.00    -0.205 F 
ENDBRANCH   1  19
TORSDOF 4
ENDMDL
MODEL 4
REMARK VINA RESULT:      -7.9      1.711      2.121
REMARK  4 active torsions:
REMARK  status: ('A' for Active; 'I' for Inactive)
REMARK    1  A    between atoms: C_5  and  C_6 
REMARK    2  A    between atoms: C_10  and  N_11 
REMARK       I    between atoms: N_11  and  C_12 
REMARK    3  A    between atoms: C_12  and  C_13 
REMARK    4  A    between atoms: C_13  and  O_14 
ROOT
HETATM    1  C   UNL     1     -41.634  54.720 -53.546  1.00  0.00     0.070 A 
HETATM    2  N   UNL     1     -42.649  53.924 -54.017  1.00  0.00    -0.275 N 
HETATM    3  H   UNL     1     -43.122  53.174 -53.521  1.00  0.00     0.189 HD
HETATM    4  N   UNL     1     -43.029  54.196 -55.276  1.00  0.00    -0.156 NA
HETATM    5  C   UNL     1     -42.205  55.173 -55.658  1.00  0.00     0.152 A 
HETATM    6  C   UNL     1     -41.330  55.543 -54.615  1.00  0.00     0.084 A 
ENDROOT
BRANCH   5   7
HETATM    7  N   UNL     1     -42.306  55.663 -56.932  1.00  0.00    -0.308 N 
HETATM    8  C   UNL     1     -43.069  56.742 -57.327  1.00  0.00     0.258 C 
HETATM    9  O   UNL     1     -43.782  57.418 -56.593  1.00  0.00    -0.270 OA
HETATM   10  H   UNL     1     -41.659  55.255 -57.597  1.00  0.00     0.170 HD
BRANCH   8  11
HETATM   11  C   UNL     1     -42.950  57.010 -58.852  1.00  0.00     0.140 C 
HETATM   12  C   UNL     1     -42.905  55.683 -59.623  1.00  0.00     0.058 C 
HETATM   13  C   UNL     1     -44.230  54.934 -59.641  1.00  0.00     0.077 C 
HETATM   14  S   UNL     1     -45.514  55.904 -60.473  1.00  0.00    -0.169 SA
HETATM   15  C   UNL     1     -45.445  57.386 -59.434  1.00  0.00     0.077 C 
HETATM   16  C   UNL     1     -44.038  57.967 -59.361  1.00  0.00     0.058 C 
BRANCH  11  17
HETATM   17  O   UNL     1     -41.669  57.645 -59.067  1.00  0.00    -0.380 OA
HETATM   18  H   UNL     1     -41.105  57.435 -58.300  1.00  0.00     0.211 HD
ENDBRANCH  11  17
ENDBRANCH   8  11
ENDBRANCH   5   7
BRANCH   1  19
HETATM   19  C   UNL     1     -41.073  54.614 -52.196  1.00  0.00     0.069 A 
HETATM   20  C   UNL     1     -41.337  55.579 -51.214  1.00  0.00     0.132 A 
HETATM   21  C   UNL     1     -40.824  55.479 -49.920  1.00  0.00     0.043 A 
HETATM   22  F   UNL     1     -42.107  56.643 -51.502  1.00  0.00    -0.205 F 
HETATM   23  C   UNL     1     -40.015  54.401 -49.576  1.00  0.00     0.006 A 
HETATM   24  C   UNL     1     -39.726  53.431 -50.532  1.00  0.00     0.043 A 
HETATM   25  C   UNL     1     -40.252  53.541 -51.823  1.00  0.00     0.132 A 
HETATM   26  F   UNL     1     -39.929  52.585 -52.706  1.00  0.00    -0.205 F 
ENDBRANCH   1  19
TORSDOF 4
ENDMDL
MODEL 5
REMARK VINA RESULT:      -7.9      1.711      2.663
REMARK  4 active torsions:
REMARK  status: ('A' for Active; 'I' for Inactive)
REMARK    1  A    between atoms: C_5  and  C_6 
REMARK    2  A    between atoms: C_10  and  N_11 
REMARK       I    between atoms: N_11  and  C_12 
REMARK    3  A    between atoms: C_12  and  C_13 
REMARK    4  A    between atoms: C_13  and  O_14 
ROOT
HETATM    1  C   UNL     1     -41.620  54.710 -53.496  1.00  0.00     0.070 A 
HETATM    2  N   UNL     1     -42.630  53.915 -53.979  1.00  0.00    -0.275 N 
HETATM    3  H   UNL     1     -43.105  53.160 -53.493  1.00  0.00     0.189 HD
HETATM    4  N   UNL     1     -43.002  54.197 -55.239  1.00  0.00    -0.156 NA
HETATM    5  C   UNL     1     -42.178  55.179 -55.607  1.00  0.00     0.152 A 
HETATM    6  C   UNL     1     -41.311  55.542 -54.555  1.00  0.00     0.084 A 
ENDROOT
BRANCH   5   7
HETATM    7  N   UNL     1     -42.272  55.681 -56.878  1.00  0.00    -0.308 N 
HETATM    8  C   UNL     1     -43.128  56.678 -57.293  1.00  0.00     0.258 C 
HETATM    9  O   UNL     1     -43.944  57.260 -56.585  1.00  0.00    -0.270 OA
HETATM   10  H   UNL     1     -41.555  55.357 -57.516  1.00  0.00     0.170 HD
BRANCH   8  11
HETATM   11  C   UNL     1     -42.968  56.987 -58.807  1.00  0.00     0.140 C 
HETATM   12  C   UNL     1     -42.893  55.681 -59.611  1.00  0.00     0.058 C 
HETATM   13  C   UNL     1     -44.211  54.925 -59.686  1.00  0.00     0.077 C 
HETATM   14  S   UNL     1     -45.478  55.908 -60.528  1.00  0.00    -0.169 SA
HETATM   15  C   UNL     1     -45.448  57.363 -59.449  1.00  0.00     0.077 C 
HETATM   16  C   UNL     1     -44.048  57.951 -59.321  1.00  0.00     0.058 C 
BRANCH  11  17
HETATM   17  O   UNL     1     -41.686  57.636 -58.969  1.00  0.00    -0.380 OA
HETATM   18  H   UNL     1     -41.060  56.968 -59.304  1.00  0.00     0.211 HD
ENDBRANCH  11  17
ENDBRANCH   8  11
ENDBRANCH   5   7
BRANCH   1  19
HETATM   19  C   UNL     1     -41.066  54.593 -52.143  1.00  0.00     0.069 A 
HETATM   20  C   UNL     1     -40.244  53.517 -51.778  1.00  0.00     0.132 A 
HETATM   21  C   UNL     1     -39.696  53.405 -50.499  1.00  0.00     0.043 A 
HETATM   22  F   UNL     1     -39.958  52.553 -52.669  1.00  0.00    -0.205 F 
HETATM   23  C   UNL     1     -39.969  54.375 -49.539  1.00  0.00     0.006 A 
HETATM   24  C   UNL     1     -40.791  55.450 -49.869  1.00  0.00     0.043 A 
HETATM   25  C   UNL     1     -41.328  55.552 -51.156  1.00  0.00     0.132 A 
HETATM   26  F   UNL     1     -42.123  56.601 -51.412  1.00  0.00    -0.205 F 
ENDBRANCH   1  19
TORSDOF 4
ENDMDL
MODEL 6
REMARK VINA RESULT:      -7.7      4.693      5.761
REMARK  4 active torsions:
REMARK  status: ('A' for Active; 'I' for Inactive)
REMARK    1  A    between atoms: C_5  and  C_6 
REMARK    2  A    between atoms: C_10  and  N_11 
REMARK       I    between atoms: N_11  and  C_12 
REMARK    3  A    between atoms: C_12  and  C_13 
REMARK    4  A    between atoms: C_13  and  O_14 
ROOT
HETATM    1  C   UNL     1     -40.397  53.324 -51.584  1.00  0.00     0.070 A 
HETATM    2  N   UNL     1     -39.812  53.877 -50.471  1.00  0.00    -0.275 N 
HETATM    3  H   UNL     1     -39.096  53.462 -49.882  1.00  0.00     0.189 HD
HETATM    4  N   UNL     1     -40.265  55.102 -50.159  1.00  0.00    -0.156 NA
HETATM    5  C   UNL     1     -41.208  55.340 -51.071  1.00  0.00     0.152 A 
HETATM    6  C   UNL     1     -41.319  54.272 -51.986  1.00  0.00     0.084 A 
ENDROOT
BRANCH   5   7
HETATM    7  N   UNL     1     -41.907  56.516 -51.010  1.00  0.00    -0.308 N 
HETATM    8  C   UNL     1     -41.601  57.677 -51.688  1.00  0.00     0.258 C 
HETATM    9  O   UNL     1     -40.646  57.832 -52.442  1.00  0.00    -0.270 OA
HETATM   10  H   UNL     1     -42.788  56.462 -50.511  1.00  0.00     0.170 HD
BRANCH   8  11
HETATM   11  C   UNL     1     -42.607  58.817 -51.372  1.00  0.00     0.140 C 
HETATM   12  C   UNL     1     -42.465  59.950 -52.399  1.00  0.00     0.058 C 
HETATM   13  C   UNL     1     -42.975  59.593 -53.788  1.00  0.00     0.077 C 
HETATM   14  S   UNL     1     -44.749  59.226 -53.754  1.00  0.00    -0.169 SA
HETATM   15  C   UNL     1     -44.721  57.881 -52.540  1.00  0.00     0.077 C 
HETATM   16  C   UNL     1     -44.047  58.301 -51.239  1.00  0.00     0.058 C 
BRANCH  11  17
HETATM   17  O   UNL     1     -42.220  59.377 -50.097  1.00  0.00    -0.380 OA
HETATM   18  H   UNL     1     -41.459  58.863 -49.770  1.00  0.00     0.211 HD
ENDBRANCH  11  17
ENDBRANCH   8  11
ENDBRANCH   5   7
BRANCH   1  19
HETATM   19  C   UNL     1     -40.046  52.004 -52.118  1.00  0.00     0.069 A 
HETATM   20  C   UNL     1     -39.804  51.808 -53.486  1.00  0.00     0.132 A 
HETATM   21  C   UNL     1     -39.451  50.561 -54.004  1.00  0.00     0.043 A 
HETATM   22  F   UNL     1     -39.908  52.837 -54.344  1.00  0.00    -0.205 F 
HETATM   23  C   UNL     1     -39.339  49.464 -53.156  1.00  0.00     0.006 A 
HETATM   24  C   UNL     1     -39.583  49.625 -51.794  1.00  0.00     0.043 A 
HETATM   25  C   UNL     1     -39.930  50.881 -51.289  1.00  0.00     0.132 A 
HETATM   26  F   UNL     1     -40.167  50.974 -49.972  1.00  0.00    -0.205 F 
ENDBRANCH   1  19
TORSDOF 4
ENDMDL
MODEL 7
REMARK VINA RESULT:      -7.6      1.354      1.762
REMARK  4 active torsions:
REMARK  status: ('A' for Active; 'I' for Inactive)
REMARK    1  A    between atoms: C_5  and  C_6 
REMARK    2  A    between atoms: C_10  and  N_11 
REMARK       I    between atoms: N_11  and  C_12 
REMARK    3  A    between atoms: C_12  and  C_13 
REMARK    4  A    between atoms: C_13  and  O_14 
ROOT
HETATM    1  C   UNL     1     -41.875  53.945 -54.113  1.00  0.00     0.070 A 
HETATM    2  N   UNL     1     -43.105  54.421 -53.732  1.00  0.00    -0.275 N 
HETATM    3  H   UNL     1     -43.538  54.344 -52.816  1.00  0.00     0.189 HD
HETATM    4  N   UNL     1     -43.782  55.050 -54.707  1.00  0.00    -0.156 NA
HETATM    5  C   UNL     1     -42.987  54.943 -55.772  1.00  0.00     0.152 A 
HETATM    6  C   UNL     1     -41.785  54.278 -55.452  1.00  0.00     0.084 A 
ENDROOT
BRANCH   5   7
HETATM    7  N   UNL     1     -43.410  55.461 -56.968  1.00  0.00    -0.308 N 
HETATM    8  C   UNL     1     -43.263  56.767 -57.382  1.00  0.00     0.258 C 
HETATM    9  O   UNL     1     -42.739  57.667 -56.734  1.00  0.00    -0.270 OA
HETATM   10  H   UNL     1     -43.746  54.774 -57.634  1.00  0.00     0.170 HD
BRANCH   8  11
HETATM   11  C   UNL     1     -43.870  57.001 -58.793  1.00  0.00     0.140 C 
HETATM   12  C   UNL     1     -44.351  58.453 -58.929  1.00  0.00     0.058 C 
HETATM   13  C   UNL     1     -43.224  59.473 -59.010  1.00  0.00     0.077 C 
HETATM   14  S   UNL     1     -42.197  59.191 -60.475  1.00  0.00    -0.169 SA
HETATM   15  C   UNL     1     -41.708  57.481 -60.134  1.00  0.00     0.077 C 
HETATM   16  C   UNL     1     -42.913  56.575 -59.916  1.00  0.00     0.058 C 
BRANCH  11  17
HETATM   17  O   UNL     1     -45.052  56.174 -58.883  1.00  0.00    -0.380 OA
HETATM   18  H   UNL     1     -44.762  55.244 -58.852  1.00  0.00     0.211 HD
ENDBRANCH  11  17
ENDBRANCH   8  11
ENDBRANCH   5   7
BRANCH   1  19
HETATM   19  C   UNL     1     -40.957  53.242 -53.211  1.00  0.00     0.069 A 
HETATM   20  C   UNL     1     -40.564  53.799 -51.986  1.00  0.00     0.132 A 
HETATM   21  C   UNL     1     -39.706  53.132 -51.110  1.00  0.00     0.043 A 
HETATM   22  F   UNL     1     -41.014  55.011 -51.619  1.00  0.00    -0.205 F 
HETATM   23  C   UNL     1     -39.206  51.878 -51.449  1.00  0.00     0.006 A 
HETATM   24  C   UNL     1     -39.570  51.303 -52.664  1.00  0.00     0.043 A 
HETATM   25  C   UNL     1     -40.436  51.981 -53.528  1.00  0.00     0.132 A 
HETATM   26  F   UNL     1     -40.740  51.385 -54.691  1.00  0.00    -0.205 F 
ENDBRANCH   1  19
TORSDOF 4
ENDMDL
MODEL 8
REMARK VINA RESULT:      -7.6      1.584      2.652
REMARK  4 active torsions:
REMARK  status: ('A' for Active; 'I' for Inactive)
REMARK    1  A    between atoms: C_5  and  C_6 
REMARK    2  A    between atoms: C_10  and  N_11 
REMARK       I    between atoms: N_11  and  C_12 
REMARK    3  A    between atoms: C_12  and  C_13 
REMARK    4  A    between atoms: C_13  and  O_14 
ROOT
HETATM    1  C   UNL     1     -42.208  54.594 -53.232  1.00  0.00     0.070 A 
HETATM    2  N   UNL     1     -43.580  54.638 -53.171  1.00  0.00    -0.275 N 
HETATM    3  H   UNL     1     -44.162  54.529 -52.347  1.00  0.00     0.189 HD
HETATM    4  N   UNL     1     -44.180  54.848 -54.354  1.00  0.00    -0.156 NA
HETATM    5  C   UNL     1     -43.170  54.900 -55.224  1.00  0.00     0.152 A 
HETATM    6  C   UNL     1     -41.926  54.761 -54.575  1.00  0.00     0.084 A 
ENDROOT
BRANCH   5   7
HETATM    7  N   UNL     1     -43.450  55.071 -56.554  1.00  0.00    -0.308 N 
HETATM    8  C   UNL     1     -43.128  56.174 -57.314  1.00  0.00     0.258 C 
HETATM    9  O   UNL     1     -42.549  57.177 -56.907  1.00  0.00    -0.270 OA
HETATM   10  H   UNL     1     -43.817  54.249 -57.020  1.00  0.00     0.170 HD
BRANCH   8  11
HETATM   11  C   UNL     1     -43.608  56.028 -58.784  1.00  0.00     0.140 C 
HETATM   12  C   UNL     1     -44.776  56.987 -59.058  1.00  0.00     0.058 C 
HETATM   13  C   UNL     1     -44.373  58.453 -59.111  1.00  0.00     0.077 C 
HETATM   14  S   UNL     1     -43.203  58.758 -60.460  1.00  0.00    -0.169 SA
HETATM   15  C   UNL     1     -41.912  57.588 -59.964  1.00  0.00     0.077 C 
HETATM   16  C   UNL     1     -42.457  56.176 -59.790  1.00  0.00     0.058 C 
BRANCH  11  17
HETATM   17  O   UNL     1     -44.143  54.692 -58.919  1.00  0.00    -0.380 OA
HETATM   18  H   UNL     1     -43.958  54.393 -59.829  1.00  0.00     0.211 HD
ENDBRANCH  11  17
ENDBRANCH   8  11
ENDBRANCH   5   7
BRANCH   1  19
HETATM   19  C   UNL     1     -41.346  54.393 -52.063  1.00  0.00     0.069 A 
HETATM   20  C   UNL     1     -40.531  53.259 -51.940  1.00  0.00     0.132 A 
HETATM   21  C   UNL     1     -39.692  53.066 -50.841  1.00  0.00     0.043 A 
HETATM   22  F   UNL     1     -40.539  52.315 -52.895  1.00  0.00    -0.205 F 
HETATM   23  C   UNL     1     -39.655  54.012 -49.821  1.00  0.00     0.006 A 
HETATM   24  C   UNL     1     -40.461  55.144 -49.910  1.00  0.00     0.043 A 
HETATM   25  C   UNL     1     -41.292  55.327 -51.019  1.00  0.00     0.132 A 
HETATM   26  F   UNL     1     -42.056  56.429 -51.045  1.00  0.00    -0.205 F 
ENDBRANCH   1  19
TORSDOF 4
ENDMDL
MODEL 9
REMARK VINA RESULT:      -7.4      4.289      5.274
REMARK  4 active torsions:
REMARK  status: ('A' for Active; 'I' for Inactive)
REMARK    1  A    between atoms: C_5  and  C_6 
REMARK    2  A    between atoms: C_10  and  N_11 
REMARK       I    between atoms: N_11  and  C_12 
REMARK    3  A    between atoms: C_12  and  C_13 
REMARK    4  A    between atoms: C_13  and  O_14 
ROOT
HETATM    1  C   UNL     1     -40.418  53.451 -51.896  1.00  0.00     0.070 A 
HETATM    2  N   UNL     1     -40.208  53.856 -50.601  1.00  0.00    -0.275 N 
HETATM    3  H   UNL     1     -39.823  53.305 -49.840  1.00  0.00     0.189 HD
HETATM    4  N   UNL     1     -40.568  55.126 -50.352  1.00  0.00    -0.156 NA
HETATM    5  C   UNL     1     -41.070  55.552 -51.512  1.00  0.00     0.152 A 
HETATM    6  C   UNL     1     -40.986  54.554 -52.505  1.00  0.00     0.084 A 
ENDROOT
BRANCH   5   7
HETATM    7  N   UNL     1     -41.570  56.825 -51.589  1.00  0.00    -0.308 N 
HETATM    8  C   UNL     1     -42.844  57.171 -51.986  1.00  0.00     0.258 C 
HETATM    9  O   UNL     1     -43.718  56.388 -52.343  1.00  0.00    -0.270 OA
HETATM   10  H   UNL     1     -40.970  57.542 -51.197  1.00  0.00     0.170 HD
BRANCH   8  11
HETATM   11  C   UNL     1     -43.062  58.709 -51.961  1.00  0.00     0.140 C 
HETATM   12  C   UNL     1     -41.741  59.437 -52.243  1.00  0.00     0.058 C 
HETATM   13  C   UNL     1     -41.262  59.314 -53.682  1.00  0.00     0.077 C 
HETATM   14  S   UNL     1     -42.450  60.060 -54.828  1.00  0.00    -0.169 SA
HETATM   15  C   UNL     1     -43.906  59.079 -54.381  1.00  0.00     0.077 C 
HETATM   16  C   UNL     1     -44.204  59.150 -52.888  1.00  0.00     0.058 C 
BRANCH  11  17
HETATM   17  O   UNL     1     -43.435  59.057 -50.608  1.00  0.00    -0.380 OA
HETATM   18  H   UNL     1     -43.464  58.231 -50.090  1.00  0.00     0.211 HD
ENDBRANCH  11  17
ENDBRANCH   8  11
ENDBRANCH   5   7
BRANCH   1  19
HETATM   19  C   UNL     1     -40.084  52.114 -52.397  1.00  0.00     0.069 A 
HETATM   20  C   UNL     1     -39.900  51.030 -51.527  1.00  0.00     0.132 A 
HETATM   21  C   UNL     1     -39.601  49.748 -51.993  1.00  0.00     0.043 A 
HETATM   22  F   UNL     1     -40.010  51.204 -50.199  1.00  0.00    -0.205 F 
HETATM   23  C   UNL     1     -39.469  49.520 -53.359  1.00  0.00     0.006 A 
HETATM   24  C   UNL     1     -39.636  50.579 -54.248  1.00  0.00     0.043 A 
HETATM   25  C   UNL     1     -39.941  51.856 -53.767  1.00  0.00     0.132 A 
HETATM   26  F   UNL     1     -40.077  52.839 -54.668  1.00  0.00    -0.205 F 
ENDBRANCH   1  19
TORSDOF 4
ENDMDL
MODEL 10
REMARK VINA RESULT:      -7.3      4.765      5.366
REMARK  4 active torsions:
REMARK  status: ('A' for Active; 'I' for Inactive)
REMARK    1  A    between atoms: C_5  and  C_6 
REMARK    2  A    between atoms: C_10  and  N_11 
REMARK       I    between atoms: N_11  and  C_12 
REMARK    3  A    between atoms: C_12  and  C_13 
REMARK    4  A    between atoms: C_13  and  O_14 
ROOT
HETATM    1  C   UNL     1     -40.898  53.384 -52.609  1.00  0.00     0.070 A 
HETATM    2  N   UNL     1     -42.214  53.682 -52.861  1.00  0.00    -0.275 N 
HETATM    3  H   UNL     1     -42.970  53.027 -53.036  1.00  0.00     0.189 HD
HETATM    4  N   UNL     1     -42.493  54.996 -52.872  1.00  0.00    -0.156 NA
HETATM    5  C   UNL     1     -41.311  55.578 -52.664  1.00  0.00     0.152 A 
HETATM    6  C   UNL     1     -40.292  54.620 -52.481  1.00  0.00     0.084 A 
ENDROOT
BRANCH   5   7
HETATM    7  N   UNL     1     -41.240  56.946 -52.654  1.00  0.00    -0.308 N 
HETATM    8  C   UNL     1     -41.300  57.752 -51.537  1.00  0.00     0.258 C 
HETATM    9  O   UNL     1     -41.439  57.362 -50.382  1.00  0.00    -0.270 OA
HETATM   10  H   UNL     1     -40.999  57.366 -53.545  1.00  0.00     0.170 HD
BRANCH   8  11
HETATM   11  C   UNL     1     -41.196  59.258 -51.901  1.00  0.00     0.140 C 
HETATM   12  C   UNL     1     -41.790  59.510 -53.295  1.00  0.00     0.058 C 
HETATM   13  C   UNL     1     -43.305  59.380 -53.354  1.00  0.00     0.077 C 
HETATM   14  S   UNL     1     -44.104  60.607 -52.287  1.00  0.00    -0.169 SA
HETATM   15  C   UNL     1     -43.321  60.150 -50.719  1.00  0.00     0.077 C 
HETATM   16  C   UNL     1     -41.800  60.162 -50.816  1.00  0.00     0.058 C 
BRANCH  11  17
HETATM   17  O   UNL     1     -39.788  59.570 -52.000  1.00  0.00    -0.380 OA
HETATM   18  H   UNL     1     -39.703  60.372 -52.547  1.00  0.00     0.211 HD
ENDBRANCH  11  17
ENDBRANCH   8  11
ENDBRANCH   5   7
BRANCH   1  19
HETATM   19  C   UNL     1     -40.370  52.018 -52.533  1.00  0.00     0.069 A 
HETATM   20  C   UNL     1     -40.070  51.416 -51.303  1.00  0.00     0.132 A 
HETATM   21  C   UNL     1     -39.585  50.110 -51.216  1.00  0.00     0.043 A 
HETATM   22  F   UNL     1     -40.246  52.096 -50.157  1.00  0.00    -0.205 F 
HETATM   23  C   UNL     1     -39.379  49.368 -52.376  1.00  0.00     0.006 A 
HETATM   24  C   UNL     1     -39.659  49.943 -53.613  1.00  0.00     0.043 A 
HETATM   25  C   UNL     1     -40.149  51.250 -53.683  1.00  0.00     0.132 A 
HETATM   26  F   UNL     1     -40.388  51.756 -54.902  1.00  0.00    -0.205 F 
ENDBRANCH   1  19
TORSDOF 4
ENDMDL
