MODEL 1
REMARK VINA RESULT:      -8.2      0.000      0.000
REMARK  10 active torsions:
REMARK  status: ('A' for Active; 'I' for Inactive)
REMARK    1  A    between atoms: C_2  and  C_3 
REMARK    2  A    between atoms: C_3  and  C_4 
REMARK    3  A    between atoms: C_4  and  O_5 
REMARK    4  A    between atoms: O_5  and  C_6 
REMARK    5  A    between atoms: C_9  and  C_10 
REMARK       I    between atoms: C_10  and  N_11 
REMARK    6  A    between atoms: N_11  and  C_12 
REMARK    7  A    between atoms: C_12  and  N_13 
REMARK    8  A    between atoms: N_13  and  C_14 
REMARK    9  A    between atoms: C_16  and  C_17 
REMARK   10  A    between atoms: C_26  and  O_27 
ROOT
HETATM    1  N   UNL     1     -42.483  60.949 -54.697  1.00  0.00    -0.337 N 
HETATM    2  H   UNL     1     -41.821  61.705 -54.842  1.00  0.00     0.168 HD
ENDROOT
BRANCH   1   3
HETATM    3  C   UNL     1     -43.470  60.861 -55.658  1.00  0.00     0.157 C 
HETATM    4  S   UNL     1     -45.051  60.646 -55.165  1.00  0.00    -0.047 SA
BRANCH   3   5
HETATM    5  N   UNL     1     -43.006  60.864 -56.962  1.00  0.00    -0.201 NA
HETATM    6  C   UNL     1     -41.884  60.229 -57.461  1.00  0.00     0.237 C 
HETATM    7  O   UNL     1     -40.830  60.829 -57.637  1.00  0.00    -0.274 OA
HETATM    8  H   UNL     1     -42.937  61.841 -57.224  1.00  0.00     0.139 HD
BRANCH   6   9
HETATM    9  C   UNL     1     -42.135  58.914 -58.104  1.00  0.00     0.026 A 
HETATM   10  C   UNL     1     -42.620  57.805 -57.403  1.00  0.00     0.019 A 
HETATM   11  C   UNL     1     -42.944  56.635 -58.094  1.00  0.00     0.038 A 
HETATM   12  C   UNL     1     -42.818  56.593 -59.481  1.00  0.00     0.068 A 
HETATM   13  C   UNL     1     -42.301  57.678 -60.186  1.00  0.00     0.038 A 
HETATM   14  C   UNL     1     -41.956  58.839 -59.495  1.00  0.00     0.019 A 
BRANCH  12  15
HETATM   15  O   UNL     1     -43.186  55.451 -60.135  1.00  0.00    -0.351 OA
BRANCH  15  16
HETATM   16  C   UNL     1     -44.524  55.066 -59.782  1.00  0.00     0.175 C 
BRANCH  16  17
HETATM   17  C   UNL     1     -45.485  55.728 -60.764  1.00  0.00     0.026 C 
BRANCH  17  18
HETATM   18  C   UNL     1     -46.756  56.213 -60.074  1.00  0.00    -0.002 C 
HETATM   19  C   UNL     1     -46.481  57.412 -59.181  1.00  0.00     0.005 C 
ENDBRANCH  17  18
ENDBRANCH  16  17
ENDBRANCH  15  16
ENDBRANCH  12  15
ENDBRANCH   6   9
ENDBRANCH   3   5
ENDBRANCH   1   3
BRANCH   1  20
HETATM   20  C   UNL     1     -42.271  60.117 -53.573  1.00  0.00     0.035 A 
HETATM   21  C   UNL     1     -41.995  58.761 -53.792  1.00  0.00     0.048 A 
HETATM   22  C   UNL     1     -41.725  57.897 -52.714  1.00  0.00     0.052 A 
HETATM   23  C   UNL     1     -41.788  58.418 -51.409  1.00  0.00     0.080 A 
HETATM   24  C   UNL     1     -42.118  59.748 -51.183  1.00  0.00     0.040 A 
HETATM   25  C   UNL     1     -42.359  60.594 -52.261  1.00  0.00     0.032 A 
BRANCH  22  26
HETATM   26  C   UNL     1     -41.354  56.500 -52.917  1.00  0.00     0.183 A 
HETATM   27  O   UNL     1     -40.964  56.115 -54.173  1.00  0.00    -0.289 OA
HETATM   28  C   UNL     1     -40.676  54.787 -54.030  1.00  0.00     0.106 A 
HETATM   29  C   UNL     1     -40.900  54.443 -52.707  1.00  0.00     0.093 A 
HETATM   30  C   UNL     1     -40.231  53.906 -55.008  1.00  0.00     0.040 A 
HETATM   31  N   UNL     1     -41.340  55.537 -52.009  1.00  0.00    -0.221 NA
HETATM   32  C   UNL     1     -40.665  53.126 -52.294  1.00  0.00     0.034 A 
HETATM   33  C   UNL     1     -40.213  52.206 -53.252  1.00  0.00     0.002 A 
HETATM   34  C   UNL     1     -40.002  52.591 -54.582  1.00  0.00     0.003 A 
ENDBRANCH  22  26
BRANCH  23  35
HETATM   35  O   UNL     1     -41.537  57.670 -50.288  1.00  0.00    -0.360 OA
HETATM   36  H   UNL     1     -41.142  56.814 -50.563  1.00  0.00     0.217 HD
ENDBRANCH  23  35
ENDBRANCH   1  20
TORSDOF 10
ENDMDL
MODEL 2
REMARK VINA RESULT:      -8.1      2.696      5.113
REMARK  10 active torsions:
REMARK  status: ('A' for Active; 'I' for Inactive)
REMARK    1  A    between atoms: C_2  and  C_3 
REMARK    2  A    between atoms: C_3  and  C_4 
REMARK    3  A    between atoms: C_4  and  O_5 
REMARK    4  A    between atoms: O_5  and  C_6 
REMARK    5  A    between atoms: C_9  and  C_10 
REMARK       I    between atoms: C_10  and  N_11 
REMARK    6  A    between atoms: N_11  and  C_12 
REMARK    7  A    between atoms: C_12  and  N_13 
REMARK    8  A    between atoms: N_13  and  C_14 
REMARK    9  A    between atoms: C_16  and  C_17 
REMARK   10  A    between atoms: C_26  and  O_27 
ROOT
HETATM    1  N   UNL     1     -45.672  58.460 -55.377  1.00  0.00    -0.337 N 
HETATM    2  H   UNL     1     -46.664  58.248 -55.431  1.00  0.00     0.168 HD
ENDROOT
BRANCH   1   3
HETATM    3  C   UNL     1     -45.019  58.455 -56.593  1.00  0.00     0.157 C 
HETATM    4  S   UNL     1     -44.831  59.901 -57.407  1.00  0.00    -0.047 SA
BRANCH   3   5
HETATM    5  N   UNL     1     -44.670  57.198 -57.055  1.00  0.00    -0.201 NA
HETATM    6  C   UNL     1     -43.405  56.731 -57.360  1.00  0.00     0.237 C 
HETATM    7  O   UNL     1     -42.993  56.696 -58.514  1.00  0.00    -0.274 OA
HETATM    8  H   UNL     1     -45.252  57.037 -57.870  1.00  0.00     0.139 HD
BRANCH   6   9
HETATM    9  C   UNL     1     -42.745  55.947 -56.285  1.00  0.00     0.026 A 
HETATM   10  C   UNL     1     -43.048  54.607 -56.026  1.00  0.00     0.019 A 
HETATM   11  C   UNL     1     -42.306  53.900 -55.077  1.00  0.00     0.038 A 
HETATM   12  C   UNL     1     -41.245  54.522 -54.423  1.00  0.00     0.068 A 
HETATM   13  C   UNL     1     -40.957  55.867 -54.646  1.00  0.00     0.038 A 
HETATM   14  C   UNL     1     -41.711  56.581 -55.576  1.00  0.00     0.019 A 
BRANCH  12  15
HETATM   15  O   UNL     1     -40.508  53.791 -53.535  1.00  0.00    -0.351 OA
BRANCH  15  16
HETATM   16  C   UNL     1     -40.277  52.463 -54.029  1.00  0.00     0.175 C 
BRANCH  16  17
HETATM   17  C   UNL     1     -39.574  51.663 -52.936  1.00  0.00     0.026 C 
BRANCH  17  18
HETATM   18  C   UNL     1     -39.655  50.161 -53.193  1.00  0.00    -0.002 C 
HETATM   19  C   UNL     1     -39.955  49.862 -54.652  1.00  0.00     0.005 C 
ENDBRANCH  17  18
ENDBRANCH  16  17
ENDBRANCH  15  16
ENDBRANCH  12  15
ENDBRANCH   6   9
ENDBRANCH   3   5
ENDBRANCH   1   3
BRANCH   1  20
HETATM   20  C   UNL     1     -45.144  58.739 -54.095  1.00  0.00     0.035 A 
HETATM   21  C   UNL     1     -44.378  57.751 -53.462  1.00  0.00     0.048 A 
HETATM   22  C   UNL     1     -43.784  57.992 -52.209  1.00  0.00     0.052 A 
HETATM   23  C   UNL     1     -44.019  59.230 -51.586  1.00  0.00     0.080 A 
HETATM   24  C   UNL     1     -44.825  60.192 -52.182  1.00  0.00     0.040 A 
HETATM   25  C   UNL     1     -45.386  59.946 -53.432  1.00  0.00     0.032 A 
BRANCH  22  26
HETATM   26  C   UNL     1     -42.915  57.011 -51.564  1.00  0.00     0.183 A 
HETATM   27  O   UNL     1     -43.276  55.690 -51.632  1.00  0.00    -0.289 OA
HETATM   28  C   UNL     1     -42.273  55.047 -50.964  1.00  0.00     0.106 A 
HETATM   29  C   UNL     1     -41.366  56.001 -50.534  1.00  0.00     0.093 A 
HETATM   30  C   UNL     1     -42.146  53.681 -50.738  1.00  0.00     0.040 A 
HETATM   31  N   UNL     1     -41.788  57.249 -50.913  1.00  0.00    -0.221 NA
HETATM   32  C   UNL     1     -40.229  55.594 -49.826  1.00  0.00     0.034 A 
HETATM   33  C   UNL     1     -40.063  54.223 -49.579  1.00  0.00     0.002 A 
HETATM   34  C   UNL     1     -41.005  53.288 -50.025  1.00  0.00     0.003 A 
ENDBRANCH  22  26
BRANCH  23  35
HETATM   35  O   UNL     1     -43.486  59.573 -50.370  1.00  0.00    -0.360 OA
HETATM   36  H   UNL     1     -42.610  59.139 -50.277  1.00  0.00     0.217 HD
ENDBRANCH  23  35
ENDBRANCH   1  20
TORSDOF 10
ENDMDL
MODEL 3
REMARK VINA RESULT:      -8.1      2.984      6.056
REMARK  10 active torsions:
REMARK  status: ('A' for Active; 'I' for Inactive)
REMARK    1  A    between atoms: C_2  and  C_3 
REMARK    2  A    between atoms: C_3  and  C_4 
REMARK    3  A    between atoms: C_4  and  O_5 
REMARK    4  A    between atoms: O_5  and  C_6 
REMARK    5  A    between atoms: C_9  and  C_10 
REMARK       I    between atoms: C_10  and  N_11 
REMARK    6  A    between atoms: N_11  and  C_12 
REMARK    7  A    between atoms: C_12  and  N_13 
REMARK    8  A    between atoms: N_13  and  C_14 
REMARK    9  A    between atoms: C_16  and  C_17 
REMARK   10  A    between atoms: C_26  and  O_27 
ROOT
HETATM    1  N   UNL     1     -42.283  57.605 -56.738  1.00  0.00    -0.337 N 
HETATM    2  H   UNL     1     -41.687  57.177 -57.440  1.00  0.00     0.168 HD
ENDROOT
BRANCH   1   3
HETATM    3  C   UNL     1     -42.587  58.930 -56.976  1.00  0.00     0.157 C 
HETATM    4  S   UNL     1     -43.599  59.304 -58.249  1.00  0.00    -0.047 SA
BRANCH   3   5
HETATM    5  N   UNL     1     -41.918  59.829 -56.163  1.00  0.00    -0.201 NA
HETATM    6  C   UNL     1     -42.410  60.494 -55.054  1.00  0.00     0.237 C 
HETATM    7  O   UNL     1     -42.806  61.652 -55.122  1.00  0.00    -0.274 OA
HETATM    8  H   UNL     1     -41.540  60.533 -56.789  1.00  0.00     0.139 HD
BRANCH   6   9
HETATM    9  C   UNL     1     -42.083  59.869 -53.747  1.00  0.00     0.026 A 
HETATM   10  C   UNL     1     -42.950  59.906 -52.650  1.00  0.00     0.019 A 
HETATM   11  C   UNL     1     -42.629  59.198 -51.489  1.00  0.00     0.038 A 
HETATM   12  C   UNL     1     -41.468  58.429 -51.446  1.00  0.00     0.068 A 
HETATM   13  C   UNL     1     -40.579  58.414 -52.518  1.00  0.00     0.038 A 
HETATM   14  C   UNL     1     -40.887  59.138 -53.670  1.00  0.00     0.019 A 
BRANCH  12  15
HETATM   15  O   UNL     1     -41.204  57.710 -50.314  1.00  0.00    -0.351 OA
BRANCH  15  16
HETATM   16  C   UNL     1     -41.750  56.385 -50.408  1.00  0.00     0.175 C 
BRANCH  16  17
HETATM   17  C   UNL     1     -40.642  55.389 -50.080  1.00  0.00     0.026 C 
BRANCH  17  18
HETATM   18  C   UNL     1     -41.170  54.194 -49.292  1.00  0.00    -0.002 C 
HETATM   19  C   UNL     1     -40.355  53.955 -48.032  1.00  0.00     0.005 C 
ENDBRANCH  17  18
ENDBRANCH  16  17
ENDBRANCH  15  16
ENDBRANCH  12  15
ENDBRANCH   6   9
ENDBRANCH   3   5
ENDBRANCH   1   3
BRANCH   1  20
HETATM   20  C   UNL     1     -42.710  56.782 -55.671  1.00  0.00     0.035 A 
HETATM   21  C   UNL     1     -42.006  55.595 -55.422  1.00  0.00     0.048 A 
HETATM   22  C   UNL     1     -42.353  54.763 -54.342  1.00  0.00     0.052 A 
HETATM   23  C   UNL     1     -43.455  55.126 -53.548  1.00  0.00     0.080 A 
HETATM   24  C   UNL     1     -44.193  56.270 -53.823  1.00  0.00     0.040 A 
HETATM   25  C   UNL     1     -43.822  57.094 -54.882  1.00  0.00     0.032 A 
BRANCH  22  26
HETATM   26  C   UNL     1     -41.587  53.565 -54.012  1.00  0.00     0.183 A 
HETATM   27  O   UNL     1     -41.077  53.458 -52.744  1.00  0.00    -0.289 OA
HETATM   28  C   UNL     1     -40.444  52.248 -52.751  1.00  0.00     0.106 A 
HETATM   29  C   UNL     1     -40.606  51.689 -54.009  1.00  0.00     0.093 A 
HETATM   30  C   UNL     1     -39.754  51.645 -51.706  1.00  0.00     0.040 A 
HETATM   31  N   UNL     1     -41.327  52.539 -54.806  1.00  0.00    -0.221 NA
HETATM   32  C   UNL     1     -40.054  50.430 -54.274  1.00  0.00     0.034 A 
HETATM   33  C   UNL     1     -39.351  49.788 -53.243  1.00  0.00     0.002 A 
HETATM   34  C   UNL     1     -39.204  50.387 -51.986  1.00  0.00     0.003 A 
ENDBRANCH  22  26
BRANCH  23  35
HETATM   35  O   UNL     1     -43.877  54.393 -52.468  1.00  0.00    -0.360 OA
HETATM   36  H   UNL     1     -44.494  53.697 -52.782  1.00  0.00     0.217 HD
ENDBRANCH  23  35
ENDBRANCH   1  20
TORSDOF 10
ENDMDL
MODEL 4
REMARK VINA RESULT:      -8.0      2.612      7.544
REMARK  10 active torsions:
REMARK  status: ('A' for Active; 'I' for Inactive)
REMARK    1  A    between atoms: C_2  and  C_3 
REMARK    2  A    between atoms: C_3  and  C_4 
REMARK    3  A    between atoms: C_4  and  O_5 
REMARK    4  A    between atoms: O_5  and  C_6 
REMARK    5  A    between atoms: C_9  and  C_10 
REMARK       I    between atoms: C_10  and  N_11 
REMARK    6  A    between atoms: N_11  and  C_12 
REMARK    7  A    between atoms: C_12  and  N_13 
REMARK    8  A    between atoms: N_13  and  C_14 
REMARK    9  A    between atoms: C_16  and  C_17 
REMARK   10  A    between atoms: C_26  and  O_27 
ROOT
HETATM    1  N   UNL     1     -44.599  56.872 -52.988  1.00  0.00    -0.337 N 
HETATM    2  H   UNL     1     -45.490  56.442 -52.760  1.00  0.00     0.168 HD
ENDROOT
BRANCH   1   3
HETATM    3  C   UNL     1     -44.074  57.664 -51.987  1.00  0.00     0.157 C 
HETATM    4  S   UNL     1     -45.107  58.645 -51.117  1.00  0.00    -0.047 SA
BRANCH   3   5
HETATM    5  N   UNL     1     -42.694  57.623 -51.884  1.00  0.00    -0.201 NA
HETATM    6  C   UNL     1     -41.925  56.694 -51.207  1.00  0.00     0.237 C 
HETATM    7  O   UNL     1     -41.480  56.920 -50.088  1.00  0.00    -0.274 OA
HETATM    8  H   UNL     1     -42.419  58.540 -51.547  1.00  0.00     0.139 HD
BRANCH   6   9
HETATM    9  C   UNL     1     -41.374  55.599 -52.047  1.00  0.00     0.026 A 
HETATM   10  C   UNL     1     -41.503  54.247 -51.713  1.00  0.00     0.019 A 
HETATM   11  C   UNL     1     -41.063  53.268 -52.606  1.00  0.00     0.038 A 
HETATM   12  C   UNL     1     -40.534  53.643 -53.839  1.00  0.00     0.068 A 
HETATM   13  C   UNL     1     -40.366  54.986 -54.168  1.00  0.00     0.038 A 
HETATM   14  C   UNL     1     -40.784  55.965 -53.267  1.00  0.00     0.019 A 
BRANCH  12  15
HETATM   15  O   UNL     1     -40.155  52.661 -54.712  1.00  0.00    -0.351 OA
BRANCH  15  16
HETATM   16  C   UNL     1     -40.625  51.376 -54.274  1.00  0.00     0.175 C 
BRANCH  16  17
HETATM   17  C   UNL     1     -39.413  50.529 -53.900  1.00  0.00     0.026 C 
BRANCH  17  18
HETATM   18  C   UNL     1     -39.734  49.545 -52.779  1.00  0.00    -0.002 C 
HETATM   19  C   UNL     1     -39.401  50.128 -51.415  1.00  0.00     0.005 C 
ENDBRANCH  17  18
ENDBRANCH  16  17
ENDBRANCH  15  16
ENDBRANCH  12  15
ENDBRANCH   6   9
ENDBRANCH   3   5
ENDBRANCH   1   3
BRANCH   1  20
HETATM   20  C   UNL     1     -44.047  56.573 -54.255  1.00  0.00     0.035 A 
HETATM   21  C   UNL     1     -43.647  57.638 -55.074  1.00  0.00     0.048 A 
HETATM   22  C   UNL     1     -43.044  57.399 -56.323  1.00  0.00     0.052 A 
HETATM   23  C   UNL     1     -42.897  56.068 -56.750  1.00  0.00     0.080 A 
HETATM   24  C   UNL     1     -43.343  55.010 -55.968  1.00  0.00     0.040 A 
HETATM   25  C   UNL     1     -43.917  55.262 -54.725  1.00  0.00     0.032 A 
BRANCH  22  26
HETATM   26  C   UNL     1     -42.545  58.486 -57.160  1.00  0.00     0.183 A 
HETATM   27  O   UNL     1     -42.810  58.436 -58.504  1.00  0.00    -0.289 OA
HETATM   28  C   UNL     1     -42.237  59.577 -58.990  1.00  0.00     0.106 A 
HETATM   29  C   UNL     1     -41.665  60.254 -57.925  1.00  0.00     0.093 A 
HETATM   30  C   UNL     1     -42.215  60.019 -60.307  1.00  0.00     0.040 A 
HETATM   31  N   UNL     1     -41.859  59.547 -56.767  1.00  0.00    -0.221 NA
HETATM   32  C   UNL     1     -41.017  61.472 -58.158  1.00  0.00     0.034 A 
HETATM   33  C   UNL     1     -40.974  61.954 -59.475  1.00  0.00     0.002 A 
HETATM   34  C   UNL     1     -41.560  61.239 -60.527  1.00  0.00     0.003 A 
ENDBRANCH  22  26
BRANCH  23  35
HETATM   35  O   UNL     1     -42.318  55.721 -57.944  1.00  0.00    -0.360 OA
HETATM   36  H   UNL     1     -41.963  54.808 -57.867  1.00  0.00     0.217 HD
ENDBRANCH  23  35
ENDBRANCH   1  20
TORSDOF 10
ENDMDL
MODEL 5
REMARK VINA RESULT:      -7.8      2.779      8.207
REMARK  10 active torsions:
REMARK  status: ('A' for Active; 'I' for Inactive)
REMARK    1  A    between atoms: C_2  and  C_3 
REMARK    2  A    between atoms: C_3  and  C_4 
REMARK    3  A    between atoms: C_4  and  O_5 
REMARK    4  A    between atoms: O_5  and  C_6 
REMARK    5  A    between atoms: C_9  and  C_10 
REMARK       I    between atoms: C_10  and  N_11 
REMARK    6  A    between atoms: N_11  and  C_12 
REMARK    7  A    between atoms: C_12  and  N_13 
REMARK    8  A    between atoms: N_13  and  C_14 
REMARK    9  A    between atoms: C_16  and  C_17 
REMARK   10  A    between atoms: C_26  and  O_27 
ROOT
HETATM    1  N   UNL     1     -44.032  58.458 -53.184  1.00  0.00    -0.337 N 
HETATM    2  H   UNL     1     -45.038  58.466 -53.041  1.00  0.00     0.168 HD
ENDROOT
BRANCH   1   3
HETATM    3  C   UNL     1     -43.297  58.903 -52.103  1.00  0.00     0.157 C 
HETATM    4  S   UNL     1     -42.377  60.285 -52.273  1.00  0.00    -0.047 SA
BRANCH   3   5
HETATM    5  N   UNL     1     -43.336  58.068 -50.999  1.00  0.00    -0.201 NA
HETATM    6  C   UNL     1     -43.701  56.735 -50.960  1.00  0.00     0.237 C 
HETATM    7  O   UNL     1     -44.823  56.386 -50.610  1.00  0.00    -0.274 OA
HETATM    8  H   UNL     1     -43.902  58.553 -50.311  1.00  0.00     0.139 HD
BRANCH   6   9
HETATM    9  C   UNL     1     -42.573  55.770 -51.000  1.00  0.00     0.026 A 
HETATM   10  C   UNL     1     -41.453  55.875 -50.169  1.00  0.00     0.019 A 
HETATM   11  C   UNL     1     -40.486  54.867 -50.179  1.00  0.00     0.038 A 
HETATM   12  C   UNL     1     -40.662  53.747 -50.987  1.00  0.00     0.068 A 
HETATM   13  C   UNL     1     -41.754  53.648 -51.846  1.00  0.00     0.038 A 
HETATM   14  C   UNL     1     -42.709  54.664 -51.854  1.00  0.00     0.019 A 
BRANCH  12  15
HETATM   15  O   UNL     1     -39.722  52.756 -50.941  1.00  0.00    -0.351 OA
BRANCH  15  16
HETATM   16  C   UNL     1     -39.726  51.986 -52.153  1.00  0.00     0.175 C 
BRANCH  16  17
HETATM   17  C   UNL     1     -39.604  50.512 -51.782  1.00  0.00     0.026 C 
BRANCH  17  18
HETATM   18  C   UNL     1     -39.622  49.614 -53.015  1.00  0.00    -0.002 C 
HETATM   19  C   UNL     1     -40.111  50.365 -54.243  1.00  0.00     0.005 C 
ENDBRANCH  17  18
ENDBRANCH  16  17
ENDBRANCH  15  16
ENDBRANCH  12  15
ENDBRANCH   6   9
ENDBRANCH   3   5
ENDBRANCH   1   3
BRANCH   1  20
HETATM   20  C   UNL     1     -43.565  57.983 -54.431  1.00  0.00     0.035 A 
HETATM   21  C   UNL     1     -43.213  58.921 -55.411  1.00  0.00     0.048 A 
HETATM   22  C   UNL     1     -42.693  58.507 -56.651  1.00  0.00     0.052 A 
HETATM   23  C   UNL     1     -42.581  57.128 -56.902  1.00  0.00     0.080 A 
HETATM   24  C   UNL     1     -42.982  56.192 -55.956  1.00  0.00     0.040 A 
HETATM   25  C   UNL     1     -43.473  56.619 -54.726  1.00  0.00     0.032 A 
BRANCH  22  26
HETATM   26  C   UNL     1     -42.243  59.464 -57.658  1.00  0.00     0.183 A 
HETATM   27  O   UNL     1     -41.371  60.446 -57.267  1.00  0.00    -0.289 OA
HETATM   28  C   UNL     1     -41.137  61.148 -58.416  1.00  0.00     0.106 A 
HETATM   29  C   UNL     1     -41.868  60.556 -59.433  1.00  0.00     0.093 A 
HETATM   30  C   UNL     1     -40.316  62.258 -58.579  1.00  0.00     0.040 A 
HETATM   31  N   UNL     1     -42.576  59.491 -58.939  1.00  0.00    -0.221 NA
HETATM   32  C   UNL     1     -41.793  61.086 -60.727  1.00  0.00     0.034 A 
HETATM   33  C   UNL     1     -40.973  62.206 -60.933  1.00  0.00     0.002 A 
HETATM   34  C   UNL     1     -40.252  62.779 -59.878  1.00  0.00     0.003 A 
ENDBRANCH  22  26
BRANCH  23  35
HETATM   35  O   UNL     1     -42.082  56.614 -58.071  1.00  0.00    -0.360 OA
HETATM   36  H   UNL     1     -42.780  56.666 -58.760  1.00  0.00     0.217 HD
ENDBRANCH  23  35
ENDBRANCH   1  20
TORSDOF 10
ENDMDL
MODEL 6
REMARK VINA RESULT:      -7.7      2.336      7.159
REMARK  10 active torsions:
REMARK  status: ('A' for Active; 'I' for Inactive)
REMARK    1  A    between atoms: C_2  and  C_3 
REMARK    2  A    between atoms: C_3  and  C_4 
REMARK    3  A    between atoms: C_4  and  O_5 
REMARK    4  A    between atoms: O_5  and  C_6 
REMARK    5  A    between atoms: C_9  and  C_10 
REMARK       I    between atoms: C_10  and  N_11 
REMARK    6  A    between atoms: N_11  and  C_12 
REMARK    7  A    between atoms: C_12  and  N_13 
REMARK    8  A    between atoms: N_13  and  C_14 
REMARK    9  A    between atoms: C_16  and  C_17 
REMARK   10  A    between atoms: C_26  and  O_27 
ROOT
HETATM    1  N   UNL     1     -41.071  58.310 -52.463  1.00  0.00    -0.337 N 
HETATM    2  H   UNL     1     -40.221  57.806 -52.695  1.00  0.00     0.168 HD
ENDROOT
BRANCH   1   3
HETATM    3  C   UNL     1     -41.390  58.305 -51.120  1.00  0.00     0.157 C 
HETATM    4  S   UNL     1     -40.982  59.633 -50.195  1.00  0.00    -0.047 SA
BRANCH   3   5
HETATM    5  N   UNL     1     -41.942  57.121 -50.663  1.00  0.00    -0.201 NA
HETATM    6  C   UNL     1     -42.907  56.346 -51.280  1.00  0.00     0.237 C 
HETATM    7  O   UNL     1     -44.088  56.412 -50.957  1.00  0.00    -0.274 OA
HETATM    8  H   UNL     1     -42.273  57.319 -49.725  1.00  0.00     0.139 HD
BRANCH   6   9
HETATM    9  C   UNL     1     -42.388  55.195 -52.063  1.00  0.00     0.026 A 
HETATM   10  C   UNL     1     -42.946  54.790 -53.279  1.00  0.00     0.019 A 
HETATM   11  C   UNL     1     -42.336  53.774 -54.018  1.00  0.00     0.038 A 
HETATM   12  C   UNL     1     -41.154  53.198 -53.558  1.00  0.00     0.068 A 
HETATM   13  C   UNL     1     -40.609  53.567 -52.330  1.00  0.00     0.038 A 
HETATM   14  C   UNL     1     -41.230  54.565 -51.580  1.00  0.00     0.019 A 
BRANCH  12  15
HETATM   15  O   UNL     1     -40.554  52.239 -54.325  1.00  0.00    -0.351 OA
BRANCH  15  16
HETATM   16  C   UNL     1     -39.464  51.624 -53.621  1.00  0.00     0.175 C 
BRANCH  16  17
HETATM   17  C   UNL     1     -39.555  50.115 -53.825  1.00  0.00     0.026 C 
BRANCH  17  18
HETATM   18  C   UNL     1     -39.749  49.375 -52.505  1.00  0.00    -0.002 C 
HETATM   19  C   UNL     1     -39.409  50.259 -51.317  1.00  0.00     0.005 C 
ENDBRANCH  17  18
ENDBRANCH  16  17
ENDBRANCH  15  16
ENDBRANCH  12  15
ENDBRANCH   6   9
ENDBRANCH   3   5
ENDBRANCH   1   3
BRANCH   1  20
HETATM   20  C   UNL     1     -41.757  58.937 -53.529  1.00  0.00     0.035 A 
HETATM   21  C   UNL     1     -42.106  58.161 -54.643  1.00  0.00     0.048 A 
HETATM   22  C   UNL     1     -42.835  58.719 -55.709  1.00  0.00     0.052 A 
HETATM   23  C   UNL     1     -43.161  60.086 -55.652  1.00  0.00     0.080 A 
HETATM   24  C   UNL     1     -42.768  60.874 -54.578  1.00  0.00     0.040 A 
HETATM   25  C   UNL     1     -42.067  60.300 -53.520  1.00  0.00     0.032 A 
BRANCH  22  26
HETATM   26  C   UNL     1     -43.283  57.916 -56.844  1.00  0.00     0.183 A 
HETATM   27  O   UNL     1     -44.507  58.202 -57.390  1.00  0.00    -0.289 OA
HETATM   28  C   UNL     1     -44.620  57.306 -58.416  1.00  0.00     0.106 A 
HETATM   29  C   UNL     1     -43.468  56.537 -58.439  1.00  0.00     0.093 A 
HETATM   30  C   UNL     1     -45.680  57.164 -59.303  1.00  0.00     0.040 A 
HETATM   31  N   UNL     1     -42.627  56.926 -57.429  1.00  0.00    -0.221 NA
HETATM   32  C   UNL     1     -43.330  55.542 -59.415  1.00  0.00     0.034 A 
HETATM   33  C   UNL     1     -44.378  55.368 -60.331  1.00  0.00     0.002 A 
HETATM   34  C   UNL     1     -45.529  56.163 -60.273  1.00  0.00     0.003 A 
ENDBRANCH  22  26
BRANCH  23  35
HETATM   35  O   UNL     1     -43.873  60.731 -56.632  1.00  0.00    -0.360 OA
HETATM   36  H   UNL     1     -43.871  60.173 -57.440  1.00  0.00     0.217 HD
ENDBRANCH  23  35
ENDBRANCH   1  20
TORSDOF 10
ENDMDL
MODEL 7
REMARK VINA RESULT:      -7.7      3.823      6.062
REMARK  10 active torsions:
REMARK  status: ('A' for Active; 'I' for Inactive)
REMARK    1  A    between atoms: C_2  and  C_3 
REMARK    2  A    between atoms: C_3  and  C_4 
REMARK    3  A    between atoms: C_4  and  O_5 
REMARK    4  A    between atoms: O_5  and  C_6 
REMARK    5  A    between atoms: C_9  and  C_10 
REMARK       I    between atoms: C_10  and  N_11 
REMARK    6  A    between atoms: N_11  and  C_12 
REMARK    7  A    between atoms: C_12  and  N_13 
REMARK    8  A    between atoms: N_13  and  C_14 
REMARK    9  A    between atoms: C_16  and  C_17 
REMARK   10  A    between atoms: C_26  and  O_27 
ROOT
HETATM    1  N   UNL     1     -46.077  60.635 -54.139  1.00  0.00    -0.337 N 
HETATM    2  H   UNL     1     -46.776  60.354 -54.820  1.00  0.00     0.168 HD
ENDROOT
BRANCH   1   3
HETATM    3  C   UNL     1     -45.640  61.938 -54.272  1.00  0.00     0.157 C 
HETATM    4  S   UNL     1     -46.772  63.145 -54.485  1.00  0.00    -0.047 SA
BRANCH   3   5
HETATM    5  N   UNL     1     -44.263  62.082 -54.311  1.00  0.00    -0.201 NA
HETATM    6  C   UNL     1     -43.445  62.637 -53.345  1.00  0.00     0.237 C 
HETATM    7  O   UNL     1     -43.045  63.793 -53.428  1.00  0.00    -0.274 OA
HETATM    8  H   UNL     1     -44.065  62.562 -55.182  1.00  0.00     0.139 HD
BRANCH   6   9
HETATM    9  C   UNL     1     -42.795  61.663 -52.432  1.00  0.00     0.026 A 
HETATM   10  C   UNL     1     -42.972  61.686 -51.045  1.00  0.00     0.019 A 
HETATM   11  C   UNL     1     -42.424  60.669 -50.259  1.00  0.00     0.038 A 
HETATM   12  C   UNL     1     -41.738  59.619 -50.865  1.00  0.00     0.068 A 
HETATM   13  C   UNL     1     -41.523  59.604 -52.241  1.00  0.00     0.038 A 
HETATM   14  C   UNL     1     -42.050  60.631 -53.025  1.00  0.00     0.019 A 
BRANCH  12  15
HETATM   15  O   UNL     1     -41.254  58.615 -50.074  1.00  0.00    -0.351 OA
BRANCH  15  16
HETATM   16  C   UNL     1     -40.954  57.447 -50.854  1.00  0.00     0.175 C 
BRANCH  16  17
HETATM   17  C   UNL     1     -41.260  56.217 -50.005  1.00  0.00     0.026 C 
BRANCH  17  18
HETATM   18  C   UNL     1     -40.255  55.095 -50.250  1.00  0.00    -0.002 C 
HETATM   19  C   UNL     1     -40.096  54.213 -49.023  1.00  0.00     0.005 C 
ENDBRANCH  17  18
ENDBRANCH  16  17
ENDBRANCH  15  16
ENDBRANCH  12  15
ENDBRANCH   6   9
ENDBRANCH   3   5
ENDBRANCH   1   3
BRANCH   1  20
HETATM   20  C   UNL     1     -45.695  59.672 -53.177  1.00  0.00     0.035 A 
HETATM   21  C   UNL     1     -44.894  58.599 -53.591  1.00  0.00     0.048 A 
HETATM   22  C   UNL     1     -44.441  57.640 -52.667  1.00  0.00     0.052 A 
HETATM   23  C   UNL     1     -44.852  57.756 -51.327  1.00  0.00     0.080 A 
HETATM   24  C   UNL     1     -45.693  58.784 -50.922  1.00  0.00     0.040 A 
HETATM   25  C   UNL     1     -46.113  59.738 -51.844  1.00  0.00     0.032 A 
BRANCH  22  26
HETATM   26  C   UNL     1     -43.539  56.558 -53.055  1.00  0.00     0.183 A 
HETATM   27  O   UNL     1     -42.587  56.825 -54.005  1.00  0.00    -0.289 OA
HETATM   28  C   UNL     1     -41.914  55.643 -54.129  1.00  0.00     0.106 A 
HETATM   29  C   UNL     1     -42.485  54.733 -53.254  1.00  0.00     0.093 A 
HETATM   30  C   UNL     1     -40.841  55.363 -54.966  1.00  0.00     0.040 A 
HETATM   31  N   UNL     1     -43.524  55.322 -52.582  1.00  0.00    -0.221 NA
HETATM   32  C   UNL     1     -41.964  53.436 -53.180  1.00  0.00     0.034 A 
HETATM   33  C   UNL     1     -40.878  53.114 -54.008  1.00  0.00     0.002 A 
HETATM   34  C   UNL     1     -40.331  54.060 -54.884  1.00  0.00     0.003 A 
ENDBRANCH  22  26
BRANCH  23  35
HETATM   35  O   UNL     1     -44.465  56.882 -50.343  1.00  0.00    -0.360 OA
HETATM   36  H   UNL     1     -45.048  57.009 -49.564  1.00  0.00     0.217 HD
ENDBRANCH  23  35
ENDBRANCH   1  20
TORSDOF 10
ENDMDL
MODEL 8
REMARK VINA RESULT:      -7.7      1.627      2.453
REMARK  10 active torsions:
REMARK  status: ('A' for Active; 'I' for Inactive)
REMARK    1  A    between atoms: C_2  and  C_3 
REMARK    2  A    between atoms: C_3  and  C_4 
REMARK    3  A    between atoms: C_4  and  O_5 
REMARK    4  A    between atoms: O_5  and  C_6 
REMARK    5  A    between atoms: C_9  and  C_10 
REMARK       I    between atoms: C_10  and  N_11 
REMARK    6  A    between atoms: N_11  and  C_12 
REMARK    7  A    between atoms: C_12  and  N_13 
REMARK    8  A    between atoms: N_13  and  C_14 
REMARK    9  A    between atoms: C_16  and  C_17 
REMARK   10  A    between atoms: C_26  and  O_27 
ROOT
HETATM    1  N   UNL     1     -41.883  58.604 -53.934  1.00  0.00    -0.337 N 
HETATM    2  H   UNL     1     -41.101  58.916 -54.502  1.00  0.00     0.168 HD
ENDROOT
BRANCH   1   3
HETATM    3  C   UNL     1     -43.104  59.132 -54.304  1.00  0.00     0.157 C 
HETATM    4  S   UNL     1     -44.405  58.939 -53.276  1.00  0.00    -0.047 SA
BRANCH   3   5
HETATM    5  N   UNL     1     -43.129  59.694 -55.569  1.00  0.00    -0.201 NA
HETATM    6  C   UNL     1     -42.229  59.494 -56.600  1.00  0.00     0.237 C 
HETATM    7  O   UNL     1     -41.330  60.294 -56.832  1.00  0.00    -0.274 OA
HETATM    8  H   UNL     1     -43.196  60.695 -55.421  1.00  0.00     0.139 HD
BRANCH   6   9
HETATM    9  C   UNL     1     -42.637  58.483 -57.608  1.00  0.00     0.026 A 
HETATM   10  C   UNL     1     -42.842  58.794 -58.956  1.00  0.00     0.019 A 
HETATM   11  C   UNL     1     -43.112  57.772 -59.870  1.00  0.00     0.038 A 
HETATM   12  C   UNL     1     -43.137  56.447 -59.440  1.00  0.00     0.068 A 
HETATM   13  C   UNL     1     -42.971  56.129 -58.094  1.00  0.00     0.038 A 
HETATM   14  C   UNL     1     -42.724  57.149 -57.176  1.00  0.00     0.019 A 
BRANCH  12  15
HETATM   15  O   UNL     1     -43.357  55.466 -60.365  1.00  0.00    -0.351 OA
BRANCH  15  16
HETATM   16  C   UNL     1     -44.634  54.843 -60.160  1.00  0.00     0.175 C 
BRANCH  16  17
HETATM   17  C   UNL     1     -45.656  55.551 -61.044  1.00  0.00     0.026 C 
BRANCH  17  18
HETATM   18  C   UNL     1     -46.854  56.047 -60.239  1.00  0.00    -0.002 C 
HETATM   19  C   UNL     1     -46.756  57.537 -59.958  1.00  0.00     0.005 C 
ENDBRANCH  17  18
ENDBRANCH  16  17
ENDBRANCH  15  16
ENDBRANCH  12  15
ENDBRANCH   6   9
ENDBRANCH   3   5
ENDBRANCH   1   3
BRANCH   1  20
HETATM   20  C   UNL     1     -41.599  57.685 -52.899  1.00  0.00     0.035 A 
HETATM   21  C   UNL     1     -41.356  56.348 -53.244  1.00  0.00     0.048 A 
HETATM   22  C   UNL     1     -41.017  55.400 -52.261  1.00  0.00     0.052 A 
HETATM   23  C   UNL     1     -40.976  55.815 -50.919  1.00  0.00     0.080 A 
HETATM   24  C   UNL     1     -41.272  57.125 -50.563  1.00  0.00     0.040 A 
HETATM   25  C   UNL     1     -41.583  58.056 -51.550  1.00  0.00     0.032 A 
BRANCH  22  26
HETATM   26  C   UNL     1     -40.680  54.020 -52.602  1.00  0.00     0.183 A 
HETATM   27  O   UNL     1     -40.226  53.204 -51.599  1.00  0.00    -0.289 OA
HETATM   28  C   UNL     1     -40.021  52.007 -52.225  1.00  0.00     0.106 A 
HETATM   29  C   UNL     1     -40.363  52.159 -53.559  1.00  0.00     0.093 A 
HETATM   30  C   UNL     1     -39.559  50.824 -51.661  1.00  0.00     0.040 A 
HETATM   31  N   UNL     1     -40.773  53.446 -53.791  1.00  0.00    -0.221 NA
HETATM   32  C   UNL     1     -40.252  51.062 -54.422  1.00  0.00     0.034 A 
HETATM   33  C   UNL     1     -39.791  49.849 -53.891  1.00  0.00     0.002 A 
HETATM   34  C   UNL     1     -39.450  49.735 -52.537  1.00  0.00     0.003 A 
ENDBRANCH  22  26
BRANCH  23  35
HETATM   35  O   UNL     1     -40.651  54.978 -49.882  1.00  0.00    -0.360 OA
HETATM   36  H   UNL     1     -40.742  55.473 -49.039  1.00  0.00     0.217 HD
ENDBRANCH  23  35
ENDBRANCH   1  20
TORSDOF 10
ENDMDL
MODEL 9
REMARK VINA RESULT:      -7.6      2.518      3.930
REMARK  10 active torsions:
REMARK  status: ('A' for Active; 'I' for Inactive)
REMARK    1  A    between atoms: C_2  and  C_3 
REMARK    2  A    between atoms: C_3  and  C_4 
REMARK    3  A    between atoms: C_4  and  O_5 
REMARK    4  A    between atoms: O_5  and  C_6 
REMARK    5  A    between atoms: C_9  and  C_10 
REMARK       I    between atoms: C_10  and  N_11 
REMARK    6  A    between atoms: N_11  and  C_12 
REMARK    7  A    between atoms: C_12  and  N_13 
REMARK    8  A    between atoms: N_13  and  C_14 
REMARK    9  A    between atoms: C_16  and  C_17 
REMARK   10  A    between atoms: C_26  and  O_27 
ROOT
HETATM    1  N   UNL     1     -42.724  58.170 -50.979  1.00  0.00    -0.337 N 
HETATM    2  H   UNL     1     -42.561  57.864 -50.025  1.00  0.00     0.168 HD
ENDROOT
BRANCH   1   3
HETATM    3  C   UNL     1     -43.641  59.196 -51.102  1.00  0.00     0.157 C 
HETATM    4  S   UNL     1     -43.359  60.624 -50.285  1.00  0.00    -0.047 SA
BRANCH   3   5
HETATM    5  N   UNL     1     -44.771  58.873 -51.834  1.00  0.00    -0.201 NA
HETATM    6  C   UNL     1     -45.191  59.431 -53.028  1.00  0.00     0.237 C 
HETATM    7  O   UNL     1     -46.055  60.300 -53.062  1.00  0.00    -0.274 OA
HETATM    8  H   UNL     1     -45.545  58.942 -51.183  1.00  0.00     0.139 HD
BRANCH   6   9
HETATM    9  C   UNL     1     -44.819  58.668 -54.247  1.00  0.00     0.026 A 
HETATM   10  C   UNL     1     -44.472  59.285 -55.453  1.00  0.00     0.019 A 
HETATM   11  C   UNL     1     -44.022  58.509 -56.524  1.00  0.00     0.038 A 
HETATM   12  C   UNL     1     -43.884  57.131 -56.371  1.00  0.00     0.068 A 
HETATM   13  C   UNL     1     -44.261  56.501 -55.187  1.00  0.00     0.038 A 
HETATM   14  C   UNL     1     -44.733  57.272 -54.125  1.00  0.00     0.019 A 
BRANCH  12  15
HETATM   15  O   UNL     1     -43.396  56.405 -57.421  1.00  0.00    -0.351 OA
BRANCH  15  16
HETATM   16  C   UNL     1     -42.678  57.245 -58.337  1.00  0.00     0.175 C 
BRANCH  16  17
HETATM   17  C   UNL     1     -42.660  56.558 -59.699  1.00  0.00     0.026 C 
BRANCH  17  18
HETATM   18  C   UNL     1     -43.679  55.425 -59.776  1.00  0.00    -0.002 C 
HETATM   19  C   UNL     1     -45.004  55.907 -60.342  1.00  0.00     0.005 C 
ENDBRANCH  17  18
ENDBRANCH  16  17
ENDBRANCH  15  16
ENDBRANCH  12  15
ENDBRANCH   6   9
ENDBRANCH   3   5
ENDBRANCH   1   3
BRANCH   1  20
HETATM   20  C   UNL     1     -41.984  57.525 -51.996  1.00  0.00     0.035 A 
HETATM   21  C   UNL     1     -41.620  56.185 -51.806  1.00  0.00     0.048 A 
HETATM   22  C   UNL     1     -40.928  55.477 -52.806  1.00  0.00     0.052 A 
HETATM   23  C   UNL     1     -40.568  56.161 -53.981  1.00  0.00     0.080 A 
HETATM   24  C   UNL     1     -40.874  57.505 -54.151  1.00  0.00     0.040 A 
HETATM   25  C   UNL     1     -41.579  58.184 -53.162  1.00  0.00     0.032 A 
BRANCH  22  26
HETATM   26  C   UNL     1     -40.609  54.059 -52.668  1.00  0.00     0.183 A 
HETATM   27  O   UNL     1     -40.625  53.284 -53.799  1.00  0.00    -0.289 OA
HETATM   28  C   UNL     1     -40.276  52.043 -53.346  1.00  0.00     0.106 A 
HETATM   29  C   UNL     1     -40.063  52.132 -51.980  1.00  0.00     0.093 A 
HETATM   30  C   UNL     1     -40.141  50.876 -54.089  1.00  0.00     0.040 A 
HETATM   31  N   UNL     1     -40.287  53.417 -51.557  1.00  0.00    -0.221 NA
HETATM   32  C   UNL     1     -39.680  50.988 -51.271  1.00  0.00     0.034 A 
HETATM   33  C   UNL     1     -39.531  49.790 -51.985  1.00  0.00     0.002 A 
HETATM   34  C   UNL     1     -39.760  49.738 -53.367  1.00  0.00     0.003 A 
ENDBRANCH  22  26
BRANCH  23  35
HETATM   35  O   UNL     1     -39.899  55.568 -55.021  1.00  0.00    -0.360 OA
HETATM   36  H   UNL     1     -39.088  56.088 -55.209  1.00  0.00     0.217 HD
ENDBRANCH  23  35
ENDBRANCH   1  20
TORSDOF 10
ENDMDL
MODEL 10
REMARK VINA RESULT:      -7.5      4.748      9.452
REMARK  10 active torsions:
REMARK  status: ('A' for Active; 'I' for Inactive)
REMARK    1  A    between atoms: C_2  and  C_3 
REMARK    2  A    between atoms: C_3  and  C_4 
REMARK    3  A    between atoms: C_4  and  O_5 
REMARK    4  A    between atoms: O_5  and  C_6 
REMARK    5  A    between atoms: C_9  and  C_10 
REMARK       I    between atoms: C_10  and  N_11 
REMARK    6  A    between atoms: N_11  and  C_12 
REMARK    7  A    between atoms: C_12  and  N_13 
REMARK    8  A    between atoms: N_13  and  C_14 
REMARK    9  A    between atoms: C_16  and  C_17 
REMARK   10  A    between atoms: C_26  and  O_27 
ROOT
HETATM    1  N   UNL     1     -43.174  58.767 -50.812  1.00  0.00    -0.337 N 
HETATM    2  H   UNL     1     -43.712  58.601 -49.967  1.00  0.00     0.168 HD
ENDROOT
BRANCH   1   3
HETATM    3  C   UNL     1     -42.321  59.850 -50.742  1.00  0.00     0.157 C 
HETATM    4  S   UNL     1     -40.692  59.573 -50.505  1.00  0.00    -0.047 SA
BRANCH   3   5
HETATM    5  N   UNL     1     -42.950  61.082 -50.782  1.00  0.00    -0.201 NA
HETATM    6  C   UNL     1     -44.295  61.350 -50.605  1.00  0.00     0.237 C 
HETATM    7  O   UNL     1     -45.048  61.519 -51.557  1.00  0.00    -0.274 OA
HETATM    8  H   UNL     1     -42.677  61.499 -51.666  1.00  0.00     0.139 HD
BRANCH   6   9
HETATM    9  C   UNL     1     -44.679  61.781 -49.236  1.00  0.00     0.026 A 
HETATM   10  C   UNL     1     -45.090  60.885 -48.244  1.00  0.00     0.019 A 
HETATM   11  C   UNL     1     -45.324  61.346 -46.947  1.00  0.00     0.038 A 
HETATM   12  C   UNL     1     -45.108  62.688 -46.640  1.00  0.00     0.068 A 
HETATM   13  C   UNL     1     -44.735  63.597 -47.627  1.00  0.00     0.038 A 
HETATM   14  C   UNL     1     -44.523  63.142 -48.928  1.00  0.00     0.019 A 
BRANCH  12  15
HETATM   15  O   UNL     1     -45.300  63.101 -45.351  1.00  0.00    -0.351 OA
BRANCH  15  16
HETATM   16  C   UNL     1     -44.733  64.403 -45.139  1.00  0.00     0.175 C 
BRANCH  16  17
HETATM   17  C   UNL     1     -44.469  64.570 -43.646  1.00  0.00     0.026 C 
BRANCH  17  18
HETATM   18  C   UNL     1     -43.610  63.436 -43.092  1.00  0.00    -0.002 C 
HETATM   19  C   UNL     1     -43.681  63.375 -41.576  1.00  0.00     0.005 C 
ENDBRANCH  17  18
ENDBRANCH  16  17
ENDBRANCH  15  16
ENDBRANCH  12  15
ENDBRANCH   6   9
ENDBRANCH   3   5
ENDBRANCH   1   3
BRANCH   1  20
HETATM   20  C   UNL     1     -43.369  57.867 -51.884  1.00  0.00     0.035 A 
HETATM   21  C   UNL     1     -42.519  56.757 -51.984  1.00  0.00     0.048 A 
HETATM   22  C   UNL     1     -42.698  55.800 -53.000  1.00  0.00     0.052 A 
HETATM   23  C   UNL     1     -43.720  56.011 -53.942  1.00  0.00     0.080 A 
HETATM   24  C   UNL     1     -44.529  57.139 -53.884  1.00  0.00     0.040 A 
HETATM   25  C   UNL     1     -44.353  58.064 -52.858  1.00  0.00     0.032 A 
BRANCH  22  26
HETATM   26  C   UNL     1     -41.880  54.593 -53.079  1.00  0.00     0.183 A 
HETATM   27  O   UNL     1     -41.287  54.143 -51.928  1.00  0.00    -0.289 OA
HETATM   28  C   UNL     1     -40.623  53.017 -52.325  1.00  0.00     0.106 A 
HETATM   29  C   UNL     1     -40.850  52.844 -53.681  1.00  0.00     0.093 A 
HETATM   30  C   UNL     1     -39.852  52.167 -51.542  1.00  0.00     0.040 A 
HETATM   31  N   UNL     1     -41.643  53.858 -54.153  1.00  0.00    -0.221 NA
HETATM   32  C   UNL     1     -40.282  51.745 -54.335  1.00  0.00     0.034 A 
HETATM   33  C   UNL     1     -39.497  50.861 -53.578  1.00  0.00     0.002 A 
HETATM   34  C   UNL     1     -39.287  51.072 -52.209  1.00  0.00     0.003 A 
ENDBRANCH  22  26
BRANCH  23  35
HETATM   35  O   UNL     1     -43.988  55.142 -54.969  1.00  0.00    -0.360 OA
HETATM   36  H   UNL     1     -43.183  55.055 -55.524  1.00  0.00     0.217 HD
ENDBRANCH  23  35
ENDBRANCH   1  20
TORSDOF 10
ENDMDL
