MODEL 1
REMARK VINA RESULT:      -8.4      0.000      0.000
REMARK  5 active torsions:
REMARK  status: ('A' for Active; 'I' for Inactive)
REMARK    1  A    between atoms: C_2  and  N_3 
REMARK       I    between atoms: N_3  and  C_4 
REMARK    2  A    between atoms: C_4  and  C_5 
REMARK    3  A    between atoms: C_13  and  C_14 
REMARK    4  A    between atoms: C_15  and  O_16 
REMARK    5  A    between atoms: C_19  and  O_20 
ROOT
HETATM    1  C   UNL     1     -42.874  56.407 -55.570  1.00  0.00     0.046 A 
HETATM    2  C   UNL     1     -43.579  57.182 -54.621  1.00  0.00     0.008 A 
HETATM    3  C   UNL     1     -43.445  56.786 -53.276  1.00  0.00     0.068 A 
HETATM    4  C   UNL     1     -44.108  57.510 -52.295  1.00  0.00     0.032 A 
HETATM    5  C   UNL     1     -44.901  58.618 -52.599  1.00  0.00     0.002 A 
HETATM    6  C   UNL     1     -45.036  59.023 -53.918  1.00  0.00     0.001 A 
HETATM    7  C   UNL     1     -44.379  58.313 -54.923  1.00  0.00     0.015 A 
HETATM    8  N   UNL     1     -42.696  55.740 -52.891  1.00  0.00    -0.247 NA
HETATM    9  C   UNL     1     -42.059  54.996 -53.826  1.00  0.00     0.071 A 
HETATM   10  C   UNL     1     -42.119  55.302 -55.173  1.00  0.00     0.050 A 
ENDROOT
BRANCH   9  11
HETATM   11  C   UNL     1     -41.264  53.869 -53.326  1.00  0.00     0.026 A 
HETATM   12  C   UNL     1     -40.741  53.834 -52.022  1.00  0.00     0.083 A 
HETATM   13  C   UNL     1     -40.022  52.729 -51.546  1.00  0.00     0.074 A 
HETATM   14  C   UNL     1     -39.777  51.644 -52.385  1.00  0.00     0.070 A 
HETATM   15  C   UNL     1     -40.268  51.670 -53.691  1.00  0.00     0.038 A 
HETATM   16  C   UNL     1     -41.004  52.765 -54.156  1.00  0.00     0.019 A 
BRANCH  12  17
HETATM   17  O   UNL     1     -41.014  54.859 -51.147  1.00  0.00    -0.355 OA
HETATM   18  C   UNL     1     -40.265  54.692 -49.943  1.00  0.00     0.210 C 
ENDBRANCH  12  17
BRANCH  14  19
HETATM   19  O   UNL     1     -39.090  50.509 -52.055  1.00  0.00    -0.356 OA
HETATM   20  C   UNL     1     -39.499  49.830 -50.875  1.00  0.00     0.210 C 
ENDBRANCH  14  19
ENDBRANCH   9  11
BRANCH   1  21
HETATM   21  C   UNL     1     -42.912  56.722 -57.021  1.00  0.00     0.253 C 
HETATM   22  N   UNL     1     -43.690  55.865 -57.772  1.00  0.00    -0.349 N 
HETATM   23  H   UNL     1     -44.021  55.023 -57.319  1.00  0.00     0.163 HD
HETATM   24  O   UNL     1     -42.281  57.672 -57.465  1.00  0.00    -0.268 OA
BRANCH  22  25
HETATM   25  C   UNL     1     -43.842  55.936 -59.234  1.00  0.00     0.022 C 
HETATM   26  C   UNL     1     -42.480  56.148 -59.913  1.00  0.00     0.037 C 
HETATM   27  C   UNL     1     -44.816  57.055 -59.638  1.00  0.00     0.037 C 
HETATM   28  C   UNL     1     -44.427  54.596 -59.715  1.00  0.00     0.037 C 
ENDBRANCH  22  25
ENDBRANCH   1  21
TORSDOF 5
ENDMDL
MODEL 2
REMARK VINA RESULT:      -8.3      1.966      4.504
REMARK  5 active torsions:
REMARK  status: ('A' for Active; 'I' for Inactive)
REMARK    1  A    between atoms: C_2  and  N_3 
REMARK       I    between atoms: N_3  and  C_4 
REMARK    2  A    between atoms: C_4  and  C_5 
REMARK    3  A    between atoms: C_13  and  C_14 
REMARK    4  A    between atoms: C_15  and  O_16 
REMARK    5  A    between atoms: C_19  and  O_20 
ROOT
HETATM    1  C   UNL     1     -41.673  57.334 -54.162  1.00  0.00     0.046 A 
HETATM    2  C   UNL     1     -42.284  57.237 -55.432  1.00  0.00     0.008 A 
HETATM    3  C   UNL     1     -42.327  55.949 -56.002  1.00  0.00     0.068 A 
HETATM    4  C   UNL     1     -42.919  55.786 -57.247  1.00  0.00     0.032 A 
HETATM    5  C   UNL     1     -43.476  56.856 -57.950  1.00  0.00     0.002 A 
HETATM    6  C   UNL     1     -43.446  58.128 -57.398  1.00  0.00     0.001 A 
HETATM    7  C   UNL     1     -42.858  58.319 -56.148  1.00  0.00     0.015 A 
HETATM    8  N   UNL     1     -41.826  54.861 -55.394  1.00  0.00    -0.247 NA
HETATM    9  C   UNL     1     -41.217  54.991 -54.192  1.00  0.00     0.071 A 
HETATM   10  C   UNL     1     -41.126  56.209 -53.543  1.00  0.00     0.050 A 
ENDROOT
BRANCH   9  11
HETATM   11  C   UNL     1     -40.692  53.758 -53.594  1.00  0.00     0.026 A 
HETATM   12  C   UNL     1     -40.652  53.553 -52.205  1.00  0.00     0.083 A 
HETATM   13  C   UNL     1     -40.189  52.349 -51.651  1.00  0.00     0.074 A 
HETATM   14  C   UNL     1     -39.719  51.336 -52.483  1.00  0.00     0.070 A 
HETATM   15  C   UNL     1     -39.730  51.531 -53.865  1.00  0.00     0.038 A 
HETATM   16  C   UNL     1     -40.212  52.723 -54.415  1.00  0.00     0.019 A 
BRANCH  12  17
HETATM   17  O   UNL     1     -41.164  54.505 -51.355  1.00  0.00    -0.355 OA
HETATM   18  C   UNL     1     -40.411  54.541 -50.142  1.00  0.00     0.210 C 
ENDBRANCH  12  17
BRANCH  14  19
HETATM   19  O   UNL     1     -39.238  50.121 -52.081  1.00  0.00    -0.356 OA
HETATM   20  C   UNL     1     -39.519  49.729 -50.743  1.00  0.00     0.210 C 
ENDBRANCH  14  19
ENDBRANCH   9  11
BRANCH   1  21
HETATM   21  C   UNL     1     -41.574  58.626 -53.438  1.00  0.00     0.253 C 
HETATM   22  N   UNL     1     -42.611  58.872 -52.560  1.00  0.00    -0.349 N 
HETATM   23  H   UNL     1     -43.411  58.254 -52.605  1.00  0.00     0.163 HD
HETATM   24  O   UNL     1     -40.632  59.380 -53.643  1.00  0.00    -0.268 OA
BRANCH  22  25
HETATM   25  C   UNL     1     -42.765  60.103 -51.769  1.00  0.00     0.022 C 
HETATM   26  C   UNL     1     -42.857  61.331 -52.689  1.00  0.00     0.037 C 
HETATM   27  C   UNL     1     -41.608  60.273 -50.772  1.00  0.00     0.037 C 
HETATM   28  C   UNL     1     -44.075  59.991 -50.968  1.00  0.00     0.037 C 
ENDBRANCH  22  25
ENDBRANCH   1  21
TORSDOF 5
ENDMDL
MODEL 3
REMARK VINA RESULT:      -8.0      2.532      5.905
REMARK  5 active torsions:
REMARK  status: ('A' for Active; 'I' for Inactive)
REMARK    1  A    between atoms: C_2  and  N_3 
REMARK       I    between atoms: N_3  and  C_4 
REMARK    2  A    between atoms: C_4  and  C_5 
REMARK    3  A    between atoms: C_13  and  C_14 
REMARK    4  A    between atoms: C_15  and  O_16 
REMARK    5  A    between atoms: C_19  and  O_20 
ROOT
HETATM    1  C   UNL     1     -42.569  56.614 -55.299  1.00  0.00     0.046 A 
HETATM    2  C   UNL     1     -41.816  55.546 -54.761  1.00  0.00     0.008 A 
HETATM    3  C   UNL     1     -41.788  55.454 -53.356  1.00  0.00     0.068 A 
HETATM    4  C   UNL     1     -41.070  54.423 -52.765  1.00  0.00     0.032 A 
HETATM    5  C   UNL     1     -40.376  53.475 -53.519  1.00  0.00     0.002 A 
HETATM    6  C   UNL     1     -40.400  53.551 -54.904  1.00  0.00     0.001 A 
HETATM    7  C   UNL     1     -41.115  54.576 -55.522  1.00  0.00     0.015 A 
HETATM    8  N   UNL     1     -42.434  56.315 -52.552  1.00  0.00    -0.247 NA
HETATM    9  C   UNL     1     -43.121  57.347 -53.096  1.00  0.00     0.071 A 
HETATM   10  C   UNL     1     -43.215  57.526 -54.463  1.00  0.00     0.050 A 
ENDROOT
BRANCH   9  11
HETATM   11  C   UNL     1     -43.796  58.246 -52.152  1.00  0.00     0.026 A 
HETATM   12  C   UNL     1     -43.180  59.400 -51.640  1.00  0.00     0.083 A 
HETATM   13  C   UNL     1     -43.856  60.273 -50.774  1.00  0.00     0.074 A 
HETATM   14  C   UNL     1     -45.157  59.984 -50.371  1.00  0.00     0.070 A 
HETATM   15  C   UNL     1     -45.777  58.829 -50.851  1.00  0.00     0.038 A 
HETATM   16  C   UNL     1     -45.108  57.972 -51.732  1.00  0.00     0.019 A 
BRANCH  12  17
HETATM   17  O   UNL     1     -41.919  59.751 -52.063  1.00  0.00    -0.355 OA
HETATM   18  C   UNL     1     -40.980  59.591 -50.999  1.00  0.00     0.210 C 
ENDBRANCH  12  17
BRANCH  14  19
HETATM   19  O   UNL     1     -45.928  60.739 -49.532  1.00  0.00    -0.356 OA
HETATM   20  C   UNL     1     -45.432  60.947 -48.215  1.00  0.00     0.210 C 
ENDBRANCH  14  19
ENDBRANCH   9  11
BRANCH   1  21
HETATM   21  C   UNL     1     -42.697  56.821 -56.764  1.00  0.00     0.253 C 
HETATM   22  N   UNL     1     -43.492  55.892 -57.406  1.00  0.00    -0.349 N 
HETATM   23  H   UNL     1     -43.772  55.078 -56.875  1.00  0.00     0.163 HD
HETATM   24  O   UNL     1     -42.121  57.752 -57.310  1.00  0.00    -0.268 OA
BRANCH  22  25
HETATM   25  C   UNL     1     -43.729  55.853 -58.858  1.00  0.00     0.022 C 
HETATM   26  C   UNL     1     -44.304  54.492 -59.278  1.00  0.00     0.037 C 
HETATM   27  C   UNL     1     -42.438  56.147 -59.640  1.00  0.00     0.037 C 
HETATM   28  C   UNL     1     -44.756  56.948 -59.200  1.00  0.00     0.037 C 
ENDBRANCH  22  25
ENDBRANCH   1  21
TORSDOF 5
ENDMDL
MODEL 4
REMARK VINA RESULT:      -7.8      1.967      2.277
REMARK  5 active torsions:
REMARK  status: ('A' for Active; 'I' for Inactive)
REMARK    1  A    between atoms: C_2  and  N_3 
REMARK       I    between atoms: N_3  and  C_4 
REMARK    2  A    between atoms: C_4  and  C_5 
REMARK    3  A    between atoms: C_13  and  C_14 
REMARK    4  A    between atoms: C_15  and  O_16 
REMARK    5  A    between atoms: C_19  and  O_20 
ROOT
HETATM    1  C   UNL     1     -42.639  57.758 -54.114  1.00  0.00     0.046 A 
HETATM    2  C   UNL     1     -43.570  58.015 -53.082  1.00  0.00     0.008 A 
HETATM    3  C   UNL     1     -43.690  57.018 -52.095  1.00  0.00     0.068 A 
HETATM    4  C   UNL     1     -44.584  57.212 -51.050  1.00  0.00     0.032 A 
HETATM    5  C   UNL     1     -45.365  58.365 -50.947  1.00  0.00     0.002 A 
HETATM    6  C   UNL     1     -45.252  59.357 -51.909  1.00  0.00     0.001 A 
HETATM    7  C   UNL     1     -44.361  59.187 -52.967  1.00  0.00     0.015 A 
HETATM    8  N   UNL     1     -42.972  55.882 -52.107  1.00  0.00    -0.247 NA
HETATM    9  C   UNL     1     -42.113  55.650 -53.127  1.00  0.00     0.071 A 
HETATM   10  C   UNL     1     -41.915  56.565 -54.144  1.00  0.00     0.050 A 
ENDROOT
BRANCH   9  11
HETATM   11  C   UNL     1     -41.368  54.386 -53.072  1.00  0.00     0.026 A 
HETATM   12  C   UNL     1     -40.830  53.880 -51.877  1.00  0.00     0.083 A 
HETATM   13  C   UNL     1     -40.161  52.648 -51.834  1.00  0.00     0.074 A 
HETATM   14  C   UNL     1     -39.982  51.912 -53.002  1.00  0.00     0.070 A 
HETATM   15  C   UNL     1     -40.489  52.410 -54.204  1.00  0.00     0.038 A 
HETATM   16  C   UNL     1     -41.175  53.628 -54.240  1.00  0.00     0.019 A 
BRANCH  12  17
HETATM   17  O   UNL     1     -41.041  54.548 -50.693  1.00  0.00    -0.355 OA
HETATM   18  C   UNL     1     -39.847  54.551 -49.909  1.00  0.00     0.210 C 
ENDBRANCH  12  17
BRANCH  14  19
HETATM   19  O   UNL     1     -39.348  50.705 -53.106  1.00  0.00    -0.356 OA
HETATM   20  C   UNL     1     -39.596  49.948 -54.284  1.00  0.00     0.210 C 
ENDBRANCH  14  19
ENDBRANCH   9  11
BRANCH   1  21
HETATM   21  C   UNL     1     -42.399  58.730 -55.210  1.00  0.00     0.253 C 
HETATM   22  N   UNL     1     -43.217  58.567 -56.310  1.00  0.00    -0.349 N 
HETATM   23  H   UNL     1     -43.776  57.724 -56.349  1.00  0.00     0.163 HD
HETATM   24  O   UNL     1     -41.530  59.584 -55.101  1.00  0.00    -0.268 OA
BRANCH  22  25
HETATM   25  C   UNL     1     -43.136  59.368 -57.542  1.00  0.00     0.022 C 
HETATM   26  C   UNL     1     -41.833  59.067 -58.300  1.00  0.00     0.037 C 
HETATM   27  C   UNL     1     -43.235  60.871 -57.235  1.00  0.00     0.037 C 
HETATM   28  C   UNL     1     -44.326  58.983 -58.438  1.00  0.00     0.037 C 
ENDBRANCH  22  25
ENDBRANCH   1  21
TORSDOF 5
ENDMDL
MODEL 5
REMARK VINA RESULT:      -7.3      2.328      3.096
REMARK  5 active torsions:
REMARK  status: ('A' for Active; 'I' for Inactive)
REMARK    1  A    between atoms: C_2  and  N_3 
REMARK       I    between atoms: N_3  and  C_4 
REMARK    2  A    between atoms: C_4  and  C_5 
REMARK    3  A    between atoms: C_13  and  C_14 
REMARK    4  A    between atoms: C_15  and  O_16 
REMARK    5  A    between atoms: C_19  and  O_20 
ROOT
HETATM    1  C   UNL     1     -42.665  58.163 -54.021  1.00  0.00     0.046 A 
HETATM    2  C   UNL     1     -43.644  58.390 -53.028  1.00  0.00     0.008 A 
HETATM    3  C   UNL     1     -43.845  57.345 -52.106  1.00  0.00     0.068 A 
HETATM    4  C   UNL     1     -44.790  57.508 -51.102  1.00  0.00     0.032 A 
HETATM    5  C   UNL     1     -45.544  58.677 -50.976  1.00  0.00     0.002 A 
HETATM    6  C   UNL     1     -45.352  59.716 -51.873  1.00  0.00     0.001 A 
HETATM    7  C   UNL     1     -44.408  59.577 -52.890  1.00  0.00     0.015 A 
HETATM    8  N   UNL     1     -43.159  56.191 -52.144  1.00  0.00    -0.247 NA
HETATM    9  C   UNL     1     -42.250  55.989 -53.127  1.00  0.00     0.071 A 
HETATM   10  C   UNL     1     -41.972  56.952 -54.079  1.00  0.00     0.050 A 
ENDROOT
BRANCH   9  11
HETATM   11  C   UNL     1     -41.545  54.702 -53.104  1.00  0.00     0.026 A 
HETATM   12  C   UNL     1     -41.431  53.884 -54.240  1.00  0.00     0.083 A 
HETATM   13  C   UNL     1     -40.714  52.679 -54.212  1.00  0.00     0.074 A 
HETATM   14  C   UNL     1     -40.125  52.247 -53.026  1.00  0.00     0.070 A 
HETATM   15  C   UNL     1     -40.246  53.036 -51.881  1.00  0.00     0.038 A 
HETATM   16  C   UNL     1     -40.943  54.248 -51.918  1.00  0.00     0.019 A 
BRANCH  12  17
HETATM   17  O   UNL     1     -41.947  54.306 -55.443  1.00  0.00    -0.355 OA
HETATM   18  C   UNL     1     -43.287  53.837 -55.597  1.00  0.00     0.210 C 
ENDBRANCH  12  17
BRANCH  14  19
HETATM   19  O   UNL     1     -39.405  51.098 -52.855  1.00  0.00    -0.356 OA
HETATM   20  C   UNL     1     -39.456  50.493 -51.569  1.00  0.00     0.210 C 
ENDBRANCH  14  19
ENDBRANCH   9  11
BRANCH   1  21
HETATM   21  C   UNL     1     -42.338  59.186 -55.046  1.00  0.00     0.253 C 
HETATM   22  N   UNL     1     -43.175  59.185 -56.144  1.00  0.00    -0.349 N 
HETATM   23  H   UNL     1     -43.814  58.405 -56.237  1.00  0.00     0.163 HD
HETATM   24  O   UNL     1     -41.389  59.941 -54.886  1.00  0.00    -0.268 OA
BRANCH  22  25
HETATM   25  C   UNL     1     -43.024  60.064 -57.314  1.00  0.00     0.022 C 
HETATM   26  C   UNL     1     -41.699  59.780 -58.039  1.00  0.00     0.037 C 
HETATM   27  C   UNL     1     -43.100  61.545 -56.910  1.00  0.00     0.037 C 
HETATM   28  C   UNL     1     -44.186  59.770 -58.281  1.00  0.00     0.037 C 
ENDBRANCH  22  25
ENDBRANCH   1  21
TORSDOF 5
ENDMDL
MODEL 6
REMARK VINA RESULT:      -7.1      2.906      7.251
REMARK  5 active torsions:
REMARK  status: ('A' for Active; 'I' for Inactive)
REMARK    1  A    between atoms: C_2  and  N_3 
REMARK       I    between atoms: N_3  and  C_4 
REMARK    2  A    between atoms: C_4  and  C_5 
REMARK    3  A    between atoms: C_13  and  C_14 
REMARK    4  A    between atoms: C_15  and  O_16 
REMARK    5  A    between atoms: C_19  and  O_20 
ROOT
HETATM    1  C   UNL     1     -42.132  57.863 -53.182  1.00  0.00     0.046 A 
HETATM    2  C   UNL     1     -41.648  56.696 -52.549  1.00  0.00     0.008 A 
HETATM    3  C   UNL     1     -41.523  55.555 -53.366  1.00  0.00     0.068 A 
HETATM    4  C   UNL     1     -41.047  54.378 -52.805  1.00  0.00     0.032 A 
HETATM    5  C   UNL     1     -40.688  54.290 -51.458  1.00  0.00     0.002 A 
HETATM    6  C   UNL     1     -40.801  55.407 -50.645  1.00  0.00     0.001 A 
HETATM    7  C   UNL     1     -41.275  56.602 -51.184  1.00  0.00     0.015 A 
HETATM    8  N   UNL     1     -41.834  55.551 -54.673  1.00  0.00    -0.247 NA
HETATM    9  C   UNL     1     -42.327  56.675 -55.243  1.00  0.00     0.071 A 
HETATM   10  C   UNL     1     -42.485  57.850 -54.533  1.00  0.00     0.050 A 
ENDROOT
BRANCH   9  11
HETATM   11  C   UNL     1     -42.647  56.589 -56.673  1.00  0.00     0.026 A 
HETATM   12  C   UNL     1     -42.445  57.664 -57.556  1.00  0.00     0.083 A 
HETATM   13  C   UNL     1     -42.713  57.550 -58.928  1.00  0.00     0.074 A 
HETATM   14  C   UNL     1     -43.230  56.363 -59.440  1.00  0.00     0.070 A 
HETATM   15  C   UNL     1     -43.459  55.292 -58.574  1.00  0.00     0.038 A 
HETATM   16  C   UNL     1     -43.170  55.401 -57.210  1.00  0.00     0.019 A 
BRANCH  12  17
HETATM   17  O   UNL     1     -41.879  58.830 -57.098  1.00  0.00    -0.355 OA
HETATM   18  C   UNL     1     -41.817  59.795 -58.150  1.00  0.00     0.210 C 
ENDBRANCH  12  17
BRANCH  14  19
HETATM   19  O   UNL     1     -43.541  56.117 -60.748  1.00  0.00    -0.356 OA
HETATM   20  C   UNL     1     -44.722  55.366 -60.998  1.00  0.00     0.210 C 
ENDBRANCH  14  19
ENDBRANCH   9  11
BRANCH   1  21
HETATM   21  C   UNL     1     -42.299  59.141 -52.446  1.00  0.00     0.253 C 
HETATM   22  N   UNL     1     -43.539  59.309 -51.863  1.00  0.00    -0.349 N 
HETATM   23  H   UNL     1     -44.263  58.651 -52.119  1.00  0.00     0.163 HD
HETATM   24  O   UNL     1     -41.382  59.950 -52.394  1.00  0.00    -0.268 OA
BRANCH  22  25
HETATM   25  C   UNL     1     -43.963  60.512 -51.128  1.00  0.00     0.022 C 
HETATM   26  C   UNL     1     -44.194  61.685 -52.094  1.00  0.00     0.037 C 
HETATM   27  C   UNL     1     -42.932  60.902 -50.057  1.00  0.00     0.037 C 
HETATM   28  C   UNL     1     -45.292  60.190 -50.420  1.00  0.00     0.037 C 
ENDBRANCH  22  25
ENDBRANCH   1  21
TORSDOF 5
ENDMDL
MODEL 7
REMARK VINA RESULT:      -7.0     14.733     18.166
REMARK  5 active torsions:
REMARK  status: ('A' for Active; 'I' for Inactive)
REMARK    1  A    between atoms: C_2  and  N_3 
REMARK       I    between atoms: N_3  and  C_4 
REMARK    2  A    between atoms: C_4  and  C_5 
REMARK    3  A    between atoms: C_13  and  C_14 
REMARK    4  A    between atoms: C_15  and  O_16 
REMARK    5  A    between atoms: C_19  and  O_20 
ROOT
HETATM    1  C   UNL     1     -34.252  40.589 -53.841  1.00  0.00     0.046 A 
HETATM    2  C   UNL     1     -33.201  40.250 -54.721  1.00  0.00     0.008 A 
HETATM    3  C   UNL     1     -32.103  39.582 -54.145  1.00  0.00     0.068 A 
HETATM    4  C   UNL     1     -31.039  39.216 -54.958  1.00  0.00     0.032 A 
HETATM    5  C   UNL     1     -31.024  39.487 -56.327  1.00  0.00     0.002 A 
HETATM    6  C   UNL     1     -32.101  40.140 -56.908  1.00  0.00     0.001 A 
HETATM    7  C   UNL     1     -33.183  40.517 -56.114  1.00  0.00     0.015 A 
HETATM    8  N   UNL     1     -32.036  39.270 -52.840  1.00  0.00    -0.247 NA
HETATM    9  C   UNL     1     -33.044  39.638 -52.015  1.00  0.00     0.071 A 
HETATM   10  C   UNL     1     -34.170  40.293 -52.479  1.00  0.00     0.050 A 
ENDROOT
BRANCH   9  11
HETATM   11  C   UNL     1     -32.896  39.266 -50.603  1.00  0.00     0.026 A 
HETATM   12  C   UNL     1     -33.563  38.165 -50.041  1.00  0.00     0.083 A 
HETATM   13  C   UNL     1     -33.375  37.796 -48.701  1.00  0.00     0.074 A 
HETATM   14  C   UNL     1     -32.539  38.550 -47.882  1.00  0.00     0.070 A 
HETATM   15  C   UNL     1     -31.885  39.661 -48.417  1.00  0.00     0.038 A 
HETATM   16  C   UNL     1     -32.058  40.014 -49.760  1.00  0.00     0.019 A 
BRANCH  12  17
HETATM   17  O   UNL     1     -34.348  37.360 -50.833  1.00  0.00    -0.355 OA
HETATM   18  C   UNL     1     -35.693  37.355 -50.352  1.00  0.00     0.210 C 
ENDBRANCH  12  17
BRANCH  14  19
HETATM   19  O   UNL     1     -32.269  38.309 -46.564  1.00  0.00    -0.356 OA
HETATM   20  C   UNL     1     -31.000  38.730 -46.079  1.00  0.00     0.210 C 
ENDBRANCH  14  19
ENDBRANCH   9  11
BRANCH   1  21
HETATM   21  C   UNL     1     -35.478  41.281 -54.315  1.00  0.00     0.253 C 
HETATM   22  N   UNL     1     -36.268  40.530 -55.162  1.00  0.00    -0.349 N 
HETATM   23  H   UNL     1     -35.877  39.666 -55.514  1.00  0.00     0.163 HD
HETATM   24  O   UNL     1     -35.720  42.426 -53.959  1.00  0.00    -0.268 OA
BRANCH  22  25
HETATM   25  C   UNL     1     -37.501  41.012 -55.805  1.00  0.00     0.022 C 
HETATM   26  C   UNL     1     -37.249  42.341 -56.534  1.00  0.00     0.037 C 
HETATM   27  C   UNL     1     -38.635  41.175 -54.781  1.00  0.00     0.037 C 
HETATM   28  C   UNL     1     -37.938  39.959 -56.840  1.00  0.00     0.037 C 
ENDBRANCH  22  25
ENDBRANCH   1  21
TORSDOF 5
ENDMDL
MODEL 8
REMARK VINA RESULT:      -7.0     14.708     16.359
REMARK  5 active torsions:
REMARK  status: ('A' for Active; 'I' for Inactive)
REMARK    1  A    between atoms: C_2  and  N_3 
REMARK       I    between atoms: N_3  and  C_4 
REMARK    2  A    between atoms: C_4  and  C_5 
REMARK    3  A    between atoms: C_13  and  C_14 
REMARK    4  A    between atoms: C_15  and  O_16 
REMARK    5  A    between atoms: C_19  and  O_20 
ROOT
HETATM    1  C   UNL     1     -36.688  40.919 -55.177  1.00  0.00     0.046 A 
HETATM    2  C   UNL     1     -37.932  41.058 -54.522  1.00  0.00     0.008 A 
HETATM    3  C   UNL     1     -37.905  40.967 -53.116  1.00  0.00     0.068 A 
HETATM    4  C   UNL     1     -39.094  41.101 -52.412  1.00  0.00     0.032 A 
HETATM    5  C   UNL     1     -40.314  41.324 -53.053  1.00  0.00     0.002 A 
HETATM    6  C   UNL     1     -40.354  41.421 -54.436  1.00  0.00     0.001 A 
HETATM    7  C   UNL     1     -39.174  41.292 -55.166  1.00  0.00     0.015 A 
HETATM    8  N   UNL     1     -36.776  40.765 -52.416  1.00  0.00    -0.247 NA
HETATM    9  C   UNL     1     -35.605  40.603 -53.074  1.00  0.00     0.071 A 
HETATM   10  C   UNL     1     -35.520  40.679 -54.452  1.00  0.00     0.050 A 
ENDROOT
BRANCH   9  11
HETATM   11  C   UNL     1     -34.418  40.382 -52.240  1.00  0.00     0.026 A 
HETATM   12  C   UNL     1     -33.122  40.300 -52.779  1.00  0.00     0.083 A 
HETATM   13  C   UNL     1     -31.994  40.134 -51.963  1.00  0.00     0.074 A 
HETATM   14  C   UNL     1     -32.145  40.008 -50.584  1.00  0.00     0.070 A 
HETATM   15  C   UNL     1     -33.426  40.064 -50.032  1.00  0.00     0.038 A 
HETATM   16  C   UNL     1     -34.547  40.251 -50.847  1.00  0.00     0.019 A 
BRANCH  12  17
HETATM   17  O   UNL     1     -32.928  40.482 -54.128  1.00  0.00    -0.355 OA
HETATM   18  C   UNL     1     -31.906  39.605 -54.602  1.00  0.00     0.210 C 
ENDBRANCH  12  17
BRANCH  14  19
HETATM   19  O   UNL     1     -31.138  39.838 -49.675  1.00  0.00    -0.356 OA
HETATM   20  C   UNL     1     -31.522  39.642 -48.320  1.00  0.00     0.210 C 
ENDBRANCH  14  19
ENDBRANCH   9  11
BRANCH   1  21
HETATM   21  C   UNL     1     -36.568  41.010 -56.655  1.00  0.00     0.253 C 
HETATM   22  N   UNL     1     -37.323  40.086 -57.348  1.00  0.00    -0.349 N 
HETATM   23  H   UNL     1     -37.749  39.340 -56.813  1.00  0.00     0.163 HD
HETATM   24  O   UNL     1     -35.839  41.849 -57.166  1.00  0.00    -0.268 OA
BRANCH  22  25
HETATM   25  C   UNL     1     -37.331  39.940 -58.813  1.00  0.00     0.022 C 
HETATM   26  C   UNL     1     -38.559  39.138 -59.272  1.00  0.00     0.037 C 
HETATM   27  C   UNL     1     -36.042  39.267 -59.311  1.00  0.00     0.037 C 
HETATM   28  C   UNL     1     -37.405  41.349 -59.429  1.00  0.00     0.037 C 
ENDBRANCH  22  25
ENDBRANCH   1  21
TORSDOF 5
ENDMDL
MODEL 9
REMARK VINA RESULT:      -6.8     15.365     18.574
REMARK  5 active torsions:
REMARK  status: ('A' for Active; 'I' for Inactive)
REMARK    1  A    between atoms: C_2  and  N_3 
REMARK       I    between atoms: N_3  and  C_4 
REMARK    2  A    between atoms: C_4  and  C_5 
REMARK    3  A    between atoms: C_13  and  C_14 
REMARK    4  A    between atoms: C_15  and  O_16 
REMARK    5  A    between atoms: C_19  and  O_20 
ROOT
HETATM    1  C   UNL     1     -34.828  40.166 -55.034  1.00  0.00     0.046 A 
HETATM    2  C   UNL     1     -33.539  39.753 -55.440  1.00  0.00     0.008 A 
HETATM    3  C   UNL     1     -33.455  39.137 -56.704  1.00  0.00     0.068 A 
HETATM    4  C   UNL     1     -32.216  38.713 -57.163  1.00  0.00     0.032 A 
HETATM    5  C   UNL     1     -31.051  38.878 -56.412  1.00  0.00     0.002 A 
HETATM    6  C   UNL     1     -31.118  39.488 -55.168  1.00  0.00     0.001 A 
HETATM    7  C   UNL     1     -32.350  39.924 -54.685  1.00  0.00     0.015 A 
HETATM    8  N   UNL     1     -34.522  38.946 -57.499  1.00  0.00    -0.247 NA
HETATM    9  C   UNL     1     -35.749  39.324 -57.068  1.00  0.00     0.071 A 
HETATM   10  C   UNL     1     -35.940  39.941 -55.846  1.00  0.00     0.050 A 
ENDROOT
BRANCH   9  11
HETATM   11  C   UNL     1     -36.863  39.078 -57.991  1.00  0.00     0.026 A 
HETATM   12  C   UNL     1     -37.244  40.006 -58.976  1.00  0.00     0.083 A 
HETATM   13  C   UNL     1     -38.282  39.736 -59.879  1.00  0.00     0.074 A 
HETATM   14  C   UNL     1     -38.990  38.540 -59.790  1.00  0.00     0.070 A 
HETATM   15  C   UNL     1     -38.640  37.616 -58.804  1.00  0.00     0.038 A 
HETATM   16  C   UNL     1     -37.590  37.878 -57.918  1.00  0.00     0.019 A 
BRANCH  12  17
HETATM   17  O   UNL     1     -36.530  41.170 -59.134  1.00  0.00    -0.355 OA
HETATM   18  C   UNL     1     -37.349  42.174 -59.735  1.00  0.00     0.210 C 
ENDBRANCH  12  17
BRANCH  14  19
HETATM   19  O   UNL     1     -40.022  38.151 -60.598  1.00  0.00    -0.356 OA
HETATM   20  C   UNL     1     -39.711  37.903 -61.963  1.00  0.00     0.210 C 
ENDBRANCH  14  19
ENDBRANCH   9  11
BRANCH   1  21
HETATM   21  C   UNL     1     -35.059  40.843 -53.733  1.00  0.00     0.253 C 
HETATM   22  N   UNL     1     -34.783  40.066 -52.626  1.00  0.00    -0.349 N 
HETATM   23  H   UNL     1     -34.616  39.080 -52.783  1.00  0.00     0.163 HD
HETATM   24  O   UNL     1     -35.467  41.996 -53.699  1.00  0.00    -0.268 OA
BRANCH  22  25
HETATM   25  C   UNL     1     -34.984  40.492 -51.232  1.00  0.00     0.022 C 
HETATM   26  C   UNL     1     -36.477  40.477 -50.869  1.00  0.00     0.037 C 
HETATM   27  C   UNL     1     -34.393  41.889 -50.986  1.00  0.00     0.037 C 
HETATM   28  C   UNL     1     -34.247  39.493 -50.320  1.00  0.00     0.037 C 
ENDBRANCH  22  25
ENDBRANCH   1  21
TORSDOF 5
ENDMDL
MODEL 10
REMARK VINA RESULT:      -6.8      3.099      8.156
REMARK  5 active torsions:
REMARK  status: ('A' for Active; 'I' for Inactive)
REMARK    1  A    between atoms: C_2  and  N_3 
REMARK       I    between atoms: N_3  and  C_4 
REMARK    2  A    between atoms: C_4  and  C_5 
REMARK    3  A    between atoms: C_13  and  C_14 
REMARK    4  A    between atoms: C_15  and  O_16 
REMARK    5  A    between atoms: C_19  and  O_20 
ROOT
HETATM    1  C   UNL     1     -42.364  57.809 -54.738  1.00  0.00     0.046 A 
HETATM    2  C   UNL     1     -41.884  56.487 -54.598  1.00  0.00     0.008 A 
HETATM    3  C   UNL     1     -42.286  55.574 -55.593  1.00  0.00     0.068 A 
HETATM    4  C   UNL     1     -41.843  54.261 -55.516  1.00  0.00     0.032 A 
HETATM    5  C   UNL     1     -41.011  53.818 -54.486  1.00  0.00     0.002 A 
HETATM    6  C   UNL     1     -40.603  54.708 -53.504  1.00  0.00     0.001 A 
HETATM    7  C   UNL     1     -41.033  56.033 -53.559  1.00  0.00     0.015 A 
HETATM    8  N   UNL     1     -43.076  55.914 -56.625  1.00  0.00    -0.247 NA
HETATM    9  C   UNL     1     -43.547  57.180 -56.713  1.00  0.00     0.071 A 
HETATM   10  C   UNL     1     -43.209  58.155 -55.793  1.00  0.00     0.050 A 
ENDROOT
BRANCH   9  11
HETATM   11  C   UNL     1     -44.407  57.473 -57.866  1.00  0.00     0.026 A 
HETATM   12  C   UNL     1     -43.927  57.454 -59.187  1.00  0.00     0.083 A 
HETATM   13  C   UNL     1     -44.773  57.691 -60.281  1.00  0.00     0.074 A 
HETATM   14  C   UNL     1     -46.116  57.992 -60.070  1.00  0.00     0.070 A 
HETATM   15  C   UNL     1     -46.605  58.038 -58.763  1.00  0.00     0.038 A 
HETATM   16  C   UNL     1     -45.765  57.780 -57.676  1.00  0.00     0.019 A 
BRANCH  12  17
HETATM   17  O   UNL     1     -42.622  57.100 -59.438  1.00  0.00    -0.355 OA
HETATM   18  C   UNL     1     -42.011  58.055 -60.307  1.00  0.00     0.210 C 
ENDBRANCH  12  17
BRANCH  14  19
HETATM   19  O   UNL     1     -47.046  58.249 -61.038  1.00  0.00    -0.356 OA
HETATM   20  C   UNL     1     -47.801  57.141 -61.514  1.00  0.00     0.210 C 
ENDBRANCH  14  19
ENDBRANCH   9  11
BRANCH   1  21
HETATM   21  C   UNL     1     -42.006  58.878 -53.771  1.00  0.00     0.253 C 
HETATM   22  N   UNL     1     -42.922  59.060 -52.754  1.00  0.00    -0.349 N 
HETATM   23  H   UNL     1     -43.812  58.587 -52.843  1.00  0.00     0.163 HD
HETATM   24  O   UNL     1     -40.974  59.520 -53.913  1.00  0.00    -0.268 OA
BRANCH  22  25
HETATM   25  C   UNL     1     -42.818  60.091 -51.709  1.00  0.00     0.022 C 
HETATM   26  C   UNL     1     -41.503  59.942 -50.928  1.00  0.00     0.037 C 
HETATM   27  C   UNL     1     -44.016  60.030 -50.747  1.00  0.00     0.037 C 
HETATM   28  C   UNL     1     -42.828  61.467 -52.398  1.00  0.00     0.037 C 
ENDBRANCH  22  25
ENDBRANCH   1  21
TORSDOF 5
ENDMDL
