MODEL 1
REMARK VINA RESULT:      -7.6      0.000      0.000
REMARK  3 active torsions:
REMARK  status: ('A' for Active; 'I' for Inactive)
REMARK    1  A    between atoms: C_3  and  N_4 
REMARK       I    between atoms: N_4  and  C_5 
REMARK       I    between atoms: C_5  and  N_6 
REMARK    2  A    between atoms: N_6  and  C_7 
REMARK    3  A    between atoms: C_7  and  C_8 
ROOT
HETATM    1  C   UNL     1     -40.973  53.994 -52.105  1.00  0.00    -0.036 A 
HETATM    2  C   UNL     1     -40.190  53.048 -51.430  1.00  0.00     0.011 A 
HETATM    3  C   UNL     1     -39.777  51.871 -52.066  1.00  0.00     0.023 A 
HETATM    4  C   UNL     1     -40.145  51.617 -53.389  1.00  0.00     0.044 A 
HETATM    5  C   UNL     1     -39.723  50.412 -54.040  1.00  0.00     0.099 C 
HETATM    6  N   UNL     1     -39.384  49.437 -54.571  1.00  0.00    -0.191 NA
HETATM    7  C   UNL     1     -40.930  52.545 -54.073  1.00  0.00     0.023 A 
HETATM    8  C   UNL     1     -41.340  53.721 -53.436  1.00  0.00     0.011 A 
ENDROOT
BRANCH   1   9
HETATM    9  C   UNL     1     -41.465  55.281 -51.462  1.00  0.00     0.115 C 
HETATM   10  C   UNL     1     -40.657  55.643 -50.214  1.00  0.00     0.037 C 
BRANCH   9  11
HETATM   11  N   UNL     1     -41.703  56.379 -52.397  1.00  0.00    -0.335 N 
HETATM   12  C   UNL     1     -42.421  57.531 -52.376  1.00  0.00     0.321 C 
HETATM   13  N   UNL     1     -43.240  57.728 -51.307  1.00  0.00    -0.307 N 
HETATM   14  O   UNL     1     -42.285  58.288 -53.330  1.00  0.00    -0.247 OA
HETATM   15  H   UNL     1     -43.609  56.874 -50.928  1.00  0.00     0.170 HD
HETATM   16  H   UNL     1     -41.094  56.382 -53.208  1.00  0.00     0.165 HD
BRANCH  13  17
HETATM   17  C   UNL     1     -44.019  58.879 -51.025  1.00  0.00     0.059 A 
HETATM   18  C   UNL     1     -43.545  60.147 -50.661  1.00  0.00    -0.032 A 
HETATM   19  C   UNL     1     -42.103  60.494 -50.421  1.00  0.00     0.050 C 
HETATM   20  C   UNL     1     -44.482  61.180 -50.481  1.00  0.00     0.028 A 
HETATM   21  C   UNL     1     -45.837  60.911 -50.598  1.00  0.00     0.117 A 
HETATM   22  N   UNL     1     -46.326  59.690 -50.875  1.00  0.00    -0.271 NA
HETATM   23  C   UNL     1     -45.411  58.715 -51.078  1.00  0.00     0.146 A 
ENDBRANCH  13  17
ENDBRANCH   9  11
ENDBRANCH   1   9
TORSDOF 3
ENDMDL
MODEL 2
REMARK VINA RESULT:      -7.5      1.669      2.391
REMARK  3 active torsions:
REMARK  status: ('A' for Active; 'I' for Inactive)
REMARK    1  A    between atoms: C_3  and  N_4 
REMARK       I    between atoms: N_4  and  C_5 
REMARK       I    between atoms: C_5  and  N_6 
REMARK    2  A    between atoms: N_6  and  C_7 
REMARK    3  A    between atoms: C_7  and  C_8 
ROOT
HETATM    1  C   UNL     1     -40.666  53.565 -50.963  1.00  0.00    -0.036 A 
HETATM    2  C   UNL     1     -40.806  53.758 -52.344  1.00  0.00     0.011 A 
HETATM    3  C   UNL     1     -40.451  52.750 -53.250  1.00  0.00     0.023 A 
HETATM    4  C   UNL     1     -39.944  51.533 -52.789  1.00  0.00     0.044 A 
HETATM    5  C   UNL     1     -39.580  50.503 -53.716  1.00  0.00     0.099 C 
HETATM    6  N   UNL     1     -39.284  49.665 -54.464  1.00  0.00    -0.191 NA
HETATM    7  C   UNL     1     -39.792  51.328 -51.418  1.00  0.00     0.023 A 
HETATM    8  C   UNL     1     -40.148  52.335 -50.515  1.00  0.00     0.011 A 
ENDROOT
BRANCH   1   9
HETATM    9  C   UNL     1     -41.017  54.627 -49.934  1.00  0.00     0.115 C 
HETATM   10  C   UNL     1     -40.619  54.206 -48.517  1.00  0.00     0.037 C 
BRANCH   9  11
HETATM   11  N   UNL     1     -40.647  55.990 -50.311  1.00  0.00    -0.335 N 
HETATM   12  C   UNL     1     -41.266  57.024 -50.937  1.00  0.00     0.321 C 
HETATM   13  N   UNL     1     -42.489  56.774 -51.480  1.00  0.00    -0.307 N 
HETATM   14  O   UNL     1     -40.664  58.091 -50.975  1.00  0.00    -0.247 OA
HETATM   15  H   UNL     1     -42.592  55.829 -51.804  1.00  0.00     0.170 HD
HETATM   16  H   UNL     1     -39.780  56.321 -49.902  1.00  0.00     0.165 HD
BRANCH  13  17
HETATM   17  C   UNL     1     -43.354  57.706 -52.106  1.00  0.00     0.059 A 
HETATM   18  C   UNL     1     -43.266  58.185 -53.421  1.00  0.00    -0.032 A 
HETATM   19  C   UNL     1     -42.168  57.849 -54.390  1.00  0.00     0.050 C 
HETATM   20  C   UNL     1     -44.263  59.068 -53.875  1.00  0.00     0.028 A 
HETATM   21  C   UNL     1     -45.256  59.491 -53.007  1.00  0.00     0.117 A 
HETATM   22  N   UNL     1     -45.327  59.108 -51.721  1.00  0.00    -0.271 NA
HETATM   23  C   UNL     1     -44.381  58.233 -51.309  1.00  0.00     0.146 A 
ENDBRANCH  13  17
ENDBRANCH   9  11
ENDBRANCH   1   9
TORSDOF 3
ENDMDL
MODEL 3
REMARK VINA RESULT:      -7.4      5.611      6.746
REMARK  3 active torsions:
REMARK  status: ('A' for Active; 'I' for Inactive)
REMARK    1  A    between atoms: C_3  and  N_4 
REMARK       I    between atoms: N_4  and  C_5 
REMARK       I    between atoms: C_5  and  N_6 
REMARK    2  A    between atoms: N_6  and  C_7 
REMARK    3  A    between atoms: C_7  and  C_8 
ROOT
HETATM    1  C   UNL     1     -41.757  55.320 -54.804  1.00  0.00    -0.036 A 
HETATM    2  C   UNL     1     -40.814  54.488 -55.422  1.00  0.00     0.011 A 
HETATM    3  C   UNL     1     -40.209  53.440 -54.717  1.00  0.00     0.023 A 
HETATM    4  C   UNL     1     -40.535  53.208 -53.379  1.00  0.00     0.044 A 
HETATM    5  C   UNL     1     -39.916  52.135 -52.658  1.00  0.00     0.099 C 
HETATM    6  N   UNL     1     -39.417  51.267 -52.070  1.00  0.00    -0.191 NA
HETATM    7  C   UNL     1     -41.467  54.031 -52.747  1.00  0.00     0.023 A 
HETATM    8  C   UNL     1     -42.071  55.077 -53.453  1.00  0.00     0.011 A 
ENDROOT
BRANCH   1   9
HETATM    9  C   UNL     1     -42.433  56.484 -55.511  1.00  0.00     0.115 C 
HETATM   10  C   UNL     1     -42.293  57.790 -54.726  1.00  0.00     0.037 C 
BRANCH   9  11
HETATM   11  N   UNL     1     -42.148  56.577 -56.942  1.00  0.00    -0.335 N 
HETATM   12  C   UNL     1     -42.892  56.711 -58.071  1.00  0.00     0.321 C 
HETATM   13  N   UNL     1     -44.243  56.627 -57.933  1.00  0.00    -0.307 N 
HETATM   14  O   UNL     1     -42.282  56.877 -59.121  1.00  0.00    -0.247 OA
HETATM   15  H   UNL     1     -44.528  56.017 -57.188  1.00  0.00     0.170 HD
HETATM   16  H   UNL     1     -41.170  56.717 -57.170  1.00  0.00     0.165 HD
BRANCH  13  17
HETATM   17  C   UNL     1     -45.219  56.814 -58.944  1.00  0.00     0.059 A 
HETATM   18  C   UNL     1     -45.607  55.887 -59.921  1.00  0.00    -0.032 A 
HETATM   19  C   UNL     1     -44.984  54.534 -60.123  1.00  0.00     0.050 C 
HETATM   20  C   UNL     1     -46.642  56.245 -60.804  1.00  0.00     0.028 A 
HETATM   21  C   UNL     1     -47.201  57.511 -60.734  1.00  0.00     0.117 A 
HETATM   22  N   UNL     1     -46.802  58.448 -59.857  1.00  0.00    -0.271 NA
HETATM   23  C   UNL     1     -45.829  58.076 -58.993  1.00  0.00     0.146 A 
ENDBRANCH  13  17
ENDBRANCH   9  11
ENDBRANCH   1   9
TORSDOF 3
ENDMDL
MODEL 4
REMARK VINA RESULT:      -7.4      2.655      3.650
REMARK  3 active torsions:
REMARK  status: ('A' for Active; 'I' for Inactive)
REMARK    1  A    between atoms: C_3  and  N_4 
REMARK       I    between atoms: N_4  and  C_5 
REMARK       I    between atoms: C_5  and  N_6 
REMARK    2  A    between atoms: N_6  and  C_7 
REMARK    3  A    between atoms: C_7  and  C_8 
ROOT
HETATM    1  C   UNL     1     -41.045  54.181 -52.446  1.00  0.00    -0.036 A 
HETATM    2  C   UNL     1     -41.335  53.798 -53.763  1.00  0.00     0.011 A 
HETATM    3  C   UNL     1     -40.897  52.567 -54.266  1.00  0.00     0.023 A 
HETATM    4  C   UNL     1     -40.156  51.698 -53.461  1.00  0.00     0.044 A 
HETATM    5  C   UNL     1     -39.708  50.439 -53.976  1.00  0.00     0.099 C 
HETATM    6  N   UNL     1     -39.342  49.417 -54.389  1.00  0.00    -0.191 NA
HETATM    7  C   UNL     1     -39.853  52.067 -52.150  1.00  0.00     0.023 A 
HETATM    8  C   UNL     1     -40.293  53.297 -51.650  1.00  0.00     0.011 A 
ENDROOT
BRANCH   1   9
HETATM    9  C   UNL     1     -41.478  55.511 -51.851  1.00  0.00     0.115 C 
HETATM   10  C   UNL     1     -41.142  55.608 -50.361  1.00  0.00     0.037 C 
BRANCH   9  11
HETATM   11  N   UNL     1     -41.126  56.682 -52.651  1.00  0.00    -0.335 N 
HETATM   12  C   UNL     1     -41.717  57.385 -53.652  1.00  0.00     0.321 C 
HETATM   13  N   UNL     1     -42.863  56.870 -54.175  1.00  0.00    -0.307 N 
HETATM   14  O   UNL     1     -41.158  58.415 -54.013  1.00  0.00    -0.247 OA
HETATM   15  H   UNL     1     -42.892  55.866 -54.151  1.00  0.00     0.170 HD
HETATM   16  H   UNL     1     -40.322  57.199 -52.313  1.00  0.00     0.165 HD
BRANCH  13  17
HETATM   17  C   UNL     1     -43.695  57.458 -55.160  1.00  0.00     0.059 A 
HETATM   18  C   UNL     1     -44.669  58.445 -54.959  1.00  0.00    -0.032 A 
HETATM   19  C   UNL     1     -45.068  59.005 -53.623  1.00  0.00     0.050 C 
HETATM   20  C   UNL     1     -45.352  58.944 -56.083  1.00  0.00     0.028 A 
HETATM   21  C   UNL     1     -45.100  58.410 -57.337  1.00  0.00     0.117 A 
HETATM   22  N   UNL     1     -44.224  57.414 -57.553  1.00  0.00    -0.271 NA
HETATM   23  C   UNL     1     -43.552  56.968 -56.467  1.00  0.00     0.146 A 
ENDBRANCH  13  17
ENDBRANCH   9  11
ENDBRANCH   1   9
TORSDOF 3
ENDMDL
MODEL 5
REMARK VINA RESULT:      -7.2      1.982      2.244
REMARK  3 active torsions:
REMARK  status: ('A' for Active; 'I' for Inactive)
REMARK    1  A    between atoms: C_3  and  N_4 
REMARK       I    between atoms: N_4  and  C_5 
REMARK       I    between atoms: C_5  and  N_6 
REMARK    2  A    between atoms: N_6  and  C_7 
REMARK    3  A    between atoms: C_7  and  C_8 
ROOT
HETATM    1  C   UNL     1     -40.998  54.573 -52.587  1.00  0.00    -0.036 A 
HETATM    2  C   UNL     1     -40.367  53.640 -51.753  1.00  0.00     0.011 A 
HETATM    3  C   UNL     1     -39.990  52.382 -52.240  1.00  0.00     0.023 A 
HETATM    4  C   UNL     1     -40.243  52.034 -53.569  1.00  0.00     0.044 A 
HETATM    5  C   UNL     1     -39.857  50.746 -54.066  1.00  0.00     0.099 C 
HETATM    6  N   UNL     1     -39.547  49.704 -54.473  1.00  0.00    -0.191 NA
HETATM    7  C   UNL     1     -40.876  52.949 -54.409  1.00  0.00     0.023 A 
HETATM    8  C   UNL     1     -41.251  54.205 -53.922  1.00  0.00     0.011 A 
ENDROOT
BRANCH   1   9
HETATM    9  C   UNL     1     -41.446  55.946 -52.111  1.00  0.00     0.115 C 
HETATM   10  C   UNL     1     -41.632  55.994 -50.593  1.00  0.00     0.037 C 
BRANCH   9  11
HETATM   11  N   UNL     1     -40.704  57.065 -52.689  1.00  0.00    -0.335 N 
HETATM   12  C   UNL     1     -40.899  58.404 -52.798  1.00  0.00     0.321 C 
HETATM   13  N   UNL     1     -42.110  58.885 -52.403  1.00  0.00    -0.307 N 
HETATM   14  O   UNL     1     -39.976  59.065 -53.259  1.00  0.00    -0.247 OA
HETATM   15  H   UNL     1     -42.860  58.233 -52.546  1.00  0.00     0.170 HD
HETATM   16  H   UNL     1     -39.750  56.846 -52.957  1.00  0.00     0.165 HD
BRANCH  13  17
HETATM   17  C   UNL     1     -42.515  60.242 -52.348  1.00  0.00     0.059 A 
HETATM   18  C   UNL     1     -42.820  61.074 -53.434  1.00  0.00    -0.032 A 
HETATM   19  C   UNL     1     -42.689  60.689 -54.880  1.00  0.00     0.050 C 
HETATM   20  C   UNL     1     -43.262  62.383 -53.166  1.00  0.00     0.028 A 
HETATM   21  C   UNL     1     -43.320  62.836 -51.857  1.00  0.00     0.117 A 
HETATM   22  N   UNL     1     -42.966  62.088 -50.799  1.00  0.00    -0.271 NA
HETATM   23  C   UNL     1     -42.575  60.821 -51.072  1.00  0.00     0.146 A 
ENDBRANCH  13  17
ENDBRANCH   9  11
ENDBRANCH   1   9
TORSDOF 3
ENDMDL
MODEL 6
REMARK VINA RESULT:      -7.2      1.983      2.773
REMARK  3 active torsions:
REMARK  status: ('A' for Active; 'I' for Inactive)
REMARK    1  A    between atoms: C_3  and  N_4 
REMARK       I    between atoms: N_4  and  C_5 
REMARK       I    between atoms: C_5  and  N_6 
REMARK    2  A    between atoms: N_6  and  C_7 
REMARK    3  A    between atoms: C_7  and  C_8 
ROOT
HETATM    1  C   UNL     1     -40.569  53.734 -53.978  1.00  0.00    -0.036 A 
HETATM    2  C   UNL     1     -40.592  53.879 -52.584  1.00  0.00     0.011 A 
HETATM    3  C   UNL     1     -40.243  52.814 -51.745  1.00  0.00     0.023 A 
HETATM    4  C   UNL     1     -39.868  51.582 -52.286  1.00  0.00     0.044 A 
HETATM    5  C   UNL     1     -39.511  50.492 -51.427  1.00  0.00     0.099 C 
HETATM    6  N   UNL     1     -39.221  49.606 -50.735  1.00  0.00    -0.191 NA
HETATM    7  C   UNL     1     -39.847  51.419 -53.671  1.00  0.00     0.023 A 
HETATM    8  C   UNL     1     -40.195  52.484 -54.508  1.00  0.00     0.011 A 
ENDROOT
BRANCH   1   9
HETATM    9  C   UNL     1     -40.954  54.847 -54.938  1.00  0.00     0.115 C 
HETATM   10  C   UNL     1     -42.326  54.608 -55.572  1.00  0.00     0.037 C 
BRANCH   9  11
HETATM   11  N   UNL     1     -40.724  56.199 -54.431  1.00  0.00    -0.335 N 
HETATM   12  C   UNL     1     -41.467  57.125 -53.771  1.00  0.00     0.321 C 
HETATM   13  N   UNL     1     -42.790  56.854 -53.609  1.00  0.00    -0.307 N 
HETATM   14  O   UNL     1     -40.885  58.136 -53.393  1.00  0.00    -0.247 OA
HETATM   15  H   UNL     1     -43.178  56.311 -54.359  1.00  0.00     0.170 HD
HETATM   16  H   UNL     1     -39.753  56.490 -54.431  1.00  0.00     0.165 HD
BRANCH  13  17
HETATM   17  C   UNL     1     -43.740  57.624 -52.891  1.00  0.00     0.059 A 
HETATM   18  C   UNL     1     -44.246  57.355 -51.611  1.00  0.00    -0.032 A 
HETATM   19  C   UNL     1     -43.924  56.136 -50.794  1.00  0.00     0.050 C 
HETATM   20  C   UNL     1     -45.143  58.279 -51.044  1.00  0.00     0.028 A 
HETATM   21  C   UNL     1     -45.554  59.381 -51.777  1.00  0.00     0.117 A 
HETATM   22  N   UNL     1     -45.144  59.628 -53.033  1.00  0.00    -0.271 NA
HETATM   23  C   UNL     1     -44.255  58.748 -53.552  1.00  0.00     0.146 A 
ENDBRANCH  13  17
ENDBRANCH   9  11
ENDBRANCH   1   9
TORSDOF 3
ENDMDL
MODEL 7
REMARK VINA RESULT:      -7.2      4.606      6.427
REMARK  3 active torsions:
REMARK  status: ('A' for Active; 'I' for Inactive)
REMARK    1  A    between atoms: C_3  and  N_4 
REMARK       I    between atoms: N_4  and  C_5 
REMARK       I    between atoms: C_5  and  N_6 
REMARK    2  A    between atoms: N_6  and  C_7 
REMARK    3  A    between atoms: C_7  and  C_8 
ROOT
HETATM    1  C   UNL     1     -41.060  54.976 -52.992  1.00  0.00    -0.036 A 
HETATM    2  C   UNL     1     -40.641  53.699 -52.592  1.00  0.00     0.011 A 
HETATM    3  C   UNL     1     -40.546  53.366 -51.235  1.00  0.00     0.023 A 
HETATM    4  C   UNL     1     -40.862  54.307 -50.253  1.00  0.00     0.044 A 
HETATM    5  C   UNL     1     -40.764  53.966 -48.865  1.00  0.00     0.099 C 
HETATM    6  N   UNL     1     -40.685  53.694 -47.739  1.00  0.00    -0.191 NA
HETATM    7  C   UNL     1     -41.274  55.584 -50.633  1.00  0.00     0.023 A 
HETATM    8  C   UNL     1     -41.370  55.914 -51.989  1.00  0.00     0.011 A 
ENDROOT
BRANCH   1   9
HETATM    9  C   UNL     1     -41.166  55.401 -54.447  1.00  0.00     0.115 C 
HETATM   10  C   UNL     1     -40.711  54.294 -55.401  1.00  0.00     0.037 C 
BRANCH   9  11
HETATM   11  N   UNL     1     -42.422  56.059 -54.801  1.00  0.00    -0.335 N 
HETATM   12  C   UNL     1     -42.878  56.767 -55.867  1.00  0.00     0.321 C 
HETATM   13  N   UNL     1     -41.970  57.087 -56.829  1.00  0.00    -0.307 N 
HETATM   14  O   UNL     1     -44.064  57.074 -55.863  1.00  0.00    -0.247 OA
HETATM   15  H   UNL     1     -41.043  57.222 -56.469  1.00  0.00     0.170 HD
HETATM   16  H   UNL     1     -43.202  55.836 -54.193  1.00  0.00     0.165 HD
BRANCH  13  17
HETATM   17  C   UNL     1     -42.223  57.744 -58.059  1.00  0.00     0.059 A 
HETATM   18  C   UNL     1     -42.760  57.174 -59.223  1.00  0.00    -0.032 A 
HETATM   19  C   UNL     1     -43.091  55.719 -59.398  1.00  0.00     0.050 C 
HETATM   20  C   UNL     1     -42.990  58.014 -60.328  1.00  0.00     0.028 A 
HETATM   21  C   UNL     1     -42.625  59.349 -60.269  1.00  0.00     0.117 A 
HETATM   22  N   UNL     1     -42.042  59.909 -59.195  1.00  0.00    -0.271 NA
HETATM   23  C   UNL     1     -41.858  59.097 -58.128  1.00  0.00     0.146 A 
ENDBRANCH  13  17
ENDBRANCH   9  11
ENDBRANCH   1   9
TORSDOF 3
ENDMDL
MODEL 8
REMARK VINA RESULT:      -7.1      4.038      5.455
REMARK  3 active torsions:
REMARK  status: ('A' for Active; 'I' for Inactive)
REMARK    1  A    between atoms: C_3  and  N_4 
REMARK       I    between atoms: N_4  and  C_5 
REMARK       I    between atoms: C_5  and  N_6 
REMARK    2  A    between atoms: N_6  and  C_7 
REMARK    3  A    between atoms: C_7  and  C_8 
ROOT
HETATM    1  C   UNL     1     -41.138  55.000 -53.540  1.00  0.00    -0.036 A 
HETATM    2  C   UNL     1     -40.550  54.598 -54.746  1.00  0.00     0.011 A 
HETATM    3  C   UNL     1     -40.141  53.272 -54.940  1.00  0.00     0.023 A 
HETATM    4  C   UNL     1     -40.310  52.326 -53.927  1.00  0.00     0.044 A 
HETATM    5  C   UNL     1     -39.891  50.970 -54.125  1.00  0.00     0.099 C 
HETATM    6  N   UNL     1     -39.553  49.870 -54.281  1.00  0.00    -0.191 NA
HETATM    7  C   UNL     1     -40.888  52.711 -52.717  1.00  0.00     0.023 A 
HETATM    8  C   UNL     1     -41.296  54.035 -52.526  1.00  0.00     0.011 A 
ENDROOT
BRANCH   1   9
HETATM    9  C   UNL     1     -41.585  56.426 -53.265  1.00  0.00     0.115 C 
HETATM   10  C   UNL     1     -40.480  57.441 -53.568  1.00  0.00     0.037 C 
BRANCH   9  11
HETATM   11  N   UNL     1     -42.908  56.763 -53.788  1.00  0.00    -0.335 N 
HETATM   12  C   UNL     1     -43.445  56.943 -55.022  1.00  0.00     0.321 C 
HETATM   13  N   UNL     1     -42.584  56.943 -56.076  1.00  0.00    -0.307 N 
HETATM   14  O   UNL     1     -44.658  57.108 -55.081  1.00  0.00    -0.247 OA
HETATM   15  H   UNL     1     -41.674  57.300 -55.844  1.00  0.00     0.170 HD
HETATM   16  H   UNL     1     -43.655  56.724 -53.103  1.00  0.00     0.165 HD
BRANCH  13  17
HETATM   17  C   UNL     1     -42.915  57.031 -57.451  1.00  0.00     0.059 A 
HETATM   18  C   UNL     1     -43.112  58.202 -58.196  1.00  0.00    -0.032 A 
HETATM   19  C   UNL     1     -43.087  59.596 -57.637  1.00  0.00     0.050 C 
HETATM   20  C   UNL     1     -43.378  58.078 -59.573  1.00  0.00     0.028 A 
HETATM   21  C   UNL     1     -43.504  56.819 -60.140  1.00  0.00     0.117 A 
HETATM   22  N   UNL     1     -43.393  55.678 -59.439  1.00  0.00    -0.271 NA
HETATM   23  C   UNL     1     -43.104  55.814 -58.124  1.00  0.00     0.146 A 
ENDBRANCH  13  17
ENDBRANCH   9  11
ENDBRANCH   1   9
TORSDOF 3
ENDMDL
MODEL 9
REMARK VINA RESULT:      -7.1      2.658      3.029
REMARK  3 active torsions:
REMARK  status: ('A' for Active; 'I' for Inactive)
REMARK    1  A    between atoms: C_3  and  N_4 
REMARK       I    between atoms: N_4  and  C_5 
REMARK       I    between atoms: C_5  and  N_6 
REMARK    2  A    between atoms: N_6  and  C_7 
REMARK    3  A    between atoms: C_7  and  C_8 
ROOT
HETATM    1  C   UNL     1     -40.455  52.727 -50.678  1.00  0.00    -0.036 A 
HETATM    2  C   UNL     1     -40.185  51.373 -50.440  1.00  0.00     0.011 A 
HETATM    3  C   UNL     1     -39.905  50.499 -51.498  1.00  0.00     0.023 A 
HETATM    4  C   UNL     1     -39.895  50.965 -52.815  1.00  0.00     0.044 A 
HETATM    5  C   UNL     1     -39.608  50.071 -53.898  1.00  0.00     0.099 C 
HETATM    6  N   UNL     1     -39.377  49.350 -54.778  1.00  0.00    -0.191 NA
HETATM    7  C   UNL     1     -40.168  52.309 -53.070  1.00  0.00     0.023 A 
HETATM    8  C   UNL     1     -40.446  53.180 -52.011  1.00  0.00     0.011 A 
ENDROOT
BRANCH   1   9
HETATM    9  C   UNL     1     -40.782  53.718 -49.573  1.00  0.00     0.115 C 
HETATM   10  C   UNL     1     -39.551  54.513 -49.133  1.00  0.00     0.037 C 
BRANCH   9  11
HETATM   11  N   UNL     1     -41.992  54.508 -49.800  1.00  0.00    -0.335 N 
HETATM   12  C   UNL     1     -42.308  55.607 -50.532  1.00  0.00     0.321 C 
HETATM   13  N   UNL     1     -41.280  56.262 -51.138  1.00  0.00    -0.307 N 
HETATM   14  O   UNL     1     -43.491  55.927 -50.571  1.00  0.00    -0.247 OA
HETATM   15  H   UNL     1     -40.418  56.204 -50.626  1.00  0.00     0.170 HD
HETATM   16  H   UNL     1     -42.845  54.082 -49.454  1.00  0.00     0.165 HD
BRANCH  13  17
HETATM   17  C   UNL     1     -41.371  57.375 -52.011  1.00  0.00     0.059 A 
HETATM   18  C   UNL     1     -41.254  58.729 -51.663  1.00  0.00    -0.032 A 
HETATM   19  C   UNL     1     -41.090  59.250 -50.264  1.00  0.00     0.050 C 
HETATM   20  C   UNL     1     -41.316  59.687 -52.692  1.00  0.00     0.028 A 
HETATM   21  C   UNL     1     -41.555  59.284 -53.996  1.00  0.00     0.117 A 
HETATM   22  N   UNL     1     -41.744  58.001 -54.351  1.00  0.00    -0.271 NA
HETATM   23  C   UNL     1     -41.648  57.089 -53.355  1.00  0.00     0.146 A 
ENDBRANCH  13  17
ENDBRANCH   9  11
ENDBRANCH   1   9
TORSDOF 3
ENDMDL
MODEL 10
REMARK VINA RESULT:      -7.1      2.833      7.431
REMARK  3 active torsions:
REMARK  status: ('A' for Active; 'I' for Inactive)
REMARK    1  A    between atoms: C_3  and  N_4 
REMARK       I    between atoms: N_4  and  C_5 
REMARK       I    between atoms: C_5  and  N_6 
REMARK    2  A    between atoms: N_6  and  C_7 
REMARK    3  A    between atoms: C_7  and  C_8 
ROOT
HETATM    1  C   UNL     1     -42.092  57.743 -52.514  1.00  0.00    -0.036 A 
HETATM    2  C   UNL     1     -40.956  58.195 -53.199  1.00  0.00     0.011 A 
HETATM    3  C   UNL     1     -39.903  58.814 -52.513  1.00  0.00     0.023 A 
HETATM    4  C   UNL     1     -39.970  58.995 -51.130  1.00  0.00     0.044 A 
HETATM    5  C   UNL     1     -38.893  59.628 -50.429  1.00  0.00     0.099 C 
HETATM    6  N   UNL     1     -38.022  60.141 -49.857  1.00  0.00    -0.191 NA
HETATM    7  C   UNL     1     -41.097  58.556 -50.435  1.00  0.00     0.023 A 
HETATM    8  C   UNL     1     -42.147  57.937 -51.121  1.00  0.00     0.011 A 
ENDROOT
BRANCH   1   9
HETATM    9  C   UNL     1     -43.273  57.081 -53.205  1.00  0.00     0.115 C 
HETATM   10  C   UNL     1     -43.091  57.027 -54.724  1.00  0.00     0.037 C 
BRANCH   9  11
HETATM   11  N   UNL     1     -43.728  55.839 -52.583  1.00  0.00    -0.335 N 
HETATM   12  C   UNL     1     -43.149  54.658 -52.240  1.00  0.00     0.321 C 
HETATM   13  N   UNL     1     -41.867  54.458 -52.648  1.00  0.00    -0.307 N 
HETATM   14  O   UNL     1     -43.838  53.866 -51.609  1.00  0.00    -0.247 OA
HETATM   15  H   UNL     1     -41.652  54.914 -53.517  1.00  0.00     0.170 HD
HETATM   16  H   UNL     1     -44.653  55.887 -52.171  1.00  0.00     0.165 HD
BRANCH  13  17
HETATM   17  C   UNL     1     -41.035  53.351 -52.346  1.00  0.00     0.059 A 
HETATM   18  C   UNL     1     -40.334  52.551 -53.259  1.00  0.00    -0.032 A 
HETATM   19  C   UNL     1     -40.407  52.680 -54.754  1.00  0.00     0.050 C 
HETATM   20  C   UNL     1     -39.511  51.528 -52.752  1.00  0.00     0.028 A 
HETATM   21  C   UNL     1     -39.465  51.294 -51.387  1.00  0.00     0.117 A 
HETATM   22  N   UNL     1     -40.180  51.995 -50.491  1.00  0.00    -0.271 NA
HETATM   23  C   UNL     1     -40.941  52.996 -50.992  1.00  0.00     0.146 A 
ENDBRANCH  13  17
ENDBRANCH   9  11
ENDBRANCH   1   9
TORSDOF 3
ENDMDL
