MODEL 1
REMARK VINA RESULT:      -8.5      0.000      0.000
REMARK  5 active torsions:
REMARK  status: ('A' for Active; 'I' for Inactive)
REMARK    1  A    between atoms: C_4  and  C_5 
REMARK    2  A    between atoms: C_5  and  N_6 
REMARK    3  A    between atoms: C_9  and  N_10 
REMARK       I    between atoms: N_10  and  C_11 
REMARK       I    between atoms: C_11  and  N_12 
REMARK    4  A    between atoms: N_12  and  N_13 
REMARK       I    between atoms: N_13  and  C_14 
REMARK    5  A    between atoms: C_14  and  C_15 
ROOT
HETATM    1  N   UNL     1     -42.379  55.568 -53.115  1.00  0.00    -0.336 N 
HETATM    2  C   UNL     1     -43.269  55.520 -54.151  1.00  0.00     0.335 C 
HETATM    3  N   UNL     1     -42.681  55.755 -55.369  1.00  0.00    -0.249 N 
HETATM    4  O   UNL     1     -44.475  55.352 -53.987  1.00  0.00    -0.246 OA
HETATM    5  H   UNL     1     -41.406  55.696 -53.372  1.00  0.00     0.164 HD
HETATM    6  H   UNL     1     -41.715  55.456 -55.513  1.00  0.00     0.192 HD
ENDROOT
BRANCH   1   7
HETATM    7  C   UNL     1     -42.652  55.306 -51.695  1.00  0.00     0.112 C 
HETATM    8  C   UNL     1     -42.167  53.933 -51.166  1.00  0.00     0.260 C 
HETATM    9  N   UNL     1     -40.680  53.942 -50.908  1.00  0.00    -0.065 N 
HETATM   10  H   UNL     1     -40.262  54.206 -51.826  1.00  0.00     0.280 HD
HETATM   11  C   UNL     1     -40.260  55.010 -49.945  1.00  0.00     0.235 C 
HETATM   12  C   UNL     1     -40.662  56.374 -50.491  1.00  0.00     0.030 C 
HETATM   13  C   UNL     1     -42.154  56.452 -50.803  1.00  0.00     0.028 C 
BRANCH   9  14
HETATM   14  C   UNL     1     -40.091  52.583 -50.635  1.00  0.00     0.273 C 
BRANCH  14  15
HETATM   15  C   UNL     1     -39.947  51.688 -51.836  1.00  0.00    -0.033 A 
HETATM   16  C   UNL     1     -40.132  52.199 -53.132  1.00  0.00     0.009 A 
HETATM   17  C   UNL     1     -40.019  51.365 -54.246  1.00  0.00     0.001 A 
HETATM   18  C   UNL     1     -39.716  50.016 -54.080  1.00  0.00     0.000 A 
HETATM   19  C   UNL     1     -39.521  49.499 -52.802  1.00  0.00     0.001 A 
HETATM   20  C   UNL     1     -39.632  50.329 -51.685  1.00  0.00     0.009 A 
ENDBRANCH  14  15
ENDBRANCH   9  14
ENDBRANCH   1   7
BRANCH   3  21
HETATM   21  N   UNL     1     -43.477  55.594 -56.517  1.00  0.00    -0.261 N 
HETATM   22  C   UNL     1     -43.301  56.476 -57.572  1.00  0.00     0.277 C 
HETATM   23  O   UNL     1     -42.482  57.393 -57.474  1.00  0.00    -0.265 OA
HETATM   24  H   UNL     1     -44.079  54.779 -56.587  1.00  0.00     0.190 HD
BRANCH  22  25
HETATM   25  C   UNL     1     -44.119  56.247 -58.751  1.00  0.00     0.075 A 
HETATM   26  S   UNL     1     -45.605  57.068 -59.011  1.00  0.00    -0.077 SA
HETATM   27  C   UNL     1     -45.851  56.280 -60.489  1.00  0.00     0.052 A 
HETATM   28 BR   UNL     1     -47.347  56.588 -61.573  1.00  0.00    -0.043 Br
HETATM   29  C   UNL     1     -44.851  55.401 -60.808  1.00  0.00     0.028 A 
HETATM   30  C   UNL     1     -43.845  55.379 -59.796  1.00  0.00     0.026 A 
ENDBRANCH  22  25
ENDBRANCH   3  21
TORSDOF 5
ENDMDL
MODEL 2
REMARK VINA RESULT:      -8.3      1.300      1.597
REMARK  5 active torsions:
REMARK  status: ('A' for Active; 'I' for Inactive)
REMARK    1  A    between atoms: C_4  and  C_5 
REMARK    2  A    between atoms: C_5  and  N_6 
REMARK    3  A    between atoms: C_9  and  N_10 
REMARK       I    between atoms: N_10  and  C_11 
REMARK       I    between atoms: C_11  and  N_12 
REMARK    4  A    between atoms: N_12  and  N_13 
REMARK       I    between atoms: N_13  and  C_14 
REMARK    5  A    between atoms: C_14  and  C_15 
ROOT
HETATM    1  N   UNL     1     -43.008  57.370 -53.489  1.00  0.00    -0.336 N 
HETATM    2  C   UNL     1     -43.941  57.211 -54.475  1.00  0.00     0.335 C 
HETATM    3  N   UNL     1     -43.392  57.202 -55.732  1.00  0.00    -0.249 N 
HETATM    4  O   UNL     1     -45.148  57.153 -54.247  1.00  0.00    -0.246 OA
HETATM    5  H   UNL     1     -42.040  57.389 -53.794  1.00  0.00     0.164 HD
HETATM    6  H   UNL     1     -42.453  56.820 -55.855  1.00  0.00     0.192 HD
ENDROOT
BRANCH   1   7
HETATM    7  C   UNL     1     -43.236  57.365 -52.038  1.00  0.00     0.112 C 
HETATM    8  C   UNL     1     -43.116  55.982 -51.350  1.00  0.00     0.260 C 
HETATM    9  N   UNL     1     -41.671  55.595 -51.153  1.00  0.00    -0.065 N 
HETATM   10  H   UNL     1     -41.266  55.618 -52.113  1.00  0.00     0.280 HD
HETATM   11  C   UNL     1     -40.898  56.601 -50.357  1.00  0.00     0.235 C 
HETATM   12  C   UNL     1     -40.943  57.950 -51.065  1.00  0.00     0.030 C 
HETATM   13  C   UNL     1     -42.373  58.416 -51.326  1.00  0.00     0.028 C 
BRANCH   9  14
HETATM   14  C   UNL     1     -41.466  54.165 -50.724  1.00  0.00     0.273 C 
BRANCH  14  15
HETATM   15  C   UNL     1     -40.816  53.272 -51.746  1.00  0.00    -0.033 A 
HETATM   16  C   UNL     1     -41.021  53.489 -53.118  1.00  0.00     0.009 A 
HETATM   17  C   UNL     1     -40.435  52.649 -54.066  1.00  0.00     0.001 A 
HETATM   18  C   UNL     1     -39.634  51.587 -53.655  1.00  0.00     0.000 A 
HETATM   19  C   UNL     1     -39.413  51.365 -52.298  1.00  0.00     0.001 A 
HETATM   20  C   UNL     1     -39.997  52.204 -51.347  1.00  0.00     0.009 A 
ENDBRANCH  14  15
ENDBRANCH   9  14
ENDBRANCH   1   7
BRANCH   3  21
HETATM   21  N   UNL     1     -44.243  56.908 -56.812  1.00  0.00    -0.261 N 
HETATM   22  C   UNL     1     -43.708  56.885 -58.090  1.00  0.00     0.277 C 
HETATM   23  O   UNL     1     -42.515  57.151 -58.258  1.00  0.00    -0.265 OA
HETATM   24  H   UNL     1     -45.197  56.616 -56.620  1.00  0.00     0.190 HD
BRANCH  22  25
HETATM   25  C   UNL     1     -44.618  56.539 -59.169  1.00  0.00     0.075 A 
HETATM   26  S   UNL     1     -46.076  57.400 -59.451  1.00  0.00    -0.077 SA
HETATM   27  C   UNL     1     -46.465  56.426 -60.780  1.00  0.00     0.052 A 
HETATM   28 BR   UNL     1     -48.018  56.663 -61.800  1.00  0.00    -0.043 Br
HETATM   29  C   UNL     1     -45.534  55.452 -61.030  1.00  0.00     0.028 A 
HETATM   30  C   UNL     1     -44.461  55.516 -60.091  1.00  0.00     0.026 A 
ENDBRANCH  22  25
ENDBRANCH   3  21
TORSDOF 5
ENDMDL
MODEL 3
REMARK VINA RESULT:      -7.6      1.946      1.970
REMARK  5 active torsions:
REMARK  status: ('A' for Active; 'I' for Inactive)
REMARK    1  A    between atoms: C_4  and  C_5 
REMARK    2  A    between atoms: C_5  and  N_6 
REMARK    3  A    between atoms: C_9  and  N_10 
REMARK       I    between atoms: N_10  and  C_11 
REMARK       I    between atoms: C_11  and  N_12 
REMARK    4  A    between atoms: N_12  and  N_13 
REMARK       I    between atoms: N_13  and  C_14 
REMARK    5  A    between atoms: C_14  and  C_15 
ROOT
HETATM    1  N   UNL     1     -42.064  55.533 -54.008  1.00  0.00    -0.336 N 
HETATM    2  C   UNL     1     -42.695  56.183 -55.032  1.00  0.00     0.335 C 
HETATM    3  N   UNL     1     -41.883  56.374 -56.122  1.00  0.00    -0.249 N 
HETATM    4  O   UNL     1     -43.845  56.607 -54.944  1.00  0.00    -0.246 OA
HETATM    5  H   UNL     1     -41.120  55.215 -54.201  1.00  0.00     0.164 HD
HETATM    6  H   UNL     1     -41.166  55.676 -56.328  1.00  0.00     0.192 HD
ENDROOT
BRANCH   1   7
HETATM    7  C   UNL     1     -42.648  55.115 -52.726  1.00  0.00     0.112 C 
HETATM    8  C   UNL     1     -42.030  53.841 -52.097  1.00  0.00     0.260 C 
HETATM    9  N   UNL     1     -40.711  54.146 -51.431  1.00  0.00    -0.065 N 
HETATM   10  H   UNL     1     -40.129  54.559 -52.191  1.00  0.00     0.280 HD
HETATM   11  C   UNL     1     -40.819  55.204 -50.376  1.00  0.00     0.235 C 
HETATM   12  C   UNL     1     -41.353  56.489 -50.998  1.00  0.00     0.030 C 
HETATM   13  C   UNL     1     -42.682  56.271 -51.717  1.00  0.00     0.028 C 
BRANCH   9  14
HETATM   14  C   UNL     1     -39.929  52.926 -51.018  1.00  0.00     0.273 C 
BRANCH  14  15
HETATM   15  C   UNL     1     -39.839  51.836 -52.051  1.00  0.00    -0.033 A 
HETATM   16  C   UNL     1     -39.966  52.136 -53.418  1.00  0.00     0.009 A 
HETATM   17  C   UNL     1     -39.904  51.124 -54.376  1.00  0.00     0.001 A 
HETATM   18  C   UNL     1     -39.709  49.802 -53.982  1.00  0.00     0.000 A 
HETATM   19  C   UNL     1     -39.571  49.492 -52.632  1.00  0.00     0.001 A 
HETATM   20  C   UNL     1     -39.632  50.502 -51.670  1.00  0.00     0.009 A 
ENDBRANCH  14  15
ENDBRANCH   9  14
ENDBRANCH   1   7
BRANCH   3  21
HETATM   21  N   UNL     1     -42.469  56.909 -57.283  1.00  0.00    -0.261 N 
HETATM   22  C   UNL     1     -42.446  58.283 -57.462  1.00  0.00     0.277 C 
HETATM   23  O   UNL     1     -41.946  59.005 -56.595  1.00  0.00    -0.265 OA
HETATM   24  H   UNL     1     -42.795  56.274 -58.006  1.00  0.00     0.190 HD
BRANCH  22  25
HETATM   25  C   UNL     1     -43.030  58.787 -58.694  1.00  0.00     0.075 A 
HETATM   26  S   UNL     1     -44.669  59.286 -58.796  1.00  0.00    -0.077 SA
HETATM   27  C   UNL     1     -44.505  59.699 -60.429  1.00  0.00     0.052 A 
HETATM   28 BR   UNL     1     -45.910  60.399 -61.452  1.00  0.00    -0.043 Br
HETATM   29  C   UNL     1     -43.248  59.471 -60.922  1.00  0.00     0.028 A 
HETATM   30  C   UNL     1     -42.390  58.937 -59.914  1.00  0.00     0.026 A 
ENDBRANCH  22  25
ENDBRANCH   3  21
TORSDOF 5
ENDMDL
MODEL 4
REMARK VINA RESULT:      -7.6      2.601      3.026
REMARK  5 active torsions:
REMARK  status: ('A' for Active; 'I' for Inactive)
REMARK    1  A    between atoms: C_4  and  C_5 
REMARK    2  A    between atoms: C_5  and  N_6 
REMARK    3  A    between atoms: C_9  and  N_10 
REMARK       I    between atoms: N_10  and  C_11 
REMARK       I    between atoms: C_11  and  N_12 
REMARK    4  A    between atoms: N_12  and  N_13 
REMARK       I    between atoms: N_13  and  C_14 
REMARK    5  A    between atoms: C_14  and  C_15 
ROOT
HETATM    1  N   UNL     1     -44.381  56.910 -53.200  1.00  0.00    -0.336 N 
HETATM    2  C   UNL     1     -45.057  57.741 -54.048  1.00  0.00     0.335 C 
HETATM    3  N   UNL     1     -45.314  57.165 -55.267  1.00  0.00    -0.249 N 
HETATM    4  O   UNL     1     -45.338  58.903 -53.760  1.00  0.00    -0.246 OA
HETATM    5  H   UNL     1     -44.219  55.967 -53.539  1.00  0.00     0.164 HD
HETATM    6  H   UNL     1     -45.473  56.157 -55.310  1.00  0.00     0.192 HD
ENDROOT
BRANCH   1   7
HETATM    7  C   UNL     1     -44.000  57.178 -51.807  1.00  0.00     0.112 C 
HETATM    8  C   UNL     1     -43.485  55.954 -51.009  1.00  0.00     0.260 C 
HETATM    9  N   UNL     1     -42.056  55.630 -51.368  1.00  0.00    -0.065 N 
HETATM   10  H   UNL     1     -42.080  55.475 -52.399  1.00  0.00     0.280 HD
HETATM   11  C   UNL     1     -41.122  56.780 -51.148  1.00  0.00     0.235 C 
HETATM   12  C   UNL     1     -41.572  57.968 -51.989  1.00  0.00     0.030 C 
HETATM   13  C   UNL     1     -43.021  58.357 -51.706  1.00  0.00     0.028 C 
BRANCH   9  14
HETATM   14  C   UNL     1     -41.566  54.311 -50.830  1.00  0.00     0.273 C 
BRANCH  14  15
HETATM   15  C   UNL     1     -40.926  53.399 -51.841  1.00  0.00    -0.033 A 
HETATM   16  C   UNL     1     -41.215  53.535 -53.209  1.00  0.00     0.009 A 
HETATM   17  C   UNL     1     -40.639  52.676 -54.146  1.00  0.00     0.001 A 
HETATM   18  C   UNL     1     -39.764  51.676 -53.729  1.00  0.00     0.000 A 
HETATM   19  C   UNL     1     -39.461  51.535 -52.377  1.00  0.00     0.001 A 
HETATM   20  C   UNL     1     -40.035  52.393 -51.437  1.00  0.00     0.009 A 
ENDBRANCH  14  15
ENDBRANCH   9  14
ENDBRANCH   1   7
BRANCH   3  21
HETATM   21  N   UNL     1     -46.124  57.880 -56.167  1.00  0.00    -0.261 N 
HETATM   22  C   UNL     1     -45.662  58.077 -57.459  1.00  0.00     0.277 C 
HETATM   23  O   UNL     1     -44.551  57.652 -57.783  1.00  0.00    -0.265 OA
HETATM   24  H   UNL     1     -47.064  58.140 -55.882  1.00  0.00     0.190 HD
BRANCH  22  25
HETATM   25  C   UNL     1     -46.550  58.789 -58.364  1.00  0.00     0.075 A 
HETATM   26  S   UNL     1     -46.408  58.671 -60.070  1.00  0.00    -0.077 SA
HETATM   27  C   UNL     1     -47.723  59.709 -60.312  1.00  0.00     0.052 A 
HETATM   28 BR   UNL     1     -48.348  60.187 -62.012  1.00  0.00    -0.043 Br
HETATM   29  C   UNL     1     -48.279  60.160 -59.145  1.00  0.00     0.028 A 
HETATM   30  C   UNL     1     -47.595  59.627 -58.011  1.00  0.00     0.026 A 
ENDBRANCH  22  25
ENDBRANCH   3  21
TORSDOF 5
ENDMDL
MODEL 5
REMARK VINA RESULT:      -7.6      2.017      2.117
REMARK  5 active torsions:
REMARK  status: ('A' for Active; 'I' for Inactive)
REMARK    1  A    between atoms: C_4  and  C_5 
REMARK    2  A    between atoms: C_5  and  N_6 
REMARK    3  A    between atoms: C_9  and  N_10 
REMARK       I    between atoms: N_10  and  C_11 
REMARK       I    between atoms: C_11  and  N_12 
REMARK    4  A    between atoms: N_12  and  N_13 
REMARK       I    between atoms: N_13  and  C_14 
REMARK    5  A    between atoms: C_14  and  C_15 
ROOT
HETATM    1  N   UNL     1     -43.975  55.252 -52.309  1.00  0.00    -0.336 N 
HETATM    2  C   UNL     1     -43.335  55.512 -53.488  1.00  0.00     0.335 C 
HETATM    3  N   UNL     1     -44.141  55.330 -54.584  1.00  0.00    -0.249 N 
HETATM    4  O   UNL     1     -42.143  55.809 -53.549  1.00  0.00    -0.246 OA
HETATM    5  H   UNL     1     -44.962  55.032 -52.380  1.00  0.00     0.164 HD
HETATM    6  H   UNL     1     -45.140  55.521 -54.494  1.00  0.00     0.192 HD
ENDROOT
BRANCH   1   7
HETATM    7  C   UNL     1     -43.434  55.402 -50.951  1.00  0.00     0.112 C 
HETATM    8  C   UNL     1     -42.380  54.346 -50.534  1.00  0.00     0.260 C 
HETATM    9  N   UNL     1     -41.031  54.653 -51.136  1.00  0.00    -0.065 N 
HETATM   10  H   UNL     1     -41.209  54.680 -52.163  1.00  0.00     0.280 HD
HETATM   11  C   UNL     1     -40.524  56.015 -50.773  1.00  0.00     0.235 C 
HETATM   12  C   UNL     1     -41.515  57.070 -51.248  1.00  0.00     0.030 C 
HETATM   13  C   UNL     1     -42.920  56.827 -50.702  1.00  0.00     0.028 C 
BRANCH   9  14
HETATM   14  C   UNL     1     -40.020  53.547 -50.988  1.00  0.00     0.273 C 
BRANCH  14  15
HETATM   15  C   UNL     1     -40.013  52.526 -52.094  1.00  0.00    -0.033 A 
HETATM   16  C   UNL     1     -40.432  52.874 -53.388  1.00  0.00     0.009 A 
HETATM   17  C   UNL     1     -40.445  51.922 -54.410  1.00  0.00     0.001 A 
HETATM   18  C   UNL     1     -40.036  50.616 -54.152  1.00  0.00     0.000 A 
HETATM   19  C   UNL     1     -39.609  50.260 -52.876  1.00  0.00     0.001 A 
HETATM   20  C   UNL     1     -39.593  51.209 -51.851  1.00  0.00     0.009 A 
ENDBRANCH  14  15
ENDBRANCH   9  14
ENDBRANCH   1   7
BRANCH   3  21
HETATM   21  N   UNL     1     -43.627  55.701 -55.839  1.00  0.00    -0.261 N 
HETATM   22  C   UNL     1     -43.977  56.938 -56.357  1.00  0.00     0.277 C 
HETATM   23  O   UNL     1     -44.747  57.669 -55.729  1.00  0.00    -0.265 OA
HETATM   24  H   UNL     1     -42.934  55.105 -56.282  1.00  0.00     0.190 HD
BRANCH  22  25
HETATM   25  C   UNL     1     -43.392  57.293 -57.639  1.00  0.00     0.075 A 
HETATM   26  S   UNL     1     -43.271  58.921 -58.173  1.00  0.00    -0.077 SA
HETATM   27  C   UNL     1     -42.523  58.454 -59.618  1.00  0.00     0.052 A 
HETATM   28 BR   UNL     1     -41.978  59.678 -60.928  1.00  0.00    -0.043 Br
HETATM   29  C   UNL     1     -42.357  57.099 -59.730  1.00  0.00     0.028 A 
HETATM   30  C   UNL     1     -42.865  56.423 -58.580  1.00  0.00     0.026 A 
ENDBRANCH  22  25
ENDBRANCH   3  21
TORSDOF 5
ENDMDL
MODEL 6
REMARK VINA RESULT:      -7.4      7.020      9.580
REMARK  5 active torsions:
REMARK  status: ('A' for Active; 'I' for Inactive)
REMARK    1  A    between atoms: C_4  and  C_5 
REMARK    2  A    between atoms: C_5  and  N_6 
REMARK    3  A    between atoms: C_9  and  N_10 
REMARK       I    between atoms: N_10  and  C_11 
REMARK       I    between atoms: C_11  and  N_12 
REMARK    4  A    between atoms: N_12  and  N_13 
REMARK       I    between atoms: N_13  and  C_14 
REMARK    5  A    between atoms: C_14  and  C_15 
ROOT
HETATM    1  N   UNL     1     -43.847  59.032 -51.452  1.00  0.00    -0.336 N 
HETATM    2  C   UNL     1     -43.522  59.884 -50.433  1.00  0.00     0.335 C 
HETATM    3  N   UNL     1     -44.604  60.229 -49.662  1.00  0.00    -0.249 N 
HETATM    4  O   UNL     1     -42.390  60.337 -50.279  1.00  0.00    -0.246 OA
HETATM    5  H   UNL     1     -44.809  58.710 -51.470  1.00  0.00     0.164 HD
HETATM    6  H   UNL     1     -45.353  59.547 -49.536  1.00  0.00     0.192 HD
ENDROOT
BRANCH   1   7
HETATM    7  C   UNL     1     -42.932  58.418 -52.425  1.00  0.00     0.112 C 
HETATM    8  C   UNL     1     -42.602  56.925 -52.178  1.00  0.00     0.260 C 
HETATM    9  N   UNL     1     -43.731  56.034 -52.633  1.00  0.00    -0.065 N 
HETATM   10  H   UNL     1     -44.557  56.371 -52.095  1.00  0.00     0.280 HD
HETATM   11  C   UNL     1     -44.078  56.221 -54.078  1.00  0.00     0.235 C 
HETATM   12  C   UNL     1     -44.481  57.671 -54.320  1.00  0.00     0.030 C 
HETATM   13  C   UNL     1     -43.402  58.651 -53.867  1.00  0.00     0.028 C 
BRANCH   9  14
HETATM   14  C   UNL     1     -43.599  54.597 -52.201  1.00  0.00     0.273 C 
BRANCH  14  15
HETATM   15  C   UNL     1     -42.322  53.913 -52.611  1.00  0.00    -0.033 A 
HETATM   16  C   UNL     1     -41.370  53.542 -51.648  1.00  0.00     0.009 A 
HETATM   17  C   UNL     1     -40.177  52.927 -52.029  1.00  0.00     0.001 A 
HETATM   18  C   UNL     1     -39.923  52.671 -53.374  1.00  0.00     0.000 A 
HETATM   19  C   UNL     1     -40.862  53.024 -54.339  1.00  0.00     0.001 A 
HETATM   20  C   UNL     1     -42.057  53.639 -53.962  1.00  0.00     0.009 A 
ENDBRANCH  14  15
ENDBRANCH   9  14
ENDBRANCH   1   7
BRANCH   3  21
HETATM   21  N   UNL     1     -44.361  60.990 -48.505  1.00  0.00    -0.261 N 
HETATM   22  C   UNL     1     -45.444  61.392 -47.739  1.00  0.00     0.277 C 
HETATM   23  O   UNL     1     -46.588  61.105 -48.098  1.00  0.00    -0.265 OA
HETATM   24  H   UNL     1     -43.401  61.134 -48.204  1.00  0.00     0.190 HD
BRANCH  22  25
HETATM   25  C   UNL     1     -45.141  62.145 -46.533  1.00  0.00     0.075 A 
HETATM   26  S   UNL     1     -44.551  61.393 -45.107  1.00  0.00    -0.077 SA
HETATM   27  C   UNL     1     -44.467  62.872 -44.289  1.00  0.00     0.052 A 
HETATM   28 BR   UNL     1     -43.872  63.029 -42.520  1.00  0.00    -0.043 Br
HETATM   29  C   UNL     1     -44.876  63.936 -45.049  1.00  0.00     0.028 A 
HETATM   30  C   UNL     1     -45.271  63.512 -46.353  1.00  0.00     0.026 A 
ENDBRANCH  22  25
ENDBRANCH   3  21
TORSDOF 5
ENDMDL
MODEL 7
REMARK VINA RESULT:      -7.3      2.262      3.015
REMARK  5 active torsions:
REMARK  status: ('A' for Active; 'I' for Inactive)
REMARK    1  A    between atoms: C_4  and  C_5 
REMARK    2  A    between atoms: C_5  and  N_6 
REMARK    3  A    between atoms: C_9  and  N_10 
REMARK       I    between atoms: N_10  and  C_11 
REMARK       I    between atoms: C_11  and  N_12 
REMARK    4  A    between atoms: N_12  and  N_13 
REMARK       I    between atoms: N_13  and  C_14 
REMARK    5  A    between atoms: C_14  and  C_15 
ROOT
HETATM    1  N   UNL     1     -43.394  58.127 -55.003  1.00  0.00    -0.336 N 
HETATM    2  C   UNL     1     -44.466  58.283 -55.837  1.00  0.00     0.335 C 
HETATM    3  N   UNL     1     -44.136  58.137 -57.161  1.00  0.00    -0.249 N 
HETATM    4  O   UNL     1     -45.586  58.590 -55.433  1.00  0.00    -0.246 OA
HETATM    5  H   UNL     1     -42.523  57.857 -55.447  1.00  0.00     0.164 HD
HETATM    6  H   UNL     1     -43.388  57.490 -57.412  1.00  0.00     0.192 HD
ENDROOT
BRANCH   1   7
HETATM    7  C   UNL     1     -43.398  58.157 -53.534  1.00  0.00     0.112 C 
HETATM    8  C   UNL     1     -43.678  56.800 -52.841  1.00  0.00     0.260 C 
HETATM    9  N   UNL     1     -42.453  55.920 -52.848  1.00  0.00    -0.065 N 
HETATM   10  H   UNL     1     -42.209  55.829 -53.858  1.00  0.00     0.280 HD
HETATM   11  C   UNL     1     -41.267  56.562 -52.197  1.00  0.00     0.235 C 
HETATM   12  C   UNL     1     -40.931  57.861 -52.919  1.00  0.00     0.030 C 
HETATM   13  C   UNL     1     -42.125  58.811 -52.979  1.00  0.00     0.028 C 
BRANCH   9  14
HETATM   14  C   UNL     1     -42.709  54.498 -52.423  1.00  0.00     0.273 C 
BRANCH  14  15
HETATM   15  C   UNL     1     -41.598  53.526 -52.718  1.00  0.00    -0.033 A 
HETATM   16  C   UNL     1     -41.384  53.063 -54.026  1.00  0.00     0.009 A 
HETATM   17  C   UNL     1     -40.367  52.146 -54.297  1.00  0.00     0.001 A 
HETATM   18  C   UNL     1     -39.551  51.685 -53.267  1.00  0.00     0.000 A 
HETATM   19  C   UNL     1     -39.746  52.143 -51.967  1.00  0.00     0.001 A 
HETATM   20  C   UNL     1     -40.761  53.061 -51.692  1.00  0.00     0.009 A 
ENDBRANCH  14  15
ENDBRANCH   9  14
ENDBRANCH   1   7
BRANCH   3  21
HETATM   21  N   UNL     1     -45.186  58.142 -58.097  1.00  0.00    -0.261 N 
HETATM   22  C   UNL     1     -45.075  57.336 -59.219  1.00  0.00     0.277 C 
HETATM   23  O   UNL     1     -44.056  56.662 -59.390  1.00  0.00    -0.265 OA
HETATM   24  H   UNL     1     -46.039  58.648 -57.876  1.00  0.00     0.190 HD
BRANCH  22  25
HETATM   25  C   UNL     1     -46.201  57.346 -60.138  1.00  0.00     0.075 A 
HETATM   26  S   UNL     1     -46.950  58.801 -60.656  1.00  0.00    -0.077 SA
HETATM   27  C   UNL     1     -48.051  57.959 -61.628  1.00  0.00     0.052 A 
HETATM   28 BR   UNL     1     -49.360  58.810 -62.663  1.00  0.00    -0.043 Br
HETATM   29  C   UNL     1     -47.887  56.599 -61.581  1.00  0.00     0.028 A 
HETATM   30  C   UNL     1     -46.813  56.243 -60.712  1.00  0.00     0.026 A 
ENDBRANCH  22  25
ENDBRANCH   3  21
TORSDOF 5
ENDMDL
MODEL 8
REMARK VINA RESULT:      -7.0     15.115     16.932
REMARK  5 active torsions:
REMARK  status: ('A' for Active; 'I' for Inactive)
REMARK    1  A    between atoms: C_4  and  C_5 
REMARK    2  A    between atoms: C_5  and  N_6 
REMARK    3  A    between atoms: C_9  and  N_10 
REMARK       I    between atoms: N_10  and  C_11 
REMARK       I    between atoms: C_11  and  N_12 
REMARK    4  A    between atoms: N_12  and  N_13 
REMARK       I    between atoms: N_13  and  C_14 
REMARK    5  A    between atoms: C_14  and  C_15 
ROOT
HETATM    1  N   UNL     1     -35.482  40.302 -52.451  1.00  0.00    -0.336 N 
HETATM    2  C   UNL     1     -36.063  40.026 -53.657  1.00  0.00     0.335 C 
HETATM    3  N   UNL     1     -36.273  41.150 -54.416  1.00  0.00    -0.249 N 
HETATM    4  O   UNL     1     -36.417  38.895 -53.984  1.00  0.00    -0.246 OA
HETATM    5  H   UNL     1     -35.217  41.269 -52.298  1.00  0.00     0.164 HD
HETATM    6  H   UNL     1     -35.616  41.927 -54.335  1.00  0.00     0.192 HD
ENDROOT
BRANCH   1   7
HETATM    7  C   UNL     1     -35.064  39.338 -51.424  1.00  0.00     0.112 C 
HETATM    8  C   UNL     1     -34.135  38.200 -51.917  1.00  0.00     0.260 C 
HETATM    9  N   UNL     1     -32.716  38.685 -52.080  1.00  0.00    -0.065 N 
HETATM   10  H   UNL     1     -32.793  39.480 -52.751  1.00  0.00     0.280 HD
HETATM   11  C   UNL     1     -32.147  39.265 -50.822  1.00  0.00     0.235 C 
HETATM   12  C   UNL     1     -33.008  40.437 -50.368  1.00  0.00     0.030 C 
HETATM   13  C   UNL     1     -34.472  40.043 -50.195  1.00  0.00     0.028 C 
BRANCH   9  14
HETATM   14  C   UNL     1     -31.808  37.716 -52.792  1.00  0.00     0.273 C 
BRANCH  14  15
HETATM   15  C   UNL     1     -31.243  38.202 -54.099  1.00  0.00    -0.033 A 
HETATM   16  C   UNL     1     -31.752  39.359 -54.711  1.00  0.00     0.009 A 
HETATM   17  C   UNL     1     -31.243  39.799 -55.933  1.00  0.00     0.001 A 
HETATM   18  C   UNL     1     -30.217  39.093 -56.556  1.00  0.00     0.000 A 
HETATM   19  C   UNL     1     -29.695  37.950 -55.956  1.00  0.00     0.001 A 
HETATM   20  C   UNL     1     -30.202  37.506 -54.733  1.00  0.00     0.009 A 
ENDBRANCH  14  15
ENDBRANCH   9  14
ENDBRANCH   1   7
BRANCH   3  21
HETATM   21  N   UNL     1     -36.739  40.969 -55.731  1.00  0.00    -0.261 N 
HETATM   22  C   UNL     1     -36.014  41.525 -56.772  1.00  0.00     0.277 C 
HETATM   23  O   UNL     1     -35.002  42.187 -56.528  1.00  0.00    -0.265 OA
HETATM   24  H   UNL     1     -37.529  40.350 -55.891  1.00  0.00     0.190 HD
BRANCH  22  25
HETATM   25  C   UNL     1     -36.514  41.280 -58.115  1.00  0.00     0.075 A 
HETATM   26  S   UNL     1     -36.455  39.727 -58.846  1.00  0.00    -0.077 SA
HETATM   27  C   UNL     1     -37.191  40.298 -60.259  1.00  0.00     0.052 A 
HETATM   28 BR   UNL     1     -37.564  39.202 -61.731  1.00  0.00    -0.043 Br
HETATM   29  C   UNL     1     -37.484  41.636 -60.216  1.00  0.00     0.028 A 
HETATM   30  C   UNL     1     -37.087  42.207 -58.970  1.00  0.00     0.026 A 
ENDBRANCH  22  25
ENDBRANCH   3  21
TORSDOF 5
ENDMDL
MODEL 9
REMARK VINA RESULT:      -7.0     15.501     18.189
REMARK  5 active torsions:
REMARK  status: ('A' for Active; 'I' for Inactive)
REMARK    1  A    between atoms: C_4  and  C_5 
REMARK    2  A    between atoms: C_5  and  N_6 
REMARK    3  A    between atoms: C_9  and  N_10 
REMARK       I    between atoms: N_10  and  C_11 
REMARK       I    between atoms: C_11  and  N_12 
REMARK    4  A    between atoms: N_12  and  N_13 
REMARK       I    between atoms: N_13  and  C_14 
REMARK    5  A    between atoms: C_14  and  C_15 
ROOT
HETATM    1  N   UNL     1     -37.558  41.059 -53.903  1.00  0.00    -0.336 N 
HETATM    2  C   UNL     1     -36.610  41.202 -52.928  1.00  0.00     0.335 C 
HETATM    3  N   UNL     1     -36.764  40.306 -51.900  1.00  0.00    -0.249 N 
HETATM    4  O   UNL     1     -35.759  42.089 -52.951  1.00  0.00    -0.246 OA
HETATM    5  H   UNL     1     -38.199  40.282 -53.786  1.00  0.00     0.164 HD
HETATM    6  H   UNL     1     -37.144  39.382 -52.108  1.00  0.00     0.192 HD
ENDROOT
BRANCH   1   7
HETATM    7  C   UNL     1     -37.656  41.805 -55.165  1.00  0.00     0.112 C 
HETATM    8  C   UNL     1     -36.305  42.208 -55.808  1.00  0.00     0.260 C 
HETATM    9  N   UNL     1     -35.668  41.038 -56.515  1.00  0.00    -0.065 N 
HETATM   10  H   UNL     1     -35.576  40.309 -55.775  1.00  0.00     0.280 HD
HETATM   11  C   UNL     1     -36.548  40.441 -57.570  1.00  0.00     0.235 C 
HETATM   12  C   UNL     1     -37.851  39.969 -56.937  1.00  0.00     0.030 C 
HETATM   13  C   UNL     1     -38.560  41.087 -56.177  1.00  0.00     0.028 C 
BRANCH   9  14
HETATM   14  C   UNL     1     -34.244  41.276 -56.947  1.00  0.00     0.273 C 
BRANCH  14  15
HETATM   15  C   UNL     1     -33.195  40.568 -56.132  1.00  0.00    -0.033 A 
HETATM   16  C   UNL     1     -33.363  40.397 -54.748  1.00  0.00     0.009 A 
HETATM   17  C   UNL     1     -32.381  39.760 -53.988  1.00  0.00     0.001 A 
HETATM   18  C   UNL     1     -31.225  39.282 -54.601  1.00  0.00     0.000 A 
HETATM   19  C   UNL     1     -31.051  39.435 -55.973  1.00  0.00     0.001 A 
HETATM   20  C   UNL     1     -32.031  40.072 -56.737  1.00  0.00     0.009 A 
ENDBRANCH  14  15
ENDBRANCH   9  14
ENDBRANCH   1   7
BRANCH   3  21
HETATM   21  N   UNL     1     -35.764  40.273 -50.912  1.00  0.00    -0.261 N 
HETATM   22  C   UNL     1     -34.834  39.247 -50.947  1.00  0.00     0.277 C 
HETATM   23  O   UNL     1     -34.916  38.375 -51.815  1.00  0.00    -0.265 OA
HETATM   24  H   UNL     1     -35.685  41.054 -50.266  1.00  0.00     0.190 HD
BRANCH  22  25
HETATM   25  C   UNL     1     -33.798  39.275 -49.928  1.00  0.00     0.075 A 
HETATM   26  S   UNL     1     -33.816  38.224 -48.571  1.00  0.00    -0.077 SA
HETATM   27  C   UNL     1     -32.371  38.872 -47.972  1.00  0.00     0.052 A 
HETATM   28 BR   UNL     1     -31.560  38.274 -46.394  1.00  0.00    -0.043 Br
HETATM   29  C   UNL     1     -31.860  39.871 -48.757  1.00  0.00     0.028 A 
HETATM   30  C   UNL     1     -32.691  40.108 -49.893  1.00  0.00     0.026 A 
ENDBRANCH  22  25
ENDBRANCH   3  21
TORSDOF 5
ENDMDL
MODEL 10
REMARK VINA RESULT:      -7.0      4.235      5.976
REMARK  5 active torsions:
REMARK  status: ('A' for Active; 'I' for Inactive)
REMARK    1  A    between atoms: C_4  and  C_5 
REMARK    2  A    between atoms: C_5  and  N_6 
REMARK    3  A    between atoms: C_9  and  N_10 
REMARK       I    between atoms: N_10  and  C_11 
REMARK       I    between atoms: C_11  and  N_12 
REMARK    4  A    between atoms: N_12  and  N_13 
REMARK       I    between atoms: N_13  and  C_14 
REMARK    5  A    between atoms: C_14  and  C_15 
ROOT
HETATM    1  N   UNL     1     -41.774  56.491 -49.956  1.00  0.00    -0.336 N 
HETATM    2  C   UNL     1     -42.284  57.304 -50.930  1.00  0.00     0.335 C 
HETATM    3  N   UNL     1     -41.857  58.603 -50.816  1.00  0.00    -0.249 N 
HETATM    4  O   UNL     1     -43.091  56.912 -51.769  1.00  0.00    -0.246 OA
HETATM    5  H   UNL     1     -41.103  56.920 -49.328  1.00  0.00     0.164 HD
HETATM    6  H   UNL     1     -40.924  58.782 -50.441  1.00  0.00     0.192 HD
ENDROOT
BRANCH   1   7
HETATM    7  C   UNL     1     -41.972  55.042 -49.813  1.00  0.00     0.112 C 
HETATM    8  C   UNL     1     -41.970  54.236 -51.135  1.00  0.00     0.260 C 
HETATM    9  N   UNL     1     -40.565  54.023 -51.643  1.00  0.00    -0.065 N 
HETATM   10  H   UNL     1     -40.179  54.986 -51.743  1.00  0.00     0.280 HD
HETATM   11  C   UNL     1     -39.683  53.329 -50.651  1.00  0.00     0.235 C 
HETATM   12  C   UNL     1     -39.613  54.153 -49.370  1.00  0.00     0.030 C 
HETATM   13  C   UNL     1     -40.997  54.437 -48.793  1.00  0.00     0.028 C 
BRANCH   9  14
HETATM   14  C   UNL     1     -40.489  53.472 -53.043  1.00  0.00     0.273 C 
BRANCH  14  15
HETATM   15  C   UNL     1     -41.262  54.238 -54.082  1.00  0.00    -0.033 A 
HETATM   16  C   UNL     1     -40.922  55.566 -54.388  1.00  0.00     0.009 A 
HETATM   17  C   UNL     1     -41.652  56.285 -55.336  1.00  0.00     0.001 A 
HETATM   18  C   UNL     1     -42.724  55.685 -55.993  1.00  0.00     0.000 A 
HETATM   19  C   UNL     1     -43.065  54.367 -55.706  1.00  0.00     0.001 A 
HETATM   20  C   UNL     1     -42.338  53.644 -54.759  1.00  0.00     0.009 A 
ENDBRANCH  14  15
ENDBRANCH   9  14
ENDBRANCH   1   7
BRANCH   3  21
HETATM   21  N   UNL     1     -42.210  59.496 -51.844  1.00  0.00    -0.261 N 
HETATM   22  C   UNL     1     -42.764  60.717 -51.497  1.00  0.00     0.277 C 
HETATM   23  O   UNL     1     -42.964  60.984 -50.310  1.00  0.00    -0.265 OA
HETATM   24  H   UNL     1     -41.953  59.269 -52.800  1.00  0.00     0.190 HD
BRANCH  22  25
HETATM   25  C   UNL     1     -43.078  61.621 -52.592  1.00  0.00     0.075 A 
HETATM   26  S   UNL     1     -42.990  61.136 -54.236  1.00  0.00    -0.077 SA
HETATM   27  C   UNL     1     -43.487  62.662 -54.776  1.00  0.00     0.052 A 
HETATM   28 BR   UNL     1     -43.697  63.085 -56.588  1.00  0.00    -0.043 Br
HETATM   29  C   UNL     1     -43.717  63.548 -53.758  1.00  0.00     0.028 A 
HETATM   30  C   UNL     1     -43.477  62.944 -52.487  1.00  0.00     0.026 A 
ENDBRANCH  22  25
ENDBRANCH   3  21
TORSDOF 5
ENDMDL
