MODEL 1
REMARK VINA RESULT:      -7.8      0.000      0.000
REMARK  3 active torsions:
REMARK  status: ('A' for Active; 'I' for Inactive)
REMARK    1  A    between atoms: C_7  and  C_8 
REMARK       I    between atoms: C_8  and  N_9 
REMARK    2  A    between atoms: N_9  and  C_10 
REMARK    3  A    between atoms: C_13  and  C_14 
REMARK       I    between atoms: C_14  and  N_15 
ROOT
HETATM    1  C   UNL     1     -42.906  55.377 -52.013  1.00  0.00     0.257 C 
HETATM    2  N   UNL     1     -41.786  55.053 -52.757  1.00  0.00    -0.323 N 
HETATM    3  O   UNL     1     -43.607  54.584 -51.397  1.00  0.00    -0.267 OA
HETATM    4  H   UNL     1     -41.255  55.832 -53.128  1.00  0.00     0.169 HD
ENDROOT
BRANCH   2   5
HETATM    5  C   UNL     1     -41.247  53.773 -52.997  1.00  0.00     0.035 A 
HETATM    6  C   UNL     1     -41.445  53.046 -54.172  1.00  0.00     0.030 A 
HETATM    7  C   UNL     1     -40.890  51.768 -54.328  1.00  0.00     0.019 A 
HETATM    8  C   UNL     1     -40.110  51.205 -53.312  1.00  0.00     0.032 A 
HETATM    9  C   UNL     1     -39.908  51.936 -52.135  1.00  0.00     0.019 A 
HETATM   10  C   UNL     1     -40.474  53.206 -51.978  1.00  0.00     0.030 A 
BRANCH   8  11
HETATM   11  C   UNL     1     -39.494  49.851 -53.406  1.00  0.00     0.249 C 
HETATM   12  N   UNL     1     -39.320  49.128 -52.259  1.00  0.00    -0.366 N 
HETATM   13  H   UNL     1     -39.656  49.396 -51.348  1.00  0.00     0.159 HD
HETATM   14  H   UNL     1     -38.933  48.199 -52.365  1.00  0.00     0.159 HD
HETATM   15  O   UNL     1     -39.155  49.378 -54.486  1.00  0.00    -0.268 OA
ENDBRANCH   8  11
ENDBRANCH   2   5
BRANCH   1  16
HETATM   16  C   UNL     1     -43.176  56.819 -51.946  1.00  0.00     0.050 A 
HETATM   17  C   UNL     1     -42.355  57.876 -51.375  1.00  0.00    -0.003 A 
HETATM   18  C   UNL     1     -41.057  57.856 -50.794  1.00  0.00     0.014 A 
HETATM   19  C   UNL     1     -42.999  59.117 -51.446  1.00  0.00     0.016 A 
HETATM   20  C   UNL     1     -40.481  59.020 -50.270  1.00  0.00     0.001 A 
HETATM   21  C   UNL     1     -41.164  60.223 -50.325  1.00  0.00     0.001 A 
HETATM   22  C   UNL     1     -42.424  60.291 -50.919  1.00  0.00     0.019 A 
HETATM   23  S   UNL     1     -44.515  59.003 -52.250  1.00  0.00    -0.100 SA
HETATM   24  C   UNL     1     -44.334  57.333 -52.500  1.00  0.00     0.068 A 
ENDBRANCH   1  16
TORSDOF 3
ENDMDL
MODEL 2
REMARK VINA RESULT:      -7.7      2.828      3.541
REMARK  3 active torsions:
REMARK  status: ('A' for Active; 'I' for Inactive)
REMARK    1  A    between atoms: C_7  and  C_8 
REMARK       I    between atoms: C_8  and  N_9 
REMARK    2  A    between atoms: N_9  and  C_10 
REMARK    3  A    between atoms: C_13  and  C_14 
REMARK       I    between atoms: C_14  and  N_15 
ROOT
HETATM    1  C   UNL     1     -42.145  55.832 -53.494  1.00  0.00     0.257 C 
HETATM    2  N   UNL     1     -40.916  55.214 -53.636  1.00  0.00    -0.323 N 
HETATM    3  O   UNL     1     -43.153  55.318 -53.026  1.00  0.00    -0.267 OA
HETATM    4  H   UNL     1     -40.154  55.802 -53.950  1.00  0.00     0.169 HD
ENDROOT
BRANCH   2   5
HETATM    5  C   UNL     1     -40.576  53.883 -53.320  1.00  0.00     0.035 A 
HETATM    6  C   UNL     1     -40.252  53.440 -52.036  1.00  0.00     0.030 A 
HETATM    7  C   UNL     1     -39.906  52.100 -51.806  1.00  0.00     0.019 A 
HETATM    8  C   UNL     1     -39.895  51.179 -52.859  1.00  0.00     0.032 A 
HETATM    9  C   UNL     1     -40.223  51.624 -54.145  1.00  0.00     0.019 A 
HETATM   10  C   UNL     1     -40.557  52.964 -54.374  1.00  0.00     0.030 A 
BRANCH   8  11
HETATM   11  C   UNL     1     -39.532  49.743 -52.688  1.00  0.00     0.249 C 
HETATM   12  N   UNL     1     -39.557  49.205 -51.432  1.00  0.00    -0.366 N 
HETATM   13  H   UNL     1     -39.889  49.676 -50.606  1.00  0.00     0.159 HD
HETATM   14  H   UNL     1     -39.342  48.219 -51.359  1.00  0.00     0.159 HD
HETATM   15  O   UNL     1     -39.226  49.045 -53.648  1.00  0.00    -0.268 OA
ENDBRANCH   8  11
ENDBRANCH   2   5
BRANCH   1  16
HETATM   16  C   UNL     1     -42.148  57.245 -53.898  1.00  0.00     0.050 A 
HETATM   17  C   UNL     1     -42.205  57.810 -55.238  1.00  0.00    -0.003 A 
HETATM   18  C   UNL     1     -42.346  57.203 -56.516  1.00  0.00     0.014 A 
HETATM   19  C   UNL     1     -42.115  59.208 -55.205  1.00  0.00     0.016 A 
HETATM   20  C   UNL     1     -42.338  57.972 -57.687  1.00  0.00     0.001 A 
HETATM   21  C   UNL     1     -42.209  59.349 -57.617  1.00  0.00     0.001 A 
HETATM   22  C   UNL     1     -42.105  59.985 -56.381  1.00  0.00     0.019 A 
HETATM   23  S   UNL     1     -42.039  59.804 -53.594  1.00  0.00    -0.100 SA
HETATM   24  C   UNL     1     -42.120  58.239 -52.938  1.00  0.00     0.068 A 
ENDBRANCH   1  16
TORSDOF 3
ENDMDL
MODEL 3
REMARK VINA RESULT:      -7.7      1.252      2.126
REMARK  3 active torsions:
REMARK  status: ('A' for Active; 'I' for Inactive)
REMARK    1  A    between atoms: C_7  and  C_8 
REMARK       I    between atoms: C_8  and  N_9 
REMARK    2  A    between atoms: N_9  and  C_10 
REMARK    3  A    between atoms: C_13  and  C_14 
REMARK       I    between atoms: C_14  and  N_15 
ROOT
HETATM    1  C   UNL     1     -42.085  55.801 -51.598  1.00  0.00     0.257 C 
HETATM    2  N   UNL     1     -40.984  55.347 -52.300  1.00  0.00    -0.323 N 
HETATM    3  O   UNL     1     -42.981  55.100 -51.144  1.00  0.00    -0.267 OA
HETATM    4  H   UNL     1     -40.280  56.039 -52.525  1.00  0.00     0.169 HD
ENDROOT
BRANCH   2   5
HETATM    5  C   UNL     1     -40.682  54.022 -52.674  1.00  0.00     0.035 A 
HETATM    6  C   UNL     1     -40.923  53.490 -53.943  1.00  0.00     0.030 A 
HETATM    7  C   UNL     1     -40.611  52.153 -54.232  1.00  0.00     0.019 A 
HETATM    8  C   UNL     1     -40.037  51.332 -53.256  1.00  0.00     0.032 A 
HETATM    9  C   UNL     1     -39.792  51.866 -51.985  1.00  0.00     0.019 A 
HETATM   10  C   UNL     1     -40.116  53.197 -51.696  1.00  0.00     0.030 A 
BRANCH   8  11
HETATM   11  C   UNL     1     -39.685  49.903 -53.491  1.00  0.00     0.249 C 
HETATM   12  N   UNL     1     -39.368  49.120 -52.417  1.00  0.00    -0.366 N 
HETATM   13  H   UNL     1     -39.436  49.404 -51.452  1.00  0.00     0.159 HD
HETATM   14  H   UNL     1     -39.171  48.146 -52.609  1.00  0.00     0.159 HD
HETATM   15  O   UNL     1     -39.688  49.422 -54.619  1.00  0.00    -0.268 OA
ENDBRANCH   8  11
ENDBRANCH   2   5
BRANCH   1  16
HETATM   16  C   UNL     1     -42.077  57.249 -51.354  1.00  0.00     0.050 A 
HETATM   17  C   UNL     1     -43.042  58.252 -51.781  1.00  0.00    -0.003 A 
HETATM   18  C   UNL     1     -44.280  58.140 -52.472  1.00  0.00     0.014 A 
HETATM   19  C   UNL     1     -42.637  59.539 -51.407  1.00  0.00     0.016 A 
HETATM   20  C   UNL     1     -45.026  59.276 -52.808  1.00  0.00     0.001 A 
HETATM   21  C   UNL     1     -44.575  60.537 -52.455  1.00  0.00     0.001 A 
HETATM   22  C   UNL     1     -43.384  60.686 -51.745  1.00  0.00     0.019 A 
HETATM   23  S   UNL     1     -41.174  59.512 -50.505  1.00  0.00    -0.100 SA
HETATM   24  C   UNL     1     -41.063  57.820 -50.605  1.00  0.00     0.068 A 
ENDBRANCH   1  16
TORSDOF 3
ENDMDL
MODEL 4
REMARK VINA RESULT:      -7.6     15.422     16.548
REMARK  3 active torsions:
REMARK  status: ('A' for Active; 'I' for Inactive)
REMARK    1  A    between atoms: C_7  and  C_8 
REMARK       I    between atoms: C_8  and  N_9 
REMARK    2  A    between atoms: N_9  and  C_10 
REMARK    3  A    between atoms: C_13  and  C_14 
REMARK       I    between atoms: C_14  and  N_15 
ROOT
HETATM    1  C   UNL     1     -35.975  41.402 -53.288  1.00  0.00     0.257 C 
HETATM    2  N   UNL     1     -36.143  40.516 -54.336  1.00  0.00    -0.323 N 
HETATM    3  O   UNL     1     -36.139  42.615 -53.346  1.00  0.00    -0.267 OA
HETATM    4  H   UNL     1     -36.064  39.533 -54.107  1.00  0.00     0.169 HD
ENDROOT
BRANCH   2   5
HETATM    5  C   UNL     1     -36.487  40.810 -55.671  1.00  0.00     0.035 A 
HETATM    6  C   UNL     1     -37.684  40.420 -56.276  1.00  0.00     0.030 A 
HETATM    7  C   UNL     1     -37.946  40.736 -57.617  1.00  0.00     0.019 A 
HETATM    8  C   UNL     1     -37.018  41.463 -58.369  1.00  0.00     0.032 A 
HETATM    9  C   UNL     1     -35.820  41.857 -57.761  1.00  0.00     0.019 A 
HETATM   10  C   UNL     1     -35.555  41.530 -56.426  1.00  0.00     0.030 A 
BRANCH   8  11
HETATM   11  C   UNL     1     -37.227  41.829 -59.799  1.00  0.00     0.249 C 
HETATM   12  N   UNL     1     -37.356  40.828 -60.720  1.00  0.00    -0.366 N 
HETATM   13  H   UNL     1     -37.411  39.845 -60.505  1.00  0.00     0.159 HD
HETATM   14  H   UNL     1     -37.534  41.112 -61.675  1.00  0.00     0.159 HD
HETATM   15  O   UNL     1     -37.295  43.001 -60.154  1.00  0.00    -0.268 OA
ENDBRANCH   8  11
ENDBRANCH   2   5
BRANCH   1  16
HETATM   16  C   UNL     1     -35.638  40.755 -52.013  1.00  0.00     0.050 A 
HETATM   17  C   UNL     1     -34.325  40.469 -51.454  1.00  0.00    -0.003 A 
HETATM   18  C   UNL     1     -33.014  40.779 -51.911  1.00  0.00     0.014 A 
HETATM   19  C   UNL     1     -34.428  39.774 -50.243  1.00  0.00     0.016 A 
HETATM   20  C   UNL     1     -31.883  40.356 -51.203  1.00  0.00     0.001 A 
HETATM   21  C   UNL     1     -32.023  39.637 -50.027  1.00  0.00     0.001 A 
HETATM   22  C   UNL     1     -33.291  39.345 -49.528  1.00  0.00     0.019 A 
HETATM   23  S   UNL     1     -36.066  39.549 -49.774  1.00  0.00    -0.100 SA
HETATM   24  C   UNL     1     -36.644  40.354 -51.153  1.00  0.00     0.068 A 
ENDBRANCH   1  16
TORSDOF 3
ENDMDL
MODEL 5
REMARK VINA RESULT:      -7.5      4.479      7.643
REMARK  3 active torsions:
REMARK  status: ('A' for Active; 'I' for Inactive)
REMARK    1  A    between atoms: C_7  and  C_8 
REMARK       I    between atoms: C_8  and  N_9 
REMARK    2  A    between atoms: N_9  and  C_10 
REMARK    3  A    between atoms: C_13  and  C_14 
REMARK       I    between atoms: C_14  and  N_15 
ROOT
HETATM    1  C   UNL     1     -42.432  54.794 -53.995  1.00  0.00     0.257 C 
HETATM    2  N   UNL     1     -41.803  55.298 -55.119  1.00  0.00    -0.323 N 
HETATM    3  O   UNL     1     -43.631  54.859 -53.759  1.00  0.00    -0.267 OA
HETATM    4  H   UNL     1     -40.819  55.080 -55.217  1.00  0.00     0.169 HD
ENDROOT
BRANCH   2   5
HETATM    5  C   UNL     1     -42.382  56.014 -56.186  1.00  0.00     0.035 A 
HETATM    6  C   UNL     1     -42.499  57.404 -56.227  1.00  0.00     0.030 A 
HETATM    7  C   UNL     1     -43.106  58.042 -57.318  1.00  0.00     0.019 A 
HETATM    8  C   UNL     1     -43.591  57.295 -58.397  1.00  0.00     0.032 A 
HETATM    9  C   UNL     1     -43.469  55.901 -58.358  1.00  0.00     0.019 A 
HETATM   10  C   UNL     1     -42.874  55.266 -57.262  1.00  0.00     0.030 A 
BRANCH   8  11
HETATM   11  C   UNL     1     -44.251  57.905 -59.586  1.00  0.00     0.249 C 
HETATM   12  N   UNL     1     -44.520  57.111 -60.666  1.00  0.00    -0.366 N 
HETATM   13  H   UNL     1     -44.390  56.113 -60.698  1.00  0.00     0.159 HD
HETATM   14  H   UNL     1     -45.002  57.549 -61.440  1.00  0.00     0.159 HD
HETATM   15  O   UNL     1     -44.562  59.091 -59.605  1.00  0.00    -0.268 OA
ENDBRANCH   8  11
ENDBRANCH   2   5
BRANCH   1  16
HETATM   16  C   UNL     1     -41.531  54.073 -53.086  1.00  0.00     0.050 A 
HETATM   17  C   UNL     1     -40.871  52.791 -53.282  1.00  0.00    -0.003 A 
HETATM   18  C   UNL     1     -40.832  51.907 -54.395  1.00  0.00     0.014 A 
HETATM   19  C   UNL     1     -40.147  52.412 -52.144  1.00  0.00     0.016 A 
HETATM   20  C   UNL     1     -40.145  50.689 -54.328  1.00  0.00     0.001 A 
HETATM   21  C   UNL     1     -39.471  50.330 -53.173  1.00  0.00     0.001 A 
HETATM   22  C   UNL     1     -39.455  51.186 -52.072  1.00  0.00     0.019 A 
HETATM   23  S   UNL     1     -40.212  53.614 -50.917  1.00  0.00    -0.100 SA
HETATM   24  C   UNL     1     -41.189  54.629 -51.866  1.00  0.00     0.068 A 
ENDBRANCH   1  16
TORSDOF 3
ENDMDL
MODEL 6
REMARK VINA RESULT:      -7.4      4.089      5.331
REMARK  3 active torsions:
REMARK  status: ('A' for Active; 'I' for Inactive)
REMARK    1  A    between atoms: C_7  and  C_8 
REMARK       I    between atoms: C_8  and  N_9 
REMARK    2  A    between atoms: N_9  and  C_10 
REMARK    3  A    between atoms: C_13  and  C_14 
REMARK       I    between atoms: C_14  and  N_15 
ROOT
HETATM    1  C   UNL     1     -42.471  54.945 -55.439  1.00  0.00     0.257 C 
HETATM    2  N   UNL     1     -41.268  54.809 -54.771  1.00  0.00    -0.323 N 
HETATM    3  O   UNL     1     -43.421  54.175 -55.363  1.00  0.00    -0.267 OA
HETATM    4  H   UNL     1     -40.617  55.580 -54.861  1.00  0.00     0.169 HD
ENDROOT
BRANCH   2   5
HETATM    5  C   UNL     1     -40.867  53.764 -53.915  1.00  0.00     0.035 A 
HETATM    6  C   UNL     1     -40.267  52.580 -54.350  1.00  0.00     0.030 A 
HETATM    7  C   UNL     1     -39.914  51.577 -53.436  1.00  0.00     0.019 A 
HETATM    8  C   UNL     1     -40.140  51.753 -52.067  1.00  0.00     0.032 A 
HETATM    9  C   UNL     1     -40.737  52.942 -51.631  1.00  0.00     0.019 A 
HETATM   10  C   UNL     1     -41.100  53.936 -52.547  1.00  0.00     0.030 A 
BRANCH   8  11
HETATM   11  C   UNL     1     -39.794  50.729 -51.040  1.00  0.00     0.249 C 
HETATM   12  N   UNL     1     -39.020  49.665 -51.410  1.00  0.00    -0.366 N 
HETATM   13  H   UNL     1     -38.580  49.553 -52.309  1.00  0.00     0.159 HD
HETATM   14  H   UNL     1     -38.774  49.010 -50.679  1.00  0.00     0.159 HD
HETATM   15  O   UNL     1     -40.181  50.831 -49.881  1.00  0.00    -0.268 OA
ENDBRANCH   8  11
ENDBRANCH   2   5
BRANCH   1  16
HETATM   16  C   UNL     1     -42.572  56.176 -56.235  1.00  0.00     0.050 A 
HETATM   17  C   UNL     1     -42.938  56.330 -57.635  1.00  0.00    -0.003 A 
HETATM   18  C   UNL     1     -43.369  55.388 -58.609  1.00  0.00     0.014 A 
HETATM   19  C   UNL     1     -42.847  57.667 -58.040  1.00  0.00     0.016 A 
HETATM   20  C   UNL     1     -43.633  55.780 -59.927  1.00  0.00     0.001 A 
HETATM   21  C   UNL     1     -43.496  57.106 -60.302  1.00  0.00     0.001 A 
HETATM   22  C   UNL     1     -43.111  58.066 -59.367  1.00  0.00     0.019 A 
HETATM   23  S   UNL     1     -42.404  58.700 -56.740  1.00  0.00    -0.100 SA
HETATM   24  C   UNL     1     -42.326  57.403 -55.646  1.00  0.00     0.068 A 
ENDBRANCH   1  16
TORSDOF 3
ENDMDL
MODEL 7
REMARK VINA RESULT:      -7.3      1.834      2.562
REMARK  3 active torsions:
REMARK  status: ('A' for Active; 'I' for Inactive)
REMARK    1  A    between atoms: C_7  and  C_8 
REMARK       I    between atoms: C_8  and  N_9 
REMARK    2  A    between atoms: N_9  and  C_10 
REMARK    3  A    between atoms: C_13  and  C_14 
REMARK       I    between atoms: C_14  and  N_15 
ROOT
HETATM    1  C   UNL     1     -41.129  56.216 -53.676  1.00  0.00     0.257 C 
HETATM    2  N   UNL     1     -41.236  55.237 -52.704  1.00  0.00    -0.323 N 
HETATM    3  O   UNL     1     -40.663  56.060 -54.798  1.00  0.00    -0.267 OA
HETATM    4  H   UNL     1     -41.733  55.497 -51.862  1.00  0.00     0.169 HD
ENDROOT
BRANCH   2   5
HETATM    5  C   UNL     1     -40.805  53.897 -52.776  1.00  0.00     0.035 A 
HETATM    6  C   UNL     1     -40.118  53.239 -51.753  1.00  0.00     0.030 A 
HETATM    7  C   UNL     1     -39.705  51.907 -51.908  1.00  0.00     0.019 A 
HETATM    8  C   UNL     1     -39.991  51.208 -53.085  1.00  0.00     0.032 A 
HETATM    9  C   UNL     1     -40.683  51.867 -54.108  1.00  0.00     0.019 A 
HETATM   10  C   UNL     1     -41.083  53.200 -53.956  1.00  0.00     0.030 A 
BRANCH   8  11
HETATM   11  C   UNL     1     -39.579  49.795 -53.320  1.00  0.00     0.249 C 
HETATM   12  N   UNL     1     -39.308  49.003 -52.240  1.00  0.00    -0.366 N 
HETATM   13  H   UNL     1     -39.448  49.266 -51.278  1.00  0.00     0.159 HD
HETATM   14  H   UNL     1     -39.069  48.039 -52.436  1.00  0.00     0.159 HD
HETATM   15  O   UNL     1     -39.492  49.336 -54.454  1.00  0.00    -0.268 OA
ENDBRANCH   8  11
ENDBRANCH   2   5
BRANCH   1  16
HETATM   16  C   UNL     1     -41.707  57.507 -53.282  1.00  0.00     0.050 A 
HETATM   17  C   UNL     1     -42.893  57.770 -52.480  1.00  0.00    -0.003 A 
HETATM   18  C   UNL     1     -43.782  56.898 -51.793  1.00  0.00     0.014 A 
HETATM   19  C   UNL     1     -43.152  59.143 -52.388  1.00  0.00     0.016 A 
HETATM   20  C   UNL     1     -44.896  57.396 -51.105  1.00  0.00     0.001 A 
HETATM   21  C   UNL     1     -45.141  58.759 -51.068  1.00  0.00     0.001 A 
HETATM   22  C   UNL     1     -44.272  59.648 -51.698  1.00  0.00     0.019 A 
HETATM   23  S   UNL     1     -41.949  60.074 -53.189  1.00  0.00    -0.100 SA
HETATM   24  C   UNL     1     -41.091  58.686 -53.661  1.00  0.00     0.068 A 
ENDBRANCH   1  16
TORSDOF 3
ENDMDL
MODEL 8
REMARK VINA RESULT:      -7.0      2.106      2.257
REMARK  3 active torsions:
REMARK  status: ('A' for Active; 'I' for Inactive)
REMARK    1  A    between atoms: C_7  and  C_8 
REMARK       I    between atoms: C_8  and  N_9 
REMARK    2  A    between atoms: N_9  and  C_10 
REMARK    3  A    between atoms: C_13  and  C_14 
REMARK       I    between atoms: C_14  and  N_15 
ROOT
HETATM    1  C   UNL     1     -42.246  56.044 -54.236  1.00  0.00     0.257 C 
HETATM    2  N   UNL     1     -40.976  55.538 -54.030  1.00  0.00    -0.323 N 
HETATM    3  O   UNL     1     -43.290  55.408 -54.158  1.00  0.00    -0.267 OA
HETATM    4  H   UNL     1     -40.220  56.211 -54.035  1.00  0.00     0.169 HD
ENDROOT
BRANCH   2   5
HETATM    5  C   UNL     1     -40.612  54.208 -53.736  1.00  0.00     0.035 A 
HETATM    6  C   UNL     1     -40.313  53.245 -54.702  1.00  0.00     0.030 A 
HETATM    7  C   UNL     1     -39.977  51.935 -54.329  1.00  0.00     0.019 A 
HETATM    8  C   UNL     1     -39.918  51.575 -52.979  1.00  0.00     0.032 A 
HETATM    9  C   UNL     1     -40.214  52.542 -52.011  1.00  0.00     0.019 A 
HETATM   10  C   UNL     1     -40.562  53.845 -52.386  1.00  0.00     0.030 A 
BRANCH   8  11
HETATM   11  C   UNL     1     -39.574  50.202 -52.510  1.00  0.00     0.249 C 
HETATM   12  N   UNL     1     -39.356  50.000 -51.176  1.00  0.00    -0.366 N 
HETATM   13  H   UNL     1     -39.495  50.689 -50.455  1.00  0.00     0.159 HD
HETATM   14  H   UNL     1     -39.161  49.049 -50.890  1.00  0.00     0.159 HD
HETATM   15  O   UNL     1     -39.495  49.262 -53.293  1.00  0.00    -0.268 OA
ENDBRANCH   8  11
ENDBRANCH   2   5
BRANCH   1  16
HETATM   16  C   UNL     1     -42.273  57.489 -54.499  1.00  0.00     0.050 A 
HETATM   17  C   UNL     1     -42.403  58.587 -53.552  1.00  0.00    -0.003 A 
HETATM   18  C   UNL     1     -42.467  58.608 -52.132  1.00  0.00     0.014 A 
HETATM   19  C   UNL     1     -42.456  59.822 -54.210  1.00  0.00     0.016 A 
HETATM   20  C   UNL     1     -42.632  59.811 -51.434  1.00  0.00     0.001 A 
HETATM   21  C   UNL     1     -42.720  61.010 -52.120  1.00  0.00     0.001 A 
HETATM   22  C   UNL     1     -42.624  61.035 -53.511  1.00  0.00     0.019 A 
HETATM   23  S   UNL     1     -42.278  59.648 -55.911  1.00  0.00    -0.100 SA
HETATM   24  C   UNL     1     -42.136  57.960 -55.792  1.00  0.00     0.068 A 
ENDBRANCH   1  16
TORSDOF 3
ENDMDL
MODEL 9
REMARK VINA RESULT:      -7.0      4.745      5.460
REMARK  3 active torsions:
REMARK  status: ('A' for Active; 'I' for Inactive)
REMARK    1  A    between atoms: C_7  and  C_8 
REMARK       I    between atoms: C_8  and  N_9 
REMARK    2  A    between atoms: N_9  and  C_10 
REMARK    3  A    between atoms: C_13  and  C_14 
REMARK       I    between atoms: C_14  and  N_15 
ROOT
HETATM    1  C   UNL     1     -42.682  56.049 -56.212  1.00  0.00     0.257 C 
HETATM    2  N   UNL     1     -41.500  55.390 -55.928  1.00  0.00    -0.323 N 
HETATM    3  O   UNL     1     -43.639  56.157 -55.455  1.00  0.00    -0.267 OA
HETATM    4  H   UNL     1     -40.766  55.470 -56.620  1.00  0.00     0.169 HD
ENDROOT
BRANCH   2   5
HETATM    5  C   UNL     1     -41.164  54.684 -54.755  1.00  0.00     0.035 A 
HETATM    6  C   UNL     1     -41.227  55.225 -53.469  1.00  0.00     0.030 A 
HETATM    7  C   UNL     1     -40.857  54.462 -52.351  1.00  0.00     0.019 A 
HETATM    8  C   UNL     1     -40.434  53.138 -52.504  1.00  0.00     0.032 A 
HETATM    9  C   UNL     1     -40.376  52.595 -53.793  1.00  0.00     0.019 A 
HETATM   10  C   UNL     1     -40.734  53.362 -54.908  1.00  0.00     0.030 A 
BRANCH   8  11
HETATM   11  C   UNL     1     -40.022  52.271 -51.363  1.00  0.00     0.249 C 
HETATM   12  N   UNL     1     -39.352  51.110 -51.630  1.00  0.00    -0.366 N 
HETATM   13  H   UNL     1     -39.029  50.823 -52.539  1.00  0.00     0.159 HD
HETATM   14  H   UNL     1     -39.055  50.566 -50.830  1.00  0.00     0.159 HD
HETATM   15  O   UNL     1     -40.262  52.587 -50.203  1.00  0.00    -0.268 OA
ENDBRANCH   8  11
ENDBRANCH   2   5
BRANCH   1  16
HETATM   16  C   UNL     1     -42.692  56.707 -57.525  1.00  0.00     0.050 A 
HETATM   17  C   UNL     1     -42.399  58.094 -57.853  1.00  0.00    -0.003 A 
HETATM   18  C   UNL     1     -41.958  59.183 -57.051  1.00  0.00     0.014 A 
HETATM   19  C   UNL     1     -42.589  58.346 -59.217  1.00  0.00     0.016 A 
HETATM   20  C   UNL     1     -41.777  60.458 -57.599  1.00  0.00     0.001 A 
HETATM   21  C   UNL     1     -42.011  60.679 -58.946  1.00  0.00     0.001 A 
HETATM   22  C   UNL     1     -42.410  59.629 -59.773  1.00  0.00     0.019 A 
HETATM   23  S   UNL     1     -43.034  56.923 -60.073  1.00  0.00    -0.100 SA
HETATM   24  C   UNL     1     -42.985  55.977 -58.663  1.00  0.00     0.068 A 
ENDBRANCH   1  16
TORSDOF 3
ENDMDL
MODEL 10
REMARK VINA RESULT:      -7.0      3.652      8.066
REMARK  3 active torsions:
REMARK  status: ('A' for Active; 'I' for Inactive)
REMARK    1  A    between atoms: C_7  and  C_8 
REMARK       I    between atoms: C_8  and  N_9 
REMARK    2  A    between atoms: N_9  and  C_10 
REMARK    3  A    between atoms: C_13  and  C_14 
REMARK       I    between atoms: C_14  and  N_15 
ROOT
HETATM    1  C   UNL     1     -41.711  56.061 -51.287  1.00  0.00     0.257 C 
HETATM    2  N   UNL     1     -42.993  56.140 -51.800  1.00  0.00    -0.323 N 
HETATM    3  O   UNL     1     -41.092  56.981 -50.768  1.00  0.00    -0.267 OA
HETATM    4  H   UNL     1     -43.405  55.269 -52.109  1.00  0.00     0.169 HD
ENDROOT
BRANCH   2   5
HETATM    5  C   UNL     1     -43.827  57.274 -51.874  1.00  0.00     0.035 A 
HETATM    6  C   UNL     1     -44.808  57.588 -50.932  1.00  0.00     0.030 A 
HETATM    7  C   UNL     1     -45.612  58.727 -51.085  1.00  0.00     0.019 A 
HETATM    8  C   UNL     1     -45.432  59.580 -52.179  1.00  0.00     0.032 A 
HETATM    9  C   UNL     1     -44.445  59.267 -53.121  1.00  0.00     0.019 A 
HETATM   10  C   UNL     1     -43.652  58.123 -52.972  1.00  0.00     0.030 A 
BRANCH   8  11
HETATM   11  C   UNL     1     -46.252  60.804 -52.408  1.00  0.00     0.249 C 
HETATM   12  N   UNL     1     -46.604  61.127 -53.689  1.00  0.00    -0.366 N 
HETATM   13  H   UNL     1     -46.431  60.555 -54.499  1.00  0.00     0.159 HD
HETATM   14  H   UNL     1     -47.192  61.943 -53.804  1.00  0.00     0.159 HD
HETATM   15  O   UNL     1     -46.619  61.510 -51.475  1.00  0.00    -0.268 OA
ENDBRANCH   8  11
ENDBRANCH   2   5
BRANCH   1  16
HETATM   16  C   UNL     1     -41.133  54.712 -51.343  1.00  0.00     0.050 A 
HETATM   17  C   UNL     1     -40.713  53.947 -52.508  1.00  0.00    -0.003 A 
HETATM   18  C   UNL     1     -40.662  54.279 -53.890  1.00  0.00     0.014 A 
HETATM   19  C   UNL     1     -40.276  52.667 -52.146  1.00  0.00     0.016 A 
HETATM   20  C   UNL     1     -40.246  53.343 -54.844  1.00  0.00     0.001 A 
HETATM   21  C   UNL     1     -39.857  52.072 -54.453  1.00  0.00     0.001 A 
HETATM   22  C   UNL     1     -39.858  51.720 -53.104  1.00  0.00     0.019 A 
HETATM   23  S   UNL     1     -40.309  52.440 -50.442  1.00  0.00    -0.100 SA
HETATM   24  C   UNL     1     -40.898  54.010 -50.175  1.00  0.00     0.068 A 
ENDBRANCH   1  16
TORSDOF 3
ENDMDL
