MODEL 1
REMARK VINA RESULT:      -8.9      0.000      0.000
REMARK  5 active torsions:
REMARK  status: ('A' for Active; 'I' for Inactive)
REMARK    1  A    between atoms: C_4  and  C_5 
REMARK    2  A    between atoms: C_13  and  C_14 
REMARK       I    between atoms: C_14  and  N_15 
REMARK    3  A    between atoms: N_15  and  C_16 
REMARK    4  A    between atoms: C_17  and  N_18 
REMARK    5  A    between atoms: C_21  and  O_22 
ROOT
HETATM    1  C   UNL     1     -42.476  57.468 -54.368  1.00  0.00     0.258 C 
HETATM    2  N   UNL     1     -41.873  58.449 -55.118  1.00  0.00    -0.321 N 
HETATM    3  O   UNL     1     -43.599  57.496 -53.876  1.00  0.00    -0.267 OA
HETATM    4  H   UNL     1     -40.863  58.472 -55.225  1.00  0.00     0.169 HD
ENDROOT
BRANCH   2   5
HETATM    5  C   UNL     1     -42.541  59.519 -55.764  1.00  0.00     0.056 A 
HETATM    6  C   UNL     1     -43.056  59.286 -57.065  1.00  0.00     0.037 A 
HETATM    7  C   UNL     1     -43.835  60.300 -57.653  1.00  0.00     0.026 A 
HETATM    8  C   UNL     1     -44.082  61.504 -56.987  1.00  0.00     0.002 A 
HETATM    9  C   UNL     1     -43.544  61.726 -55.724  1.00  0.00     0.002 A 
HETATM   10  C   UNL     1     -42.774  60.737 -55.116  1.00  0.00     0.031 A 
BRANCH   6  11
HETATM   11  N   UNL     1     -42.698  58.085 -57.756  1.00  0.00    -0.281 NA
HETATM   12  C   UNL     1     -42.233  58.444 -59.118  1.00  0.00     0.098 C 
HETATM   13  C   UNL     1     -41.648  57.208 -59.803  1.00  0.00     0.046 C 
HETATM   14  C   UNL     1     -42.649  56.055 -59.827  1.00  0.00     0.120 C 
HETATM   15  C   UNL     1     -43.201  55.776 -58.431  1.00  0.00     0.046 C 
HETATM   16  C   UNL     1     -43.753  57.050 -57.794  1.00  0.00     0.098 C 
BRANCH  14  17
HETATM   17  O   UNL     1     -43.731  56.363 -60.707  1.00  0.00    -0.395 OA
HETATM   18  H   UNL     1     -43.755  55.677 -61.397  1.00  0.00     0.210 HD
ENDBRANCH  14  17
ENDBRANCH   6  11
ENDBRANCH   2   5
BRANCH   1  19
HETATM   19  C   UNL     1     -41.692  56.240 -54.183  1.00  0.00     0.056 A 
HETATM   20  C   UNL     1     -41.265  55.808 -52.934  1.00  0.00     0.047 A 
HETATM   21  C   UNL     1     -41.387  56.674 -51.715  1.00  0.00     0.071 C 
HETATM   22  N   UNL     1     -40.742  54.565 -52.744  1.00  0.00    -0.252 NA
HETATM   23  C   UNL     1     -40.669  53.704 -53.798  1.00  0.00     0.067 A 
HETATM   24  C   UNL     1     -41.054  54.103 -55.078  1.00  0.00     0.033 A 
HETATM   25  C   UNL     1     -41.568  55.383 -55.273  1.00  0.00     0.021 A 
BRANCH  23  26
HETATM   26  C   UNL     1     -40.252  52.315 -53.477  1.00  0.00    -0.007 A 
HETATM   27  C   UNL     1     -39.836  51.976 -52.174  1.00  0.00     0.014 A 
HETATM   28  C   UNL     1     -39.501  50.663 -51.824  1.00  0.00     0.001 A 
HETATM   29  C   UNL     1     -39.570  49.651 -52.774  1.00  0.00     0.000 A 
HETATM   30  C   UNL     1     -39.961  49.955 -54.074  1.00  0.00     0.001 A 
HETATM   31  C   UNL     1     -40.292  51.271 -54.421  1.00  0.00     0.014 A 
ENDBRANCH  23  26
ENDBRANCH   1  19
TORSDOF 5
ENDMDL
MODEL 2
REMARK VINA RESULT:      -8.6      2.280      3.388
REMARK  5 active torsions:
REMARK  status: ('A' for Active; 'I' for Inactive)
REMARK    1  A    between atoms: C_4  and  C_5 
REMARK    2  A    between atoms: C_13  and  C_14 
REMARK       I    between atoms: C_14  and  N_15 
REMARK    3  A    between atoms: N_15  and  C_16 
REMARK    4  A    between atoms: C_17  and  N_18 
REMARK    5  A    between atoms: C_21  and  O_22 
ROOT
HETATM    1  C   UNL     1     -42.319  57.233 -51.285  1.00  0.00     0.258 C 
HETATM    2  N   UNL     1     -41.658  58.432 -51.400  1.00  0.00    -0.321 N 
HETATM    3  O   UNL     1     -43.477  57.058 -50.921  1.00  0.00    -0.267 OA
HETATM    4  H   UNL     1     -40.642  58.465 -51.413  1.00  0.00     0.169 HD
ENDROOT
BRANCH   2   5
HETATM    5  C   UNL     1     -42.270  59.709 -51.465  1.00  0.00     0.056 A 
HETATM    6  C   UNL     1     -43.010  60.026 -52.633  1.00  0.00     0.037 A 
HETATM    7  C   UNL     1     -43.731  61.234 -52.644  1.00  0.00     0.026 A 
HETATM    8  C   UNL     1     -43.707  62.103 -51.549  1.00  0.00     0.002 A 
HETATM    9  C   UNL     1     -42.953  61.789 -50.425  1.00  0.00     0.002 A 
HETATM   10  C   UNL     1     -42.235  60.597 -50.385  1.00  0.00     0.031 A 
BRANCH   6  11
HETATM   11  N   UNL     1     -42.929  59.163 -53.771  1.00  0.00    -0.281 NA
HETATM   12  C   UNL     1     -42.374  59.933 -54.911  1.00  0.00     0.098 C 
HETATM   13  C   UNL     1     -42.081  58.987 -56.076  1.00  0.00     0.046 C 
HETATM   14  C   UNL     1     -43.319  58.189 -56.476  1.00  0.00     0.120 C 
HETATM   15  C   UNL     1     -43.940  57.494 -55.266  1.00  0.00     0.046 C 
HETATM   16  C   UNL     1     -44.193  58.486 -54.133  1.00  0.00     0.098 C 
BRANCH  14  17
HETATM   17  O   UNL     1     -44.288  59.053 -57.070  1.00  0.00    -0.395 OA
HETATM   18  H   UNL     1     -43.867  59.920 -57.205  1.00  0.00     0.210 HD
ENDBRANCH  14  17
ENDBRANCH   6  11
ENDBRANCH   2   5
BRANCH   1  19
HETATM   19  C   UNL     1     -41.554  56.046 -51.689  1.00  0.00     0.056 A 
HETATM   20  C   UNL     1     -41.068  55.124 -50.771  1.00  0.00     0.047 A 
HETATM   21  C   UNL     1     -41.102  55.386 -49.295  1.00  0.00     0.071 C 
HETATM   22  N   UNL     1     -40.563  53.920 -51.161  1.00  0.00    -0.252 NA
HETATM   23  C   UNL     1     -40.570  53.592 -52.484  1.00  0.00     0.067 A 
HETATM   24  C   UNL     1     -41.017  54.498 -53.446  1.00  0.00     0.033 A 
HETATM   25  C   UNL     1     -41.511  55.737 -53.045  1.00  0.00     0.021 A 
BRANCH  23  26
HETATM   26  C   UNL     1     -40.168  52.200 -52.811  1.00  0.00    -0.007 A 
HETATM   27  C   UNL     1     -39.719  51.328 -51.799  1.00  0.00     0.014 A 
HETATM   28  C   UNL     1     -39.397  49.992 -52.065  1.00  0.00     0.001 A 
HETATM   29  C   UNL     1     -39.511  49.493 -53.357  1.00  0.00     0.000 A 
HETATM   30  C   UNL     1     -39.934  50.332 -54.382  1.00  0.00     0.001 A 
HETATM   31  C   UNL     1     -40.253  51.669 -54.112  1.00  0.00     0.014 A 
ENDBRANCH  23  26
ENDBRANCH   1  19
TORSDOF 5
ENDMDL
MODEL 3
REMARK VINA RESULT:      -8.5      1.430      1.796
REMARK  5 active torsions:
REMARK  status: ('A' for Active; 'I' for Inactive)
REMARK    1  A    between atoms: C_4  and  C_5 
REMARK    2  A    between atoms: C_13  and  C_14 
REMARK       I    between atoms: C_14  and  N_15 
REMARK    3  A    between atoms: N_15  and  C_16 
REMARK    4  A    between atoms: C_17  and  N_18 
REMARK    5  A    between atoms: C_21  and  O_22 
ROOT
HETATM    1  C   UNL     1     -41.612  57.489 -54.281  1.00  0.00     0.258 C 
HETATM    2  N   UNL     1     -42.884  57.419 -54.796  1.00  0.00    -0.321 N 
HETATM    3  O   UNL     1     -40.953  58.501 -54.067  1.00  0.00    -0.267 OA
HETATM    4  H   UNL     1     -43.228  56.559 -55.213  1.00  0.00     0.169 HD
ENDROOT
BRANCH   2   5
HETATM    5  C   UNL     1     -43.811  58.489 -54.849  1.00  0.00     0.056 A 
HETATM    6  C   UNL     1     -44.237  58.930 -56.129  1.00  0.00     0.037 A 
HETATM    7  C   UNL     1     -45.258  59.897 -56.183  1.00  0.00     0.026 A 
HETATM    8  C   UNL     1     -45.822  60.422 -55.017  1.00  0.00     0.002 A 
HETATM    9  C   UNL     1     -45.370  60.001 -53.771  1.00  0.00     0.002 A 
HETATM   10  C   UNL     1     -44.366  59.039 -53.689  1.00  0.00     0.031 A 
BRANCH   6  11
HETATM   11  N   UNL     1     -43.567  58.445 -57.297  1.00  0.00    -0.281 NA
HETATM   12  C   UNL     1     -43.314  59.590 -58.206  1.00  0.00     0.098 C 
HETATM   13  C   UNL     1     -42.417  59.140 -59.360  1.00  0.00     0.046 C 
HETATM   14  C   UNL     1     -43.012  57.945 -60.099  1.00  0.00     0.120 C 
HETATM   15  C   UNL     1     -43.369  56.820 -59.130  1.00  0.00     0.046 C 
HETATM   16  C   UNL     1     -44.251  57.334 -57.993  1.00  0.00     0.098 C 
BRANCH  14  17
HETATM   17  O   UNL     1     -44.185  58.342 -60.810  1.00  0.00    -0.395 OA
HETATM   18  H   UNL     1     -44.858  58.593 -60.153  1.00  0.00     0.210 HD
ENDBRANCH  14  17
ENDBRANCH   6  11
ENDBRANCH   2   5
BRANCH   1  19
HETATM   19  C   UNL     1     -41.007  56.202 -53.911  1.00  0.00     0.056 A 
HETATM   20  C   UNL     1     -41.146  55.650 -52.644  1.00  0.00     0.047 A 
HETATM   21  C   UNL     1     -41.737  56.426 -51.505  1.00  0.00     0.071 C 
HETATM   22  N   UNL     1     -40.782  54.365 -52.377  1.00  0.00    -0.252 NA
HETATM   23  C   UNL     1     -40.304  53.584 -53.386  1.00  0.00     0.067 A 
HETATM   24  C   UNL     1     -40.115  54.103 -54.667  1.00  0.00     0.033 A 
HETATM   25  C   UNL     1     -40.467  55.425 -54.931  1.00  0.00     0.021 A 
BRANCH  23  26
HETATM   26  C   UNL     1     -40.095  52.151 -53.057  1.00  0.00    -0.007 A 
HETATM   27  C   UNL     1     -40.131  51.171 -54.070  1.00  0.00     0.014 A 
HETATM   28  C   UNL     1     -39.873  49.822 -53.802  1.00  0.00     0.001 A 
HETATM   29  C   UNL     1     -39.574  49.415 -52.507  1.00  0.00     0.000 A 
HETATM   30  C   UNL     1     -39.546  50.354 -51.481  1.00  0.00     0.001 A 
HETATM   31  C   UNL     1     -39.808  51.703 -51.753  1.00  0.00     0.014 A 
ENDBRANCH  23  26
ENDBRANCH   1  19
TORSDOF 5
ENDMDL
MODEL 4
REMARK VINA RESULT:      -8.4      2.443      3.536
REMARK  5 active torsions:
REMARK  status: ('A' for Active; 'I' for Inactive)
REMARK    1  A    between atoms: C_4  and  C_5 
REMARK    2  A    between atoms: C_13  and  C_14 
REMARK       I    between atoms: C_14  and  N_15 
REMARK    3  A    between atoms: N_15  and  C_16 
REMARK    4  A    between atoms: C_17  and  N_18 
REMARK    5  A    between atoms: C_21  and  O_22 
ROOT
HETATM    1  C   UNL     1     -42.060  57.538 -52.646  1.00  0.00     0.258 C 
HETATM    2  N   UNL     1     -43.423  57.478 -52.810  1.00  0.00    -0.321 N 
HETATM    3  O   UNL     1     -41.384  58.537 -52.424  1.00  0.00    -0.267 OA
HETATM    4  H   UNL     1     -43.854  56.686 -53.278  1.00  0.00     0.169 HD
ENDROOT
BRANCH   2   5
HETATM    5  C   UNL     1     -44.346  58.478 -52.412  1.00  0.00     0.056 A 
HETATM    6  C   UNL     1     -44.798  59.389 -53.401  1.00  0.00     0.037 A 
HETATM    7  C   UNL     1     -45.814  60.294 -53.043  1.00  0.00     0.026 A 
HETATM    8  C   UNL     1     -46.350  60.309 -51.752  1.00  0.00     0.002 A 
HETATM    9  C   UNL     1     -45.873  59.428 -50.787  1.00  0.00     0.002 A 
HETATM   10  C   UNL     1     -44.872  58.518 -51.117  1.00  0.00     0.031 A 
BRANCH   6  11
HETATM   11  N   UNL     1     -44.156  59.412 -54.680  1.00  0.00    -0.281 NA
HETATM   12  C   UNL     1     -43.233  60.573 -54.724  1.00  0.00     0.098 C 
HETATM   13  C   UNL     1     -42.381  60.503 -55.993  1.00  0.00     0.046 C 
HETATM   14  C   UNL     1     -43.249  60.415 -57.246  1.00  0.00     0.120 C 
HETATM   15  C   UNL     1     -44.268  59.284 -57.132  1.00  0.00     0.046 C 
HETATM   16  C   UNL     1     -45.074  59.399 -55.839  1.00  0.00     0.098 C 
BRANCH  14  17
HETATM   17  O   UNL     1     -43.938  61.649 -57.453  1.00  0.00    -0.395 OA
HETATM   18  H   UNL     1     -43.725  62.234 -56.705  1.00  0.00     0.210 HD
ENDBRANCH  14  17
ENDBRANCH   6  11
ENDBRANCH   2   5
BRANCH   1  19
HETATM   19  C   UNL     1     -41.358  56.249 -52.699  1.00  0.00     0.056 A 
HETATM   20  C   UNL     1     -41.192  55.443 -51.580  1.00  0.00     0.047 A 
HETATM   21  C   UNL     1     -41.525  55.928 -50.201  1.00  0.00     0.071 C 
HETATM   22  N   UNL     1     -40.748  54.159 -51.680  1.00  0.00    -0.252 NA
HETATM   23  C   UNL     1     -40.496  53.635 -52.913  1.00  0.00     0.067 A 
HETATM   24  C   UNL     1     -40.616  54.415 -54.063  1.00  0.00     0.033 A 
HETATM   25  C   UNL     1     -41.049  55.735 -53.955  1.00  0.00     0.021 A 
BRANCH  23  26
HETATM   26  C   UNL     1     -40.185  52.183 -52.951  1.00  0.00    -0.007 A 
HETATM   27  C   UNL     1     -40.230  51.473 -54.168  1.00  0.00     0.014 A 
HETATM   28  C   UNL     1     -39.879  50.121 -54.248  1.00  0.00     0.001 A 
HETATM   29  C   UNL     1     -39.476  49.438 -53.106  1.00  0.00     0.000 A 
HETATM   30  C   UNL     1     -39.437  50.105 -51.886  1.00  0.00     0.001 A 
HETATM   31  C   UNL     1     -39.793  51.458 -51.810  1.00  0.00     0.014 A 
ENDBRANCH  23  26
ENDBRANCH   1  19
TORSDOF 5
ENDMDL
MODEL 5
REMARK VINA RESULT:      -8.0      2.111      4.445
REMARK  5 active torsions:
REMARK  status: ('A' for Active; 'I' for Inactive)
REMARK    1  A    between atoms: C_4  and  C_5 
REMARK    2  A    between atoms: C_13  and  C_14 
REMARK       I    between atoms: C_14  and  N_15 
REMARK    3  A    between atoms: N_15  and  C_16 
REMARK    4  A    between atoms: C_17  and  N_18 
REMARK    5  A    between atoms: C_21  and  O_22 
ROOT
HETATM    1  C   UNL     1     -42.582  57.169 -54.696  1.00  0.00     0.258 C 
HETATM    2  N   UNL     1     -41.916  58.370 -54.672  1.00  0.00    -0.321 N 
HETATM    3  O   UNL     1     -43.746  56.973 -55.029  1.00  0.00    -0.267 OA
HETATM    4  H   UNL     1     -41.076  58.486 -54.112  1.00  0.00     0.169 HD
ENDROOT
BRANCH   2   5
HETATM    5  C   UNL     1     -42.317  59.549 -55.350  1.00  0.00     0.056 A 
HETATM    6  C   UNL     1     -43.037  60.522 -54.611  1.00  0.00     0.037 A 
HETATM    7  C   UNL     1     -43.317  61.748 -55.241  1.00  0.00     0.026 A 
HETATM    8  C   UNL     1     -42.916  61.996 -56.557  1.00  0.00     0.002 A 
HETATM    9  C   UNL     1     -42.237  61.019 -57.276  1.00  0.00     0.002 A 
HETATM   10  C   UNL     1     -41.940  59.798 -56.674  1.00  0.00     0.031 A 
BRANCH   6  11
HETATM   11  N   UNL     1     -43.520  60.195 -53.304  1.00  0.00    -0.281 NA
HETATM   12  C   UNL     1     -44.994  60.364 -53.288  1.00  0.00     0.098 C 
HETATM   13  C   UNL     1     -45.559  59.822 -51.974  1.00  0.00     0.046 C 
HETATM   14  C   UNL     1     -44.896  60.480 -50.767  1.00  0.00     0.120 C 
HETATM   15  C   UNL     1     -43.374  60.393 -50.859  1.00  0.00     0.046 C 
HETATM   16  C   UNL     1     -42.873  60.932 -52.197  1.00  0.00     0.098 C 
BRANCH  14  17
HETATM   17  O   UNL     1     -45.284  61.851 -50.680  1.00  0.00    -0.395 OA
HETATM   18  H   UNL     1     -45.025  62.176 -49.800  1.00  0.00     0.210 HD
ENDBRANCH  14  17
ENDBRANCH   6  11
ENDBRANCH   2   5
BRANCH   1  19
HETATM   19  C   UNL     1     -41.783  55.994 -54.323  1.00  0.00     0.056 A 
HETATM   20  C   UNL     1     -41.715  55.522 -53.018  1.00  0.00     0.047 A 
HETATM   21  C   UNL     1     -42.275  56.302 -51.866  1.00  0.00     0.071 C 
HETATM   22  N   UNL     1     -41.164  54.312 -52.720  1.00  0.00    -0.252 NA
HETATM   23  C   UNL     1     -40.701  53.523 -53.731  1.00  0.00     0.067 A 
HETATM   24  C   UNL     1     -40.718  53.967 -55.053  1.00  0.00     0.033 A 
HETATM   25  C   UNL     1     -41.261  55.215 -55.352  1.00  0.00     0.021 A 
BRANCH  23  26
HETATM   26  C   UNL     1     -40.278  52.153 -53.345  1.00  0.00    -0.007 A 
HETATM   27  C   UNL     1     -40.214  51.126 -54.308  1.00  0.00     0.014 A 
HETATM   28  C   UNL     1     -39.756  49.842 -53.990  1.00  0.00     0.001 A 
HETATM   29  C   UNL     1     -39.354  49.550 -52.692  1.00  0.00     0.000 A 
HETATM   30  C   UNL     1     -39.421  50.536 -51.713  1.00  0.00     0.001 A 
HETATM   31  C   UNL     1     -39.882  51.818 -52.036  1.00  0.00     0.014 A 
ENDBRANCH  23  26
ENDBRANCH   1  19
TORSDOF 5
ENDMDL
MODEL 6
REMARK VINA RESULT:      -7.8      1.664      2.128
REMARK  5 active torsions:
REMARK  status: ('A' for Active; 'I' for Inactive)
REMARK    1  A    between atoms: C_4  and  C_5 
REMARK    2  A    between atoms: C_13  and  C_14 
REMARK       I    between atoms: C_14  and  N_15 
REMARK    3  A    between atoms: N_15  and  C_16 
REMARK    4  A    between atoms: C_17  and  N_18 
REMARK    5  A    between atoms: C_21  and  O_22 
ROOT
HETATM    1  C   UNL     1     -42.525  57.358 -54.708  1.00  0.00     0.258 C 
HETATM    2  N   UNL     1     -43.837  57.594 -55.041  1.00  0.00    -0.321 N 
HETATM    3  O   UNL     1     -41.603  58.168 -54.711  1.00  0.00    -0.267 OA
HETATM    4  H   UNL     1     -44.452  56.827 -55.299  1.00  0.00     0.169 HD
ENDROOT
BRANCH   2   5
HETATM    5  C   UNL     1     -44.454  58.868 -55.109  1.00  0.00     0.056 A 
HETATM    6  C   UNL     1     -44.820  59.356 -56.390  1.00  0.00     0.037 A 
HETATM    7  C   UNL     1     -45.553  60.555 -56.449  1.00  0.00     0.026 A 
HETATM    8  C   UNL     1     -45.897  61.254 -55.288  1.00  0.00     0.002 A 
HETATM    9  C   UNL     1     -45.505  60.775 -54.044  1.00  0.00     0.002 A 
HETATM   10  C   UNL     1     -44.783  59.587 -53.955  1.00  0.00     0.031 A 
BRANCH   6  11
HETATM   11  N   UNL     1     -44.363  58.669 -57.559  1.00  0.00    -0.281 NA
HETATM   12  C   UNL     1     -43.425  59.554 -58.292  1.00  0.00     0.098 C 
HETATM   13  C   UNL     1     -42.761  58.773 -59.427  1.00  0.00     0.046 C 
HETATM   14  C   UNL     1     -43.798  58.146 -60.356  1.00  0.00     0.120 C 
HETATM   15  C   UNL     1     -44.821  57.330 -59.569  1.00  0.00     0.046 C 
HETATM   16  C   UNL     1     -45.434  58.159 -58.442  1.00  0.00     0.098 C 
BRANCH  14  17
HETATM   17  O   UNL     1     -44.476  59.165 -61.092  1.00  0.00    -0.395 OA
HETATM   18  H   UNL     1     -45.202  59.497 -60.535  1.00  0.00     0.210 HD
ENDBRANCH  14  17
ENDBRANCH   6  11
ENDBRANCH   2   5
BRANCH   1  19
HETATM   19  C   UNL     1     -42.220  55.993 -54.259  1.00  0.00     0.056 A 
HETATM   20  C   UNL     1     -42.286  54.897 -55.109  1.00  0.00     0.047 A 
HETATM   21  C   UNL     1     -42.879  54.996 -56.483  1.00  0.00     0.071 C 
HETATM   22  N   UNL     1     -41.786  53.680 -54.751  1.00  0.00    -0.252 NA
HETATM   23  C   UNL     1     -41.170  53.542 -53.544  1.00  0.00     0.067 A 
HETATM   24  C   UNL     1     -41.109  54.605 -52.643  1.00  0.00     0.033 A 
HETATM   25  C   UNL     1     -41.641  55.842 -53.003  1.00  0.00     0.021 A 
BRANCH  23  26
HETATM   26  C   UNL     1     -40.500  52.239 -53.301  1.00  0.00    -0.007 A 
HETATM   27  C   UNL     1     -39.980  51.927 -52.028  1.00  0.00     0.014 A 
HETATM   28  C   UNL     1     -39.403  50.683 -51.751  1.00  0.00     0.001 A 
HETATM   29  C   UNL     1     -39.326  49.715 -52.744  1.00  0.00     0.000 A 
HETATM   30  C   UNL     1     -39.815  49.996 -54.016  1.00  0.00     0.001 A 
HETATM   31  C   UNL     1     -40.389  51.244 -54.291  1.00  0.00     0.014 A 
ENDBRANCH  23  26
ENDBRANCH   1  19
TORSDOF 5
ENDMDL
MODEL 7
REMARK VINA RESULT:      -7.8     16.360     18.906
REMARK  5 active torsions:
REMARK  status: ('A' for Active; 'I' for Inactive)
REMARK    1  A    between atoms: C_4  and  C_5 
REMARK    2  A    between atoms: C_13  and  C_14 
REMARK       I    between atoms: C_14  and  N_15 
REMARK    3  A    between atoms: N_15  and  C_16 
REMARK    4  A    between atoms: C_17  and  N_18 
REMARK    5  A    between atoms: C_21  and  O_22 
ROOT
HETATM    1  C   UNL     1     -35.910  41.491 -54.483  1.00  0.00     0.258 C 
HETATM    2  N   UNL     1     -35.535  40.366 -53.789  1.00  0.00    -0.321 N 
HETATM    3  O   UNL     1     -35.775  42.658 -54.130  1.00  0.00    -0.267 OA
HETATM    4  H   UNL     1     -35.946  39.462 -54.007  1.00  0.00     0.169 HD
ENDROOT
BRANCH   2   5
HETATM    5  C   UNL     1     -34.614  40.330 -52.712  1.00  0.00     0.056 A 
HETATM    6  C   UNL     1     -33.267  39.996 -53.008  1.00  0.00     0.037 A 
HETATM    7  C   UNL     1     -32.325  40.092 -51.967  1.00  0.00     0.026 A 
HETATM    8  C   UNL     1     -32.703  40.486 -50.680  1.00  0.00     0.002 A 
HETATM    9  C   UNL     1     -34.033  40.781 -50.402  1.00  0.00     0.002 A 
HETATM   10  C   UNL     1     -34.986  40.700 -51.415  1.00  0.00     0.031 A 
BRANCH   6  11
HETATM   11  N   UNL     1     -32.937  39.499 -54.308  1.00  0.00    -0.281 NA
HETATM   12  C   UNL     1     -33.088  38.023 -54.304  1.00  0.00     0.098 C 
HETATM   13  C   UNL     1     -32.946  37.488 -55.729  1.00  0.00     0.046 C 
HETATM   14  C   UNL     1     -31.628  37.925 -56.362  1.00  0.00     0.120 C 
HETATM   15  C   UNL     1     -31.440  39.436 -56.256  1.00  0.00     0.046 C 
HETATM   16  C   UNL     1     -31.609  39.911 -54.814  1.00  0.00     0.098 C 
BRANCH  14  17
HETATM   17  O   UNL     1     -30.534  37.269 -55.720  1.00  0.00    -0.395 OA
HETATM   18  H   UNL     1     -30.019  37.948 -55.249  1.00  0.00     0.210 HD
ENDBRANCH  14  17
ENDBRANCH   6  11
ENDBRANCH   2   5
BRANCH   1  19
HETATM   19  C   UNL     1     -36.494  41.253 -55.809  1.00  0.00     0.056 A 
HETATM   20  C   UNL     1     -35.721  41.170 -56.960  1.00  0.00     0.047 A 
HETATM   21  C   UNL     1     -34.266  41.532 -56.962  1.00  0.00     0.071 C 
HETATM   22  N   UNL     1     -36.237  40.725 -58.141  1.00  0.00    -0.252 NA
HETATM   23  C   UNL     1     -37.535  40.313 -58.188  1.00  0.00     0.067 A 
HETATM   24  C   UNL     1     -38.360  40.408 -57.067  1.00  0.00     0.033 A 
HETATM   25  C   UNL     1     -37.835  40.884 -55.867  1.00  0.00     0.021 A 
BRANCH  23  26
HETATM   26  C   UNL     1     -37.971  39.681 -59.459  1.00  0.00    -0.007 A 
HETATM   27  C   UNL     1     -37.263  39.915 -60.655  1.00  0.00     0.014 A 
HETATM   28  C   UNL     1     -37.609  39.282 -61.854  1.00  0.00     0.001 A 
HETATM   29  C   UNL     1     -38.681  38.398 -61.890  1.00  0.00     0.000 A 
HETATM   30  C   UNL     1     -39.411  38.157 -60.731  1.00  0.00     0.001 A 
HETATM   31  C   UNL     1     -39.063  38.795 -59.533  1.00  0.00     0.014 A 
ENDBRANCH  23  26
ENDBRANCH   1  19
TORSDOF 5
ENDMDL
MODEL 8
REMARK VINA RESULT:      -7.6      1.226      1.869
REMARK  5 active torsions:
REMARK  status: ('A' for Active; 'I' for Inactive)
REMARK    1  A    between atoms: C_4  and  C_5 
REMARK    2  A    between atoms: C_13  and  C_14 
REMARK       I    between atoms: C_14  and  N_15 
REMARK    3  A    between atoms: N_15  and  C_16 
REMARK    4  A    between atoms: C_17  and  N_18 
REMARK    5  A    between atoms: C_21  and  O_22 
ROOT
HETATM    1  C   UNL     1     -43.009  59.092 -54.644  1.00  0.00     0.258 C 
HETATM    2  N   UNL     1     -42.395  59.513 -55.799  1.00  0.00    -0.321 N 
HETATM    3  O   UNL     1     -43.936  59.639 -54.056  1.00  0.00    -0.267 OA
HETATM    4  H   UNL     1     -41.467  59.179 -56.043  1.00  0.00     0.169 HD
ENDROOT
BRANCH   2   5
HETATM    5  C   UNL     1     -42.927  60.449 -56.721  1.00  0.00     0.056 A 
HETATM    6  C   UNL     1     -43.371  59.959 -57.976  1.00  0.00     0.037 A 
HETATM    7  C   UNL     1     -44.023  60.860 -58.837  1.00  0.00     0.026 A 
HETATM    8  C   UNL     1     -44.212  62.198 -58.480  1.00  0.00     0.002 A 
HETATM    9  C   UNL     1     -43.743  62.667 -57.259  1.00  0.00     0.002 A 
HETATM   10  C   UNL     1     -43.100  61.795 -56.383  1.00  0.00     0.031 A 
BRANCH   6  11
HETATM   11  N   UNL     1     -43.070  58.611 -58.349  1.00  0.00    -0.281 NA
HETATM   12  C   UNL     1     -42.488  58.616 -59.714  1.00  0.00     0.098 C 
HETATM   13  C   UNL     1     -41.965  57.220 -60.054  1.00  0.00     0.046 C 
HETATM   14  C   UNL     1     -43.053  56.161 -59.903  1.00  0.00     0.120 C 
HETATM   15  C   UNL     1     -43.717  56.246 -58.530  1.00  0.00     0.046 C 
HETATM   16  C   UNL     1     -44.202  57.665 -58.241  1.00  0.00     0.098 C 
BRANCH  14  17
HETATM   17  O   UNL     1     -44.046  56.330 -60.915  1.00  0.00    -0.395 OA
HETATM   18  H   UNL     1     -44.431  55.455 -61.099  1.00  0.00     0.210 HD
ENDBRANCH  14  17
ENDBRANCH   6  11
ENDBRANCH   2   5
BRANCH   1  19
HETATM   19  C   UNL     1     -42.520  57.821 -54.093  1.00  0.00     0.056 A 
HETATM   20  C   UNL     1     -43.232  56.634 -54.208  1.00  0.00     0.047 A 
HETATM   21  C   UNL     1     -44.645  56.607 -54.709  1.00  0.00     0.071 C 
HETATM   22  N   UNL     1     -42.674  55.430 -53.901  1.00  0.00    -0.252 NA
HETATM   23  C   UNL     1     -41.370  55.379 -53.508  1.00  0.00     0.067 A 
HETATM   24  C   UNL     1     -40.624  56.547 -53.346  1.00  0.00     0.033 A 
HETATM   25  C   UNL     1     -41.204  57.779 -53.639  1.00  0.00     0.021 A 
BRANCH  23  26
HETATM   26  C   UNL     1     -40.787  54.022 -53.361  1.00  0.00    -0.007 A 
HETATM   27  C   UNL     1     -40.385  53.548 -52.096  1.00  0.00     0.014 A 
HETATM   28  C   UNL     1     -39.893  52.250 -51.915  1.00  0.00     0.001 A 
HETATM   29  C   UNL     1     -39.786  51.390 -53.001  1.00  0.00     0.000 A 
HETATM   30  C   UNL     1     -40.158  51.832 -54.267  1.00  0.00     0.001 A 
HETATM   31  C   UNL     1     -40.647  53.132 -54.443  1.00  0.00     0.014 A 
ENDBRANCH  23  26
ENDBRANCH   1  19
TORSDOF 5
ENDMDL
MODEL 9
REMARK VINA RESULT:      -7.4      3.549      9.075
REMARK  5 active torsions:
REMARK  status: ('A' for Active; 'I' for Inactive)
REMARK    1  A    between atoms: C_4  and  C_5 
REMARK    2  A    between atoms: C_13  and  C_14 
REMARK       I    between atoms: C_14  and  N_15 
REMARK    3  A    between atoms: N_15  and  C_16 
REMARK    4  A    between atoms: C_17  and  N_18 
REMARK    5  A    between atoms: C_21  and  O_22 
ROOT
HETATM    1  C   UNL     1     -42.872  55.905 -53.661  1.00  0.00     0.258 C 
HETATM    2  N   UNL     1     -41.536  55.626 -53.502  1.00  0.00    -0.321 N 
HETATM    3  O   UNL     1     -43.700  55.242 -54.277  1.00  0.00    -0.267 OA
HETATM    4  H   UNL     1     -40.881  56.359 -53.245  1.00  0.00     0.169 HD
ENDROOT
BRANCH   2   5
HETATM    5  C   UNL     1     -40.927  54.363 -53.710  1.00  0.00     0.056 A 
HETATM    6  C   UNL     1     -40.562  53.611 -52.564  1.00  0.00     0.037 A 
HETATM    7  C   UNL     1     -40.084  52.303 -52.764  1.00  0.00     0.026 A 
HETATM    8  C   UNL     1     -39.956  51.765 -54.048  1.00  0.00     0.002 A 
HETATM    9  C   UNL     1     -40.291  52.528 -55.161  1.00  0.00     0.002 A 
HETATM   10  C   UNL     1     -40.773  53.824 -54.992  1.00  0.00     0.031 A 
BRANCH   6  11
HETATM   11  N   UNL     1     -40.609  54.229 -51.274  1.00  0.00    -0.281 NA
HETATM   12  C   UNL     1     -39.530  53.656 -50.434  1.00  0.00     0.098 C 
HETATM   13  C   UNL     1     -39.423  54.443 -49.127  1.00  0.00     0.046 C 
HETATM   14  C   UNL     1     -40.758  54.486 -48.389  1.00  0.00     0.120 C 
HETATM   15  C   UNL     1     -41.878  54.973 -49.305  1.00  0.00     0.046 C 
HETATM   16  C   UNL     1     -41.923  54.161 -50.598  1.00  0.00     0.098 C 
BRANCH  14  17
HETATM   17  O   UNL     1     -41.087  53.188 -47.894  1.00  0.00    -0.395 OA
HETATM   18  H   UNL     1     -41.934  53.259 -47.419  1.00  0.00     0.210 HD
ENDBRANCH  14  17
ENDBRANCH   6  11
ENDBRANCH   2   5
BRANCH   1  19
HETATM   19  C   UNL     1     -43.354  57.109 -52.972  1.00  0.00     0.056 A 
HETATM   20  C   UNL     1     -43.318  58.368 -53.557  1.00  0.00     0.047 A 
HETATM   21  C   UNL     1     -42.588  58.621 -54.842  1.00  0.00     0.071 C 
HETATM   22  N   UNL     1     -43.969  59.433 -53.010  1.00  0.00    -0.252 NA
HETATM   23  C   UNL     1     -44.709  59.254 -51.880  1.00  0.00     0.067 A 
HETATM   24  C   UNL     1     -44.750  58.016 -51.238  1.00  0.00     0.033 A 
HETATM   25  C   UNL     1     -44.064  56.934 -51.787  1.00  0.00     0.021 A 
BRANCH  23  26
HETATM   26  C   UNL     1     -45.527  60.415 -51.446  1.00  0.00    -0.007 A 
HETATM   27  C   UNL     1     -45.344  60.982 -50.169  1.00  0.00     0.014 A 
HETATM   28  C   UNL     1     -46.052  62.116 -49.757  1.00  0.00     0.001 A 
HETATM   29  C   UNL     1     -46.969  62.714 -50.613  1.00  0.00     0.000 A 
HETATM   30  C   UNL     1     -47.185  62.169 -51.875  1.00  0.00     0.001 A 
HETATM   31  C   UNL     1     -46.477  61.032 -52.283  1.00  0.00     0.014 A 
ENDBRANCH  23  26
ENDBRANCH   1  19
TORSDOF 5
ENDMDL
MODEL 10
REMARK VINA RESULT:      -7.3      2.264      8.266
REMARK  5 active torsions:
REMARK  status: ('A' for Active; 'I' for Inactive)
REMARK    1  A    between atoms: C_4  and  C_5 
REMARK    2  A    between atoms: C_13  and  C_14 
REMARK       I    between atoms: C_14  and  N_15 
REMARK    3  A    between atoms: N_15  and  C_16 
REMARK    4  A    between atoms: C_17  and  N_18 
REMARK    5  A    between atoms: C_21  and  O_22 
ROOT
HETATM    1  C   UNL     1     -42.668  55.012 -56.335  1.00  0.00     0.258 C 
HETATM    2  N   UNL     1     -41.453  55.195 -55.719  1.00  0.00    -0.321 N 
HETATM    3  O   UNL     1     -43.472  54.108 -56.134  1.00  0.00    -0.267 OA
HETATM    4  H   UNL     1     -40.738  55.776 -56.146  1.00  0.00     0.169 HD
ENDROOT
BRANCH   2   5
HETATM    5  C   UNL     1     -41.047  54.593 -54.502  1.00  0.00     0.056 A 
HETATM    6  C   UNL     1     -41.339  55.281 -53.296  1.00  0.00     0.037 A 
HETATM    7  C   UNL     1     -41.061  54.625 -52.083  1.00  0.00     0.026 A 
HETATM    8  C   UNL     1     -40.500  53.345 -52.063  1.00  0.00     0.002 A 
HETATM    9  C   UNL     1     -40.193  52.698 -53.254  1.00  0.00     0.002 A 
HETATM   10  C   UNL     1     -40.464  53.321 -54.470  1.00  0.00     0.031 A 
BRANCH   6  11
HETATM   11  N   UNL     1     -41.817  56.629 -53.356  1.00  0.00    -0.281 NA
HETATM   12  C   UNL     1     -40.658  57.533 -53.554  1.00  0.00     0.098 C 
HETATM   13  C   UNL     1     -41.156  58.953 -53.831  1.00  0.00     0.046 C 
HETATM   14  C   UNL     1     -42.083  59.447 -52.724  1.00  0.00     0.120 C 
HETATM   15  C   UNL     1     -43.206  58.447 -52.459  1.00  0.00     0.046 C 
HETATM   16  C   UNL     1     -42.647  57.048 -52.206  1.00  0.00     0.098 C 
BRANCH  14  17
HETATM   17  O   UNL     1     -41.344  59.652 -51.520  1.00  0.00    -0.395 OA
HETATM   18  H   UNL     1     -41.067  60.586 -51.499  1.00  0.00     0.210 HD
ENDBRANCH  14  17
ENDBRANCH   6  11
ENDBRANCH   2   5
BRANCH   1  19
HETATM   19  C   UNL     1     -43.050  56.049 -57.303  1.00  0.00     0.056 A 
HETATM   20  C   UNL     1     -43.697  57.219 -56.927  1.00  0.00     0.047 A 
HETATM   21  C   UNL     1     -44.245  57.409 -55.544  1.00  0.00     0.071 C 
HETATM   22  N   UNL     1     -43.841  58.267 -57.785  1.00  0.00    -0.252 NA
HETATM   23  C   UNL     1     -43.303  58.185 -59.035  1.00  0.00     0.067 A 
HETATM   24  C   UNL     1     -42.673  57.018 -59.469  1.00  0.00     0.033 A 
HETATM   25  C   UNL     1     -42.547  55.940 -58.596  1.00  0.00     0.021 A 
BRANCH  23  26
HETATM   26  C   UNL     1     -43.349  59.428 -59.846  1.00  0.00    -0.007 A 
HETATM   27  C   UNL     1     -42.367  59.680 -60.825  1.00  0.00     0.014 A 
HETATM   28  C   UNL     1     -42.420  60.809 -61.650  1.00  0.00     0.001 A 
HETATM   29  C   UNL     1     -43.459  61.722 -61.515  1.00  0.00     0.000 A 
HETATM   30  C   UNL     1     -44.436  61.511 -60.547  1.00  0.00     0.001 A 
HETATM   31  C   UNL     1     -44.377  60.381 -59.721  1.00  0.00     0.014 A 
ENDBRANCH  23  26
ENDBRANCH   1  19
TORSDOF 5
ENDMDL
