MODEL 1
REMARK VINA RESULT:      -8.0      0.000      0.000
REMARK  6 active torsions:
REMARK  status: ('A' for Active; 'I' for Inactive)
REMARK    1  A    between atoms: C_2  and  C_3 
REMARK    2  A    between atoms: C_3  and  N_4 
REMARK    3  A    between atoms: C_3  and  C_11 
REMARK    4  A    between atoms: N_4  and  C_5 
REMARK       I    between atoms: C_11  and  N_12 
REMARK    5  A    between atoms: N_12  and  N_13 
REMARK    6  A    between atoms: C_14  and  C_15 
ROOT
HETATM    1  C   UNL     1     -42.877  56.266 -56.603  1.00  0.00     0.260 C 
HETATM    2  N   UNL     1     -42.870  54.896 -56.318  1.00  0.00    -0.246 N 
HETATM    3  O   UNL     1     -42.657  57.154 -55.782  1.00  0.00    -0.269 OA
HETATM    4  H   UNL     1     -42.816  54.255 -57.106  1.00  0.00     0.192 HD
ENDROOT
BRANCH   2   5
HETATM    5  N   UNL     1     -42.486  54.355 -55.116  1.00  0.00    -0.184 NA
HETATM    6  C   UNL     1     -41.220  54.138 -54.943  1.00  0.00     0.152 C 
BRANCH   6   7
HETATM    7  C   UNL     1     -40.755  53.521 -53.718  1.00  0.00     0.011 A 
HETATM    8  C   UNL     1     -40.365  52.154 -53.539  1.00  0.00     0.004 A 
HETATM    9  C   UNL     1     -39.997  51.996 -52.202  1.00  0.00     0.043 A 
HETATM   10  C   UNL     1     -40.284  51.033 -54.394  1.00  0.00     0.014 A 
HETATM   11  C   UNL     1     -39.557  50.776 -51.676  1.00  0.00     0.030 A 
HETATM   12  N   UNL     1     -40.163  53.217 -51.590  1.00  0.00    -0.364 N 
HETATM   13  C   UNL     1     -39.483  49.683 -52.545  1.00  0.00     0.002 A 
HETATM   14  C   UNL     1     -39.840  49.808 -53.885  1.00  0.00     0.001 A 
HETATM   15  H   UNL     1     -39.978  53.397 -50.612  1.00  0.00     0.165 HD
HETATM   16  C   UNL     1     -40.609  54.142 -52.492  1.00  0.00     0.102 A 
ENDBRANCH   6   7
ENDBRANCH   2   5
BRANCH   1  17
HETATM   17  C   UNL     1     -43.213  56.535 -58.093  1.00  0.00     0.175 C 
BRANCH  17  18
HETATM   18  C   UNL     1     -43.597  55.244 -58.832  1.00  0.00     0.030 C 
HETATM   19  C   UNL     1     -44.227  55.527 -60.191  1.00  0.00     0.007 C 
ENDBRANCH  17  18
BRANCH  17  20
HETATM   20  N   UNL     1     -42.036  57.147 -58.726  1.00  0.00    -0.377 N 
HETATM   21  H   UNL     1     -41.157  56.647 -58.625  1.00  0.00     0.160 HD
BRANCH  20  22
HETATM   22  C   UNL     1     -41.976  58.427 -59.242  1.00  0.00     0.028 A 
HETATM   23  C   UNL     1     -41.815  59.503 -58.357  1.00  0.00     0.029 A 
HETATM   24  C   UNL     1     -41.731  60.821 -58.815  1.00  0.00     0.002 A 
HETATM   25  C   UNL     1     -41.796  61.086 -60.178  1.00  0.00     0.000 A 
HETATM   26  C   UNL     1     -41.941  60.035 -61.076  1.00  0.00     0.002 A 
HETATM   27  C   UNL     1     -42.029  58.717 -60.609  1.00  0.00     0.029 A 
ENDBRANCH  20  22
ENDBRANCH  17  20
ENDBRANCH   1  17
TORSDOF 6
ENDMDL
MODEL 2
REMARK VINA RESULT:      -7.8      2.039      8.711
REMARK  6 active torsions:
REMARK  status: ('A' for Active; 'I' for Inactive)
REMARK    1  A    between atoms: C_2  and  C_3 
REMARK    2  A    between atoms: C_3  and  N_4 
REMARK    3  A    between atoms: C_3  and  C_11 
REMARK    4  A    between atoms: N_4  and  C_5 
REMARK       I    between atoms: C_11  and  N_12 
REMARK    5  A    between atoms: N_12  and  N_13 
REMARK    6  A    between atoms: C_14  and  C_15 
ROOT
HETATM    1  C   UNL     1     -41.855  55.218 -52.654  1.00  0.00     0.260 C 
HETATM    2  N   UNL     1     -42.628  54.781 -53.734  1.00  0.00    -0.246 N 
HETATM    3  O   UNL     1     -41.340  56.330 -52.564  1.00  0.00    -0.269 OA
HETATM    4  H   UNL     1     -43.203  53.953 -53.594  1.00  0.00     0.192 HD
ENDROOT
BRANCH   2   5
HETATM    5  N   UNL     1     -43.027  55.580 -54.778  1.00  0.00    -0.184 NA
HETATM    6  C   UNL     1     -42.452  55.385 -55.924  1.00  0.00     0.152 C 
BRANCH   6   7
HETATM    7  C   UNL     1     -42.791  56.228 -57.052  1.00  0.00     0.011 A 
HETATM    8  C   UNL     1     -43.445  55.823 -58.261  1.00  0.00     0.004 A 
HETATM    9  C   UNL     1     -43.561  56.952 -59.072  1.00  0.00     0.043 A 
HETATM   10  C   UNL     1     -43.957  54.597 -58.739  1.00  0.00     0.014 A 
HETATM   11  C   UNL     1     -44.159  56.918 -60.338  1.00  0.00     0.030 A 
HETATM   12  N   UNL     1     -42.995  58.002 -58.387  1.00  0.00    -0.364 N 
HETATM   13  C   UNL     1     -44.661  55.693 -60.786  1.00  0.00     0.002 A 
HETATM   14  C   UNL     1     -44.563  54.548 -60.000  1.00  0.00     0.001 A 
HETATM   15  H   UNL     1     -42.930  58.948 -58.740  1.00  0.00     0.165 HD
HETATM   16  C   UNL     1     -42.536  57.581 -57.170  1.00  0.00     0.102 A 
ENDBRANCH   6   7
ENDBRANCH   2   5
BRANCH   1  17
HETATM   17  C   UNL     1     -41.711  54.113 -51.574  1.00  0.00     0.175 C 
BRANCH  17  18
HETATM   18  C   UNL     1     -41.877  54.679 -50.156  1.00  0.00     0.030 C 
HETATM   19  C   UNL     1     -40.600  54.546 -49.333  1.00  0.00     0.007 C 
ENDBRANCH  17  18
BRANCH  17  20
HETATM   20  N   UNL     1     -40.384  53.498 -51.720  1.00  0.00    -0.377 N 
HETATM   21  H   UNL     1     -39.585  54.095 -51.522  1.00  0.00     0.160 HD
BRANCH  20  22
HETATM   22  C   UNL     1     -40.126  52.275 -52.306  1.00  0.00     0.028 A 
HETATM   23  C   UNL     1     -39.742  51.203 -51.486  1.00  0.00     0.029 A 
HETATM   24  C   UNL     1     -39.482  49.935 -52.014  1.00  0.00     0.002 A 
HETATM   25  C   UNL     1     -39.613  49.713 -53.380  1.00  0.00     0.000 A 
HETATM   26  C   UNL     1     -40.006  50.756 -54.211  1.00  0.00     0.002 A 
HETATM   27  C   UNL     1     -40.261  52.025 -53.675  1.00  0.00     0.029 A 
ENDBRANCH  20  22
ENDBRANCH  17  20
ENDBRANCH   1  17
TORSDOF 6
ENDMDL
MODEL 3
REMARK VINA RESULT:      -7.8      1.185      3.101
REMARK  6 active torsions:
REMARK  status: ('A' for Active; 'I' for Inactive)
REMARK    1  A    between atoms: C_2  and  C_3 
REMARK    2  A    between atoms: C_3  and  N_4 
REMARK    3  A    between atoms: C_3  and  C_11 
REMARK    4  A    between atoms: N_4  and  C_5 
REMARK       I    between atoms: C_11  and  N_12 
REMARK    5  A    between atoms: N_12  and  N_13 
REMARK    6  A    between atoms: C_14  and  C_15 
ROOT
HETATM    1  C   UNL     1     -42.413  57.171 -55.905  1.00  0.00     0.260 C 
HETATM    2  N   UNL     1     -41.648  56.000 -55.901  1.00  0.00    -0.246 N 
HETATM    3  O   UNL     1     -42.813  57.751 -54.898  1.00  0.00    -0.269 OA
HETATM    4  H   UNL     1     -41.169  55.752 -56.764  1.00  0.00     0.192 HD
ENDROOT
BRANCH   2   5
HETATM    5  N   UNL     1     -41.128  55.415 -54.773  1.00  0.00    -0.184 NA
HETATM    6  C   UNL     1     -41.160  54.121 -54.710  1.00  0.00     0.152 C 
BRANCH   6   7
HETATM    7  C   UNL     1     -40.673  53.445 -53.525  1.00  0.00     0.011 A 
HETATM    8  C   UNL     1     -40.292  52.068 -53.418  1.00  0.00     0.004 A 
HETATM    9  C   UNL     1     -39.896  51.846 -52.098  1.00  0.00     0.043 A 
HETATM   10  C   UNL     1     -40.240  50.987 -54.325  1.00  0.00     0.014 A 
HETATM   11  C   UNL     1     -39.456  50.598 -51.639  1.00  0.00     0.030 A 
HETATM   12  N   UNL     1     -40.037  53.038 -51.427  1.00  0.00    -0.364 N 
HETATM   13  C   UNL     1     -39.411  49.546 -52.559  1.00  0.00     0.002 A 
HETATM   14  C   UNL     1     -39.797  49.736 -53.883  1.00  0.00     0.001 A 
HETATM   15  H   UNL     1     -39.829  53.171 -50.447  1.00  0.00     0.165 HD
HETATM   16  C   UNL     1     -40.495  54.007 -52.275  1.00  0.00     0.102 A 
ENDBRANCH   6   7
ENDBRANCH   2   5
BRANCH   1  17
HETATM   17  C   UNL     1     -42.714  57.649 -57.350  1.00  0.00     0.175 C 
BRANCH  17  18
HETATM   18  C   UNL     1     -42.436  59.150 -57.522  1.00  0.00     0.030 C 
HETATM   19  C   UNL     1     -42.200  59.526 -58.980  1.00  0.00     0.007 C 
ENDBRANCH  17  18
BRANCH  17  20
HETATM   20  N   UNL     1     -44.124  57.361 -57.646  1.00  0.00    -0.377 N 
HETATM   21  H   UNL     1     -44.786  57.521 -56.892  1.00  0.00     0.160 HD
BRANCH  20  22
HETATM   22  C   UNL     1     -44.590  56.691 -58.760  1.00  0.00     0.028 A 
HETATM   23  C   UNL     1     -43.889  55.562 -59.209  1.00  0.00     0.029 A 
HETATM   24  C   UNL     1     -44.317  54.830 -60.320  1.00  0.00     0.002 A 
HETATM   25  C   UNL     1     -45.468  55.211 -61.001  1.00  0.00     0.000 A 
HETATM   26  C   UNL     1     -46.187  56.318 -60.565  1.00  0.00     0.002 A 
HETATM   27  C   UNL     1     -45.751  57.049 -59.454  1.00  0.00     0.029 A 
ENDBRANCH  20  22
ENDBRANCH  17  20
ENDBRANCH   1  17
TORSDOF 6
ENDMDL
MODEL 4
REMARK VINA RESULT:      -7.7      1.824      2.850
REMARK  6 active torsions:
REMARK  status: ('A' for Active; 'I' for Inactive)
REMARK    1  A    between atoms: C_2  and  C_3 
REMARK    2  A    between atoms: C_3  and  N_4 
REMARK    3  A    between atoms: C_3  and  C_11 
REMARK    4  A    between atoms: N_4  and  C_5 
REMARK       I    between atoms: C_11  and  N_12 
REMARK    5  A    between atoms: N_12  and  N_13 
REMARK    6  A    between atoms: C_14  and  C_15 
ROOT
HETATM    1  C   UNL     1     -43.819  56.799 -54.166  1.00  0.00     0.260 C 
HETATM    2  N   UNL     1     -42.972  55.741 -54.511  1.00  0.00    -0.246 N 
HETATM    3  O   UNL     1     -44.341  56.949 -53.064  1.00  0.00    -0.269 OA
HETATM    4  H   UNL     1     -42.407  55.849 -55.350  1.00  0.00     0.192 HD
ENDROOT
BRANCH   2   5
HETATM    5  N   UNL     1     -42.503  54.801 -53.626  1.00  0.00    -0.184 NA
HETATM    6  C   UNL     1     -41.221  54.607 -53.596  1.00  0.00     0.152 C 
BRANCH   6   7
HETATM    7  C   UNL     1     -40.667  53.594 -52.721  1.00  0.00     0.011 A 
HETATM    8  C   UNL     1     -40.343  52.243 -53.070  1.00  0.00     0.004 A 
HETATM    9  C   UNL     1     -39.846  51.623 -51.923  1.00  0.00     0.043 A 
HETATM   10  C   UNL     1     -40.419  51.488 -54.261  1.00  0.00     0.014 A 
HETATM   11  C   UNL     1     -39.426  50.287 -51.904  1.00  0.00     0.030 A 
HETATM   12  N   UNL     1     -39.873  52.557 -50.914  1.00  0.00    -0.364 N 
HETATM   13  C   UNL     1     -39.510  49.563 -53.098  1.00  0.00     0.002 A 
HETATM   14  C   UNL     1     -39.999  50.154 -54.261  1.00  0.00     0.001 A 
HETATM   15  H   UNL     1     -39.575  52.382 -49.964  1.00  0.00     0.165 HD
HETATM   16  C   UNL     1     -40.356  53.747 -51.383  1.00  0.00     0.102 A 
ENDBRANCH   6   7
ENDBRANCH   2   5
BRANCH   1  17
HETATM   17  C   UNL     1     -44.036  57.766 -55.359  1.00  0.00     0.175 C 
BRANCH  17  18
HETATM   18  C   UNL     1     -45.276  58.650 -55.157  1.00  0.00     0.030 C 
HETATM   19  C   UNL     1     -44.970  60.127 -55.381  1.00  0.00     0.007 C 
ENDBRANCH  17  18
BRANCH  17  20
HETATM   20  N   UNL     1     -44.184  56.963 -56.581  1.00  0.00    -0.377 N 
HETATM   21  H   UNL     1     -44.774  56.138 -56.512  1.00  0.00     0.160 HD
BRANCH  20  22
HETATM   22  C   UNL     1     -43.429  57.100 -57.729  1.00  0.00     0.028 A 
HETATM   23  C   UNL     1     -43.325  56.007 -58.602  1.00  0.00     0.029 A 
HETATM   24  C   UNL     1     -42.590  56.086 -59.788  1.00  0.00     0.002 A 
HETATM   25  C   UNL     1     -41.950  57.271 -60.130  1.00  0.00     0.000 A 
HETATM   26  C   UNL     1     -42.050  58.373 -59.288  1.00  0.00     0.002 A 
HETATM   27  C   UNL     1     -42.785  58.285 -58.099  1.00  0.00     0.029 A 
ENDBRANCH  20  22
ENDBRANCH  17  20
ENDBRANCH   1  17
TORSDOF 6
ENDMDL
MODEL 5
REMARK VINA RESULT:      -7.3      2.241      9.045
REMARK  6 active torsions:
REMARK  status: ('A' for Active; 'I' for Inactive)
REMARK    1  A    between atoms: C_2  and  C_3 
REMARK    2  A    between atoms: C_3  and  N_4 
REMARK    3  A    between atoms: C_3  and  C_11 
REMARK    4  A    between atoms: N_4  and  C_5 
REMARK       I    between atoms: C_11  and  N_12 
REMARK    5  A    between atoms: N_12  and  N_13 
REMARK    6  A    between atoms: C_14  and  C_15 
ROOT
HETATM    1  C   UNL     1     -42.091  54.152 -51.626  1.00  0.00     0.260 C 
HETATM    2  N   UNL     1     -41.569  54.943 -52.655  1.00  0.00    -0.246 N 
HETATM    3  O   UNL     1     -43.286  53.916 -51.460  1.00  0.00    -0.269 OA
HETATM    4  H   UNL     1     -40.572  54.866 -52.844  1.00  0.00     0.192 HD
ENDROOT
BRANCH   2   5
HETATM    5  N   UNL     1     -42.308  55.454 -53.694  1.00  0.00    -0.184 NA
HETATM    6  C   UNL     1     -41.726  55.530 -54.850  1.00  0.00     0.152 C 
BRANCH   6   7
HETATM    7  C   UNL     1     -42.433  56.106 -55.975  1.00  0.00     0.011 A 
HETATM    8  C   UNL     1     -42.662  57.498 -56.224  1.00  0.00     0.004 A 
HETATM    9  C   UNL     1     -43.389  57.596 -57.411  1.00  0.00     0.043 A 
HETATM   10  C   UNL     1     -42.312  58.689 -55.551  1.00  0.00     0.014 A 
HETATM   11  C   UNL     1     -43.787  58.823 -57.957  1.00  0.00     0.030 A 
HETATM   12  N   UNL     1     -43.600  56.315 -57.864  1.00  0.00    -0.364 N 
HETATM   13  C   UNL     1     -43.424  59.987 -57.272  1.00  0.00     0.002 A 
HETATM   14  C   UNL     1     -42.697  59.923 -56.086  1.00  0.00     0.001 A 
HETATM   15  H   UNL     1     -44.109  56.081 -58.706  1.00  0.00     0.165 HD
HETATM   16  C   UNL     1     -43.024  55.412 -57.015  1.00  0.00     0.102 A 
ENDBRANCH   6   7
ENDBRANCH   2   5
BRANCH   1  17
HETATM   17  C   UNL     1     -40.971  53.611 -50.700  1.00  0.00     0.175 C 
BRANCH  17  18
HETATM   18  C   UNL     1     -40.476  54.684 -49.719  1.00  0.00     0.030 C 
HETATM   19  C   UNL     1     -40.462  54.182 -48.279  1.00  0.00     0.007 C 
ENDBRANCH  17  18
BRANCH  17  20
HETATM   20  N   UNL     1     -39.859  53.149 -51.544  1.00  0.00    -0.377 N 
HETATM   21  H   UNL     1     -39.161  53.844 -51.792  1.00  0.00     0.160 HD
BRANCH  20  22
HETATM   22  C   UNL     1     -39.801  51.936 -52.202  1.00  0.00     0.028 A 
HETATM   23  C   UNL     1     -39.915  51.922 -53.600  1.00  0.00     0.029 A 
HETATM   24  C   UNL     1     -39.848  50.730 -54.327  1.00  0.00     0.002 A 
HETATM   25  C   UNL     1     -39.653  49.524 -53.665  1.00  0.00     0.000 A 
HETATM   26  C   UNL     1     -39.523  49.514 -52.281  1.00  0.00     0.002 A 
HETATM   27  C   UNL     1     -39.595  50.712 -51.558  1.00  0.00     0.029 A 
ENDBRANCH  20  22
ENDBRANCH  17  20
ENDBRANCH   1  17
TORSDOF 6
ENDMDL
MODEL 6
REMARK VINA RESULT:      -7.3      2.277      9.144
REMARK  6 active torsions:
REMARK  status: ('A' for Active; 'I' for Inactive)
REMARK    1  A    between atoms: C_2  and  C_3 
REMARK    2  A    between atoms: C_3  and  N_4 
REMARK    3  A    between atoms: C_3  and  C_11 
REMARK    4  A    between atoms: N_4  and  C_5 
REMARK       I    between atoms: C_11  and  N_12 
REMARK    5  A    between atoms: N_12  and  N_13 
REMARK    6  A    between atoms: C_14  and  C_15 
ROOT
HETATM    1  C   UNL     1     -42.837  54.988 -54.316  1.00  0.00     0.260 C 
HETATM    2  N   UNL     1     -42.289  54.879 -55.599  1.00  0.00    -0.246 N 
HETATM    3  O   UNL     1     -43.960  55.422 -54.068  1.00  0.00    -0.269 OA
HETATM    4  H   UNL     1     -41.470  54.285 -55.708  1.00  0.00     0.192 HD
ENDROOT
BRANCH   2   5
HETATM    5  N   UNL     1     -42.980  55.115 -56.762  1.00  0.00    -0.184 NA
HETATM    6  C   UNL     1     -42.830  56.279 -57.312  1.00  0.00     0.152 C 
BRANCH   6   7
HETATM    7  C   UNL     1     -43.570  56.609 -58.512  1.00  0.00     0.011 A 
HETATM    8  C   UNL     1     -44.793  57.352 -58.591  1.00  0.00     0.004 A 
HETATM    9  C   UNL     1     -45.153  57.423 -59.937  1.00  0.00     0.043 A 
HETATM   10  C   UNL     1     -45.627  57.977 -57.638  1.00  0.00     0.014 A 
HETATM   11  C   UNL     1     -46.305  58.084 -60.379  1.00  0.00     0.030 A 
HETATM   12  N   UNL     1     -44.191  56.746 -60.650  1.00  0.00    -0.364 N 
HETATM   13  C   UNL     1     -47.112  58.698 -59.416  1.00  0.00     0.002 A 
HETATM   14  C   UNL     1     -46.779  58.647 -58.065  1.00  0.00     0.001 A 
HETATM   15  H   UNL     1     -44.199  56.629 -61.654  1.00  0.00     0.165 HD
HETATM   16  C   UNL     1     -43.231  56.260 -59.807  1.00  0.00     0.102 A 
ENDBRANCH   6   7
ENDBRANCH   2   5
BRANCH   1  17
HETATM   17  C   UNL     1     -41.842  54.505 -53.229  1.00  0.00     0.175 C 
BRANCH  17  18
HETATM   18  C   UNL     1     -41.207  55.683 -52.475  1.00  0.00     0.030 C 
HETATM   19  C   UNL     1     -41.265  55.495 -50.964  1.00  0.00     0.007 C 
ENDBRANCH  17  18
BRANCH  17  20
HETATM   20  N   UNL     1     -40.798  53.705 -53.885  1.00  0.00    -0.377 N 
HETATM   21  H   UNL     1     -40.461  54.047 -54.781  1.00  0.00     0.160 HD
BRANCH  20  22
HETATM   22  C   UNL     1     -40.402  52.437 -53.508  1.00  0.00     0.028 A 
HETATM   23  C   UNL     1     -40.460  51.404 -54.456  1.00  0.00     0.029 A 
HETATM   24  C   UNL     1     -40.060  50.102 -54.143  1.00  0.00     0.002 A 
HETATM   25  C   UNL     1     -39.580  49.810 -52.872  1.00  0.00     0.000 A 
HETATM   26  C   UNL     1     -39.500  50.820 -51.920  1.00  0.00     0.002 A 
HETATM   27  C   UNL     1     -39.907  52.122 -52.239  1.00  0.00     0.029 A 
ENDBRANCH  20  22
ENDBRANCH  17  20
ENDBRANCH   1  17
TORSDOF 6
ENDMDL
MODEL 7
REMARK VINA RESULT:      -7.2      1.889      3.996
REMARK  6 active torsions:
REMARK  status: ('A' for Active; 'I' for Inactive)
REMARK    1  A    between atoms: C_2  and  C_3 
REMARK    2  A    between atoms: C_3  and  N_4 
REMARK    3  A    between atoms: C_3  and  C_11 
REMARK    4  A    between atoms: N_4  and  C_5 
REMARK       I    between atoms: C_11  and  N_12 
REMARK    5  A    between atoms: N_12  and  N_13 
REMARK    6  A    between atoms: C_14  and  C_15 
ROOT
HETATM    1  C   UNL     1     -42.364  56.487 -56.184  1.00  0.00     0.260 C 
HETATM    2  N   UNL     1     -41.496  55.391 -56.119  1.00  0.00    -0.246 N 
HETATM    3  O   UNL     1     -42.781  57.110 -55.210  1.00  0.00    -0.269 OA
HETATM    4  H   UNL     1     -41.025  55.116 -56.978  1.00  0.00     0.192 HD
ENDROOT
BRANCH   2   5
HETATM    5  N   UNL     1     -40.889  54.948 -54.969  1.00  0.00    -0.184 NA
HETATM    6  C   UNL     1     -41.447  53.952 -54.354  1.00  0.00     0.152 C 
BRANCH   6   7
HETATM    7  C   UNL     1     -40.885  53.470 -53.109  1.00  0.00     0.011 A 
HETATM    8  C   UNL     1     -40.998  54.085 -51.820  1.00  0.00     0.004 A 
HETATM    9  C   UNL     1     -40.300  53.287 -50.913  1.00  0.00     0.043 A 
HETATM   10  C   UNL     1     -41.638  55.248 -51.337  1.00  0.00     0.014 A 
HETATM   11  C   UNL     1     -40.205  53.594 -49.550  1.00  0.00     0.030 A 
HETATM   12  N   UNL     1     -39.777  52.231 -51.622  1.00  0.00    -0.364 N 
HETATM   13  C   UNL     1     -40.850  54.749 -49.098  1.00  0.00     0.002 A 
HETATM   14  C   UNL     1     -41.557  55.565 -49.977  1.00  0.00     0.001 A 
HETATM   15  H   UNL     1     -39.214  51.493 -51.220  1.00  0.00     0.165 HD
HETATM   16  C   UNL     1     -40.128  52.325 -52.940  1.00  0.00     0.102 A 
ENDBRANCH   6   7
ENDBRANCH   2   5
BRANCH   1  17
HETATM   17  C   UNL     1     -42.752  56.818 -57.649  1.00  0.00     0.175 C 
BRANCH  17  18
HETATM   18  C   UNL     1     -42.071  58.104 -58.141  1.00  0.00     0.030 C 
HETATM   19  C   UNL     1     -42.879  59.349 -57.794  1.00  0.00     0.007 C 
ENDBRANCH  17  18
BRANCH  17  20
HETATM   20  N   UNL     1     -44.213  56.964 -57.715  1.00  0.00    -0.377 N 
HETATM   21  H   UNL     1     -44.693  57.116 -56.832  1.00  0.00     0.160 HD
BRANCH  20  22
HETATM   22  C   UNL     1     -44.998  56.695 -58.819  1.00  0.00     0.028 A 
HETATM   23  C   UNL     1     -44.566  55.720 -59.731  1.00  0.00     0.029 A 
HETATM   24  C   UNL     1     -45.321  55.389 -60.859  1.00  0.00     0.002 A 
HETATM   25  C   UNL     1     -46.536  56.023 -61.091  1.00  0.00     0.000 A 
HETATM   26  C   UNL     1     -46.992  56.982 -60.194  1.00  0.00     0.002 A 
HETATM   27  C   UNL     1     -46.228  57.312 -59.068  1.00  0.00     0.029 A 
ENDBRANCH  20  22
ENDBRANCH  17  20
ENDBRANCH   1  17
TORSDOF 6
ENDMDL
MODEL 8
REMARK VINA RESULT:      -7.2      1.337      2.552
REMARK  6 active torsions:
REMARK  status: ('A' for Active; 'I' for Inactive)
REMARK    1  A    between atoms: C_2  and  C_3 
REMARK    2  A    between atoms: C_3  and  N_4 
REMARK    3  A    between atoms: C_3  and  C_11 
REMARK    4  A    between atoms: N_4  and  C_5 
REMARK       I    between atoms: C_11  and  N_12 
REMARK    5  A    between atoms: N_12  and  N_13 
REMARK    6  A    between atoms: C_14  and  C_15 
ROOT
HETATM    1  C   UNL     1     -42.355  56.875 -56.267  1.00  0.00     0.260 C 
HETATM    2  N   UNL     1     -41.871  55.564 -56.218  1.00  0.00    -0.246 N 
HETATM    3  O   UNL     1     -42.338  57.664 -55.324  1.00  0.00    -0.269 OA
HETATM    4  H   UNL     1     -41.705  55.094 -57.105  1.00  0.00     0.192 HD
ENDROOT
BRANCH   2   5
HETATM    5  N   UNL     1     -41.192  55.025 -55.153  1.00  0.00    -0.184 NA
HETATM    6  C   UNL     1     -41.640  53.908 -54.671  1.00  0.00     0.152 C 
BRANCH   6   7
HETATM    7  C   UNL     1     -41.000  53.313 -53.516  1.00  0.00     0.011 A 
HETATM    8  C   UNL     1     -41.154  53.712 -52.149  1.00  0.00     0.004 A 
HETATM    9  C   UNL     1     -40.349  52.873 -51.376  1.00  0.00     0.043 A 
HETATM   10  C   UNL     1     -41.910  54.708 -51.493  1.00  0.00     0.014 A 
HETATM   11  C   UNL     1     -40.259  52.982 -49.982  1.00  0.00     0.030 A 
HETATM   12  N   UNL     1     -39.726  52.003 -52.239  1.00  0.00    -0.364 N 
HETATM   13  C   UNL     1     -41.021  53.974 -49.358  1.00  0.00     0.002 A 
HETATM   14  C   UNL     1     -41.836  54.826 -50.100  1.00  0.00     0.001 A 
HETATM   15  H   UNL     1     -39.074  51.284 -51.955  1.00  0.00     0.165 HD
HETATM   16  C   UNL     1     -40.114  52.252 -53.526  1.00  0.00     0.102 A 
ENDBRANCH   6   7
ENDBRANCH   2   5
BRANCH   1  17
HETATM   17  C   UNL     1     -42.935  57.216 -57.664  1.00  0.00     0.175 C 
BRANCH  17  18
HETATM   18  C   UNL     1     -43.513  55.974 -58.358  1.00  0.00     0.030 C 
HETATM   19  C   UNL     1     -42.942  55.782 -59.758  1.00  0.00     0.007 C 
ENDBRANCH  17  18
BRANCH  17  20
HETATM   20  N   UNL     1     -41.858  57.794 -58.480  1.00  0.00    -0.377 N 
HETATM   21  H   UNL     1     -41.022  57.227 -58.594  1.00  0.00     0.160 HD
BRANCH  20  22
HETATM   22  C   UNL     1     -41.791  59.105 -58.911  1.00  0.00     0.028 A 
HETATM   23  C   UNL     1     -42.014  59.380 -60.268  1.00  0.00     0.029 A 
HETATM   24  C   UNL     1     -41.977  60.686 -60.765  1.00  0.00     0.002 A 
HETATM   25  C   UNL     1     -41.726  61.748 -59.905  1.00  0.00     0.000 A 
HETATM   26  C   UNL     1     -41.516  61.502 -58.553  1.00  0.00     0.002 A 
HETATM   27  C   UNL     1     -41.550  60.190 -58.063  1.00  0.00     0.029 A 
ENDBRANCH  20  22
ENDBRANCH  17  20
ENDBRANCH   1  17
TORSDOF 6
ENDMDL
MODEL 9
REMARK VINA RESULT:      -7.1      6.313      7.638
REMARK  6 active torsions:
REMARK  status: ('A' for Active; 'I' for Inactive)
REMARK    1  A    between atoms: C_2  and  C_3 
REMARK    2  A    between atoms: C_3  and  N_4 
REMARK    3  A    between atoms: C_3  and  C_11 
REMARK    4  A    between atoms: N_4  and  C_5 
REMARK       I    between atoms: C_11  and  N_12 
REMARK    5  A    between atoms: N_12  and  N_13 
REMARK    6  A    between atoms: C_14  and  C_15 
ROOT
HETATM    1  C   UNL     1     -44.385  57.908 -50.945  1.00  0.00     0.260 C 
HETATM    2  N   UNL     1     -43.050  57.498 -51.032  1.00  0.00    -0.246 N 
HETATM    3  O   UNL     1     -45.351  57.148 -50.929  1.00  0.00    -0.269 OA
HETATM    4  H   UNL     1     -42.335  58.180 -50.786  1.00  0.00     0.192 HD
ENDROOT
BRANCH   2   5
HETATM    5  N   UNL     1     -42.632  56.191 -50.978  1.00  0.00    -0.184 NA
HETATM    6  C   UNL     1     -41.356  55.976 -51.050  1.00  0.00     0.152 C 
BRANCH   6   7
HETATM    7  C   UNL     1     -40.854  54.617 -51.050  1.00  0.00     0.011 A 
HETATM    8  C   UNL     1     -40.571  53.806 -52.197  1.00  0.00     0.004 A 
HETATM    9  C   UNL     1     -40.117  52.570 -51.734  1.00  0.00     0.043 A 
HETATM   10  C   UNL     1     -40.654  54.011 -53.592  1.00  0.00     0.014 A 
HETATM   11  C   UNL     1     -39.746  51.528 -52.593  1.00  0.00     0.030 A 
HETATM   12  N   UNL     1     -40.129  52.624 -50.360  1.00  0.00    -0.364 N 
HETATM   13  C   UNL     1     -39.834  51.759 -53.969  1.00  0.00     0.002 A 
HETATM   14  C   UNL     1     -40.281  52.981 -54.463  1.00  0.00     0.001 A 
HETATM   15  H   UNL     1     -39.855  51.863 -49.754  1.00  0.00     0.165 HD
HETATM   16  C   UNL     1     -40.562  53.851 -49.937  1.00  0.00     0.102 A 
ENDBRANCH   6   7
ENDBRANCH   2   5
BRANCH   1  17
HETATM   17  C   UNL     1     -44.503  59.453 -50.882  1.00  0.00     0.175 C 
BRANCH  17  18
HETATM   18  C   UNL     1     -43.127  60.132 -50.945  1.00  0.00     0.030 C 
HETATM   19  C   UNL     1     -43.020  61.103 -52.116  1.00  0.00     0.007 C 
ENDBRANCH  17  18
BRANCH  17  20
HETATM   20  N   UNL     1     -45.185  59.811 -49.630  1.00  0.00    -0.377 N 
HETATM   21  H   UNL     1     -45.677  59.062 -49.153  1.00  0.00     0.160 HD
BRANCH  20  22
HETATM   22  C   UNL     1     -45.399  61.097 -49.172  1.00  0.00     0.028 A 
HETATM   23  C   UNL     1     -44.833  61.478 -47.946  1.00  0.00     0.029 A 
HETATM   24  C   UNL     1     -44.999  62.768 -47.435  1.00  0.00     0.002 A 
HETATM   25  C   UNL     1     -45.730  63.710 -48.150  1.00  0.00     0.000 A 
HETATM   26  C   UNL     1     -46.288  63.359 -49.375  1.00  0.00     0.002 A 
HETATM   27  C   UNL     1     -46.121  62.063 -49.879  1.00  0.00     0.029 A 
ENDBRANCH  20  22
ENDBRANCH  17  20
ENDBRANCH   1  17
TORSDOF 6
ENDMDL
MODEL 10
REMARK VINA RESULT:      -7.0      1.482      1.699
REMARK  6 active torsions:
REMARK  status: ('A' for Active; 'I' for Inactive)
REMARK    1  A    between atoms: C_2  and  C_3 
REMARK    2  A    between atoms: C_3  and  N_4 
REMARK    3  A    between atoms: C_3  and  C_11 
REMARK    4  A    between atoms: N_4  and  C_5 
REMARK       I    between atoms: C_11  and  N_12 
REMARK    5  A    between atoms: N_12  and  N_13 
REMARK    6  A    between atoms: C_14  and  C_15 
ROOT
HETATM    1  C   UNL     1     -42.727  55.457 -56.618  1.00  0.00     0.260 C 
HETATM    2  N   UNL     1     -41.503  55.682 -55.980  1.00  0.00    -0.246 N 
HETATM    3  O   UNL     1     -43.342  54.393 -56.601  1.00  0.00    -0.269 OA
HETATM    4  H   UNL     1     -41.214  56.649 -55.850  1.00  0.00     0.192 HD
ENDROOT
BRANCH   2   5
HETATM    5  N   UNL     1     -40.889  54.787 -55.139  1.00  0.00    -0.184 NA
HETATM    6  C   UNL     1     -41.420  54.616 -53.969  1.00  0.00     0.152 C 
BRANCH   6   7
HETATM    7  C   UNL     1     -40.792  53.724 -53.016  1.00  0.00     0.011 A 
HETATM    8  C   UNL     1     -40.420  52.358 -53.235  1.00  0.00     0.004 A 
HETATM    9  C   UNL     1     -39.857  51.883 -52.049  1.00  0.00     0.043 A 
HETATM   10  C   UNL     1     -40.504  51.479 -54.337  1.00  0.00     0.014 A 
HETATM   11  C   UNL     1     -39.378  50.574 -51.908  1.00  0.00     0.030 A 
HETATM   12  N   UNL     1     -39.891  52.916 -51.143  1.00  0.00    -0.364 N 
HETATM   13  C   UNL     1     -39.471  49.726 -53.016  1.00  0.00     0.002 A 
HETATM   14  C   UNL     1     -40.025  50.170 -54.214  1.00  0.00     0.001 A 
HETATM   15  H   UNL     1     -39.554  52.855 -50.192  1.00  0.00     0.165 HD
HETATM   16  C   UNL     1     -40.442  54.029 -51.714  1.00  0.00     0.102 A 
ENDBRANCH   6   7
ENDBRANCH   2   5
BRANCH   1  17
HETATM   17  C   UNL     1     -43.217  56.721 -57.371  1.00  0.00     0.175 C 
BRANCH  17  18
HETATM   18  C   UNL     1     -42.901  56.648 -58.872  1.00  0.00     0.030 C 
HETATM   19  C   UNL     1     -44.072  56.097 -59.678  1.00  0.00     0.007 C 
ENDBRANCH  17  18
BRANCH  17  20
HETATM   20  N   UNL     1     -42.561  57.894 -56.775  1.00  0.00    -0.377 N 
HETATM   21  H   UNL     1     -42.163  57.767 -55.849  1.00  0.00     0.160 HD
BRANCH  20  22
HETATM   22  C   UNL     1     -42.635  59.187 -57.257  1.00  0.00     0.028 A 
HETATM   23  C   UNL     1     -43.866  59.857 -57.201  1.00  0.00     0.029 A 
HETATM   24  C   UNL     1     -44.005  61.171 -57.656  1.00  0.00     0.002 A 
HETATM   25  C   UNL     1     -42.904  61.847 -58.169  1.00  0.00     0.000 A 
HETATM   26  C   UNL     1     -41.670  61.208 -58.221  1.00  0.00     0.002 A 
HETATM   27  C   UNL     1     -41.539  59.890 -57.767  1.00  0.00     0.029 A 
ENDBRANCH  20  22
ENDBRANCH  17  20
ENDBRANCH   1  17
TORSDOF 6
ENDMDL
