MODEL 1
REMARK VINA RESULT:      -8.7      0.000      0.000
REMARK  9 active torsions:
REMARK  status: ('A' for Active; 'I' for Inactive)
REMARK    1  A    between atoms: C_7  and  O_8 
REMARK    2  A    between atoms: O_8  and  C_9 
REMARK    3  A    between atoms: C_10  and  N_11 
REMARK    4  A    between atoms: N_11  and  C_12 
REMARK    5  A    between atoms: C_14  and  C_15 
REMARK       I    between atoms: C_15  and  N_16 
REMARK    6  A    between atoms: N_16  and  C_17 
REMARK    7  A    between atoms: C_17  and  C_18 
REMARK    8  A    between atoms: C_18  and  N_19 
REMARK    9  A    between atoms: N_29  and  C_30 
ROOT
HETATM    1  C   UNL     1     -41.040  56.080 -50.521  1.00  0.00     0.122 C 
HETATM    2  C   UNL     1     -42.065  55.389 -51.047  1.00  0.00     0.119 C 
HETATM    3  C   UNL     1     -41.845  53.948 -51.451  1.00  0.00     0.293 C 
HETATM    4  O   UNL     1     -42.841  53.321 -51.823  1.00  0.00    -0.264 OA
HETATM    5  N   UNL     1     -40.551  53.448 -51.323  1.00  0.00    -0.195 N 
HETATM    6  N   UNL     1     -39.583  54.085 -50.578  1.00  0.00    -0.174 NA
HETATM    7  C   UNL     1     -39.828  55.296 -50.209  1.00  0.00     0.178 C 
ENDROOT
BRANCH   2   8
HETATM    8  N   UNL     1     -43.356  55.873 -51.319  1.00  0.00    -0.253 NA
HETATM    9  H   UNL     1     -43.606  56.537 -50.572  1.00  0.00     0.134 HD
BRANCH   8  10
HETATM   10  C   UNL     1     -43.750  56.450 -52.557  1.00  0.00     0.014 A 
HETATM   11  C   UNL     1     -43.255  55.880 -53.739  1.00  0.00     0.040 A 
HETATM   12  C   UNL     1     -43.610  56.405 -54.987  1.00  0.00     0.033 A 
HETATM   13  C   UNL     1     -44.488  57.490 -55.073  1.00  0.00     0.017 A 
HETATM   14  C   UNL     1     -44.997  58.052 -53.906  1.00  0.00     0.003 A 
HETATM   15  C   UNL     1     -44.624  57.541 -52.659  1.00  0.00     0.024 A 
BRANCH  12  16
HETATM   16  C   UNL     1     -43.053  55.781 -56.211  1.00  0.00     0.251 C 
HETATM   17  N   UNL     1     -43.707  56.063 -57.395  1.00  0.00    -0.355 N 
HETATM   18  H   UNL     1     -44.386  56.819 -57.342  1.00  0.00     0.162 HD
HETATM   19  O   UNL     1     -42.087  55.030 -56.163  1.00  0.00    -0.268 OA
BRANCH  17  20
HETATM   20  C   UNL     1     -43.067  55.897 -58.700  1.00  0.00     0.150 C 
BRANCH  20  21
HETATM   21  C   UNL     1     -43.382  56.941 -59.793  1.00  0.00     0.253 C 
BRANCH  21  22
HETATM   22  N   UNL     1     -44.586  56.559 -60.628  1.00  0.00    -0.077 N 
HETATM   23  H   UNL     1     -44.372  56.953 -61.560  1.00  0.00     0.279 HD
HETATM   24  C   UNL     1     -44.799  55.086 -60.761  1.00  0.00     0.269 C 
HETATM   25  C   UNL     1     -45.825  57.275 -60.179  1.00  0.00     0.269 C 
ENDBRANCH  21  22
ENDBRANCH  20  21
ENDBRANCH  17  20
ENDBRANCH  12  16
ENDBRANCH   8  10
ENDBRANCH   2   8
BRANCH   1  26
HETATM   26  O   UNL     1     -41.170  57.425 -50.185  1.00  0.00    -0.307 OA
BRANCH  26  27
HETATM   27  C   UNL     1     -41.467  58.342 -51.161  1.00  0.00     0.076 A 
HETATM   28  C   UNL     1     -40.823  58.194 -52.386  1.00  0.00     0.039 A 
HETATM   29  C   UNL     1     -41.091  59.089 -53.421  1.00  0.00     0.027 A 
HETATM   30  C   UNL     1     -41.996  60.137 -53.228  1.00  0.00     0.040 A 
HETATM   31  C   UNL     1     -42.624  60.320 -51.984  1.00  0.00    -0.038 A 
HETATM   32 CL   UNL     1     -42.310  61.185 -54.564  1.00  0.00    -0.084 Cl
HETATM   33  C   UNL     1     -43.618  61.424 -51.753  1.00  0.00     0.050 C 
HETATM   34  C   UNL     1     -42.337  59.417 -50.945  1.00  0.00     0.045 A 
ENDBRANCH  26  27
ENDBRANCH   1  26
BRANCH   5  35
HETATM   35  C   UNL     1     -40.190  52.126 -51.743  1.00  0.00     0.084 A 
HETATM   36  C   UNL     1     -40.045  51.745 -53.091  1.00  0.00     0.063 A 
HETATM   37 CL   UNL     1     -39.997  52.879 -54.403  1.00  0.00    -0.082 Cl
HETATM   38  C   UNL     1     -39.750  50.414 -53.426  1.00  0.00     0.026 A 
HETATM   39  C   UNL     1     -39.561  49.457 -52.431  1.00  0.00     0.002 A 
HETATM   40  C   UNL     1     -39.642  49.829 -51.095  1.00  0.00     0.002 A 
HETATM   41  C   UNL     1     -39.943  51.150 -50.756  1.00  0.00     0.033 A 
ENDBRANCH   5  35
TORSDOF 9
ENDMDL
MODEL 2
REMARK VINA RESULT:      -8.7      2.945      8.576
REMARK  9 active torsions:
REMARK  status: ('A' for Active; 'I' for Inactive)
REMARK    1  A    between atoms: C_7  and  O_8 
REMARK    2  A    between atoms: O_8  and  C_9 
REMARK    3  A    between atoms: C_10  and  N_11 
REMARK    4  A    between atoms: N_11  and  C_12 
REMARK    5  A    between atoms: C_14  and  C_15 
REMARK       I    between atoms: C_15  and  N_16 
REMARK    6  A    between atoms: N_16  and  C_17 
REMARK    7  A    between atoms: C_17  and  C_18 
REMARK    8  A    between atoms: C_18  and  N_19 
REMARK    9  A    between atoms: N_29  and  C_30 
ROOT
HETATM    1  C   UNL     1     -41.886  55.991 -53.618  1.00  0.00     0.122 C 
HETATM    2  C   UNL     1     -41.581  57.155 -54.217  1.00  0.00     0.119 C 
HETATM    3  C   UNL     1     -42.202  57.471 -55.559  1.00  0.00     0.293 C 
HETATM    4  O   UNL     1     -41.983  58.596 -56.018  1.00  0.00    -0.264 OA
HETATM    5  N   UNL     1     -43.000  56.483 -56.134  1.00  0.00    -0.195 N 
HETATM    6  N   UNL     1     -43.481  55.412 -55.415  1.00  0.00    -0.174 NA
HETATM    7  C   UNL     1     -42.963  55.204 -54.252  1.00  0.00     0.178 C 
ENDROOT
BRANCH   2   8
HETATM    8  N   UNL     1     -40.688  58.133 -53.750  1.00  0.00    -0.253 NA
HETATM    9  H   UNL     1     -40.598  58.852 -54.483  1.00  0.00     0.134 HD
BRANCH   8  10
HETATM   10  C   UNL     1     -40.814  58.804 -52.503  1.00  0.00     0.014 A 
HETATM   11  C   UNL     1     -42.049  59.394 -52.194  1.00  0.00     0.040 A 
HETATM   12  C   UNL     1     -42.232  60.067 -50.980  1.00  0.00     0.033 A 
HETATM   13  C   UNL     1     -41.193  60.135 -50.046  1.00  0.00     0.017 A 
HETATM   14  C   UNL     1     -39.970  59.540 -50.339  1.00  0.00     0.003 A 
HETATM   15  C   UNL     1     -39.781  58.887 -51.560  1.00  0.00     0.024 A 
BRANCH  12  16
HETATM   16  C   UNL     1     -43.548  60.688 -50.698  1.00  0.00     0.251 C 
HETATM   17  N   UNL     1     -44.349  60.038 -49.779  1.00  0.00    -0.355 N 
HETATM   18  H   UNL     1     -43.884  59.307 -49.244  1.00  0.00     0.162 HD
HETATM   19  O   UNL     1     -43.913  61.703 -51.278  1.00  0.00    -0.268 OA
BRANCH  17  20
HETATM   20  C   UNL     1     -45.444  60.712 -49.082  1.00  0.00     0.150 C 
BRANCH  20  21
HETATM   21  C   UNL     1     -45.126  61.403 -47.739  1.00  0.00     0.253 C 
BRANCH  21  22
HETATM   22  N   UNL     1     -45.098  60.428 -46.579  1.00  0.00    -0.077 N 
HETATM   23  H   UNL     1     -44.389  59.731 -46.864  1.00  0.00     0.279 HD
HETATM   24  C   UNL     1     -44.688  61.034 -45.277  1.00  0.00     0.269 C 
HETATM   25  C   UNL     1     -46.379  59.657 -46.469  1.00  0.00     0.269 C 
ENDBRANCH  21  22
ENDBRANCH  20  21
ENDBRANCH  17  20
ENDBRANCH  12  16
ENDBRANCH   8  10
ENDBRANCH   2   8
BRANCH   1  26
HETATM   26  O   UNL     1     -41.300  55.624 -52.410  1.00  0.00    -0.307 OA
BRANCH  26  27
HETATM   27  C   UNL     1     -40.848  54.339 -52.238  1.00  0.00     0.076 A 
HETATM   28  C   UNL     1     -40.620  53.918 -50.931  1.00  0.00     0.039 A 
HETATM   29  C   UNL     1     -40.170  52.620 -50.692  1.00  0.00     0.027 A 
HETATM   30  C   UNL     1     -39.939  51.748 -51.760  1.00  0.00     0.040 A 
HETATM   31  C   UNL     1     -40.128  52.173 -53.085  1.00  0.00    -0.038 A 
HETATM   32 CL   UNL     1     -39.419  50.144 -51.389  1.00  0.00    -0.084 Cl
HETATM   33  C   UNL     1     -39.910  51.251 -54.252  1.00  0.00     0.050 C 
HETATM   34  C   UNL     1     -40.573  53.488 -53.314  1.00  0.00     0.045 A 
ENDBRANCH  26  27
ENDBRANCH   1  26
BRANCH   5  35
HETATM   35  C   UNL     1     -43.582  56.622 -57.435  1.00  0.00     0.084 A 
HETATM   36  C   UNL     1     -44.722  57.405 -57.704  1.00  0.00     0.063 A 
HETATM   37 CL   UNL     1     -45.397  58.528 -56.566  1.00  0.00    -0.082 Cl
HETATM   38  C   UNL     1     -45.272  57.442 -58.994  1.00  0.00     0.026 A 
HETATM   39  C   UNL     1     -44.680  56.734 -60.039  1.00  0.00     0.002 A 
HETATM   40  C   UNL     1     -43.521  56.005 -59.805  1.00  0.00     0.002 A 
HETATM   41  C   UNL     1     -42.974  55.957 -58.520  1.00  0.00     0.033 A 
ENDBRANCH   5  35
TORSDOF 9
ENDMDL
MODEL 3
REMARK VINA RESULT:      -8.5      3.452      8.507
REMARK  9 active torsions:
REMARK  status: ('A' for Active; 'I' for Inactive)
REMARK    1  A    between atoms: C_7  and  O_8 
REMARK    2  A    between atoms: O_8  and  C_9 
REMARK    3  A    between atoms: C_10  and  N_11 
REMARK    4  A    between atoms: N_11  and  C_12 
REMARK    5  A    between atoms: C_14  and  C_15 
REMARK       I    between atoms: C_15  and  N_16 
REMARK    6  A    between atoms: N_16  and  C_17 
REMARK    7  A    between atoms: C_17  and  C_18 
REMARK    8  A    between atoms: C_18  and  N_19 
REMARK    9  A    between atoms: N_29  and  C_30 
ROOT
HETATM    1  C   UNL     1     -43.698  54.998 -54.170  1.00  0.00     0.122 C 
HETATM    2  C   UNL     1     -44.157  56.251 -54.332  1.00  0.00     0.119 C 
HETATM    3  C   UNL     1     -43.922  56.950 -55.653  1.00  0.00     0.293 C 
HETATM    4  O   UNL     1     -44.458  58.054 -55.796  1.00  0.00    -0.264 OA
HETATM    5  N   UNL     1     -43.163  56.269 -56.602  1.00  0.00    -0.195 N 
HETATM    6  N   UNL     1     -42.904  54.920 -56.509  1.00  0.00    -0.174 NA
HETATM    7  C   UNL     1     -43.164  54.347 -55.384  1.00  0.00     0.178 C 
ENDROOT
BRANCH   2   8
HETATM    8  N   UNL     1     -44.816  57.037 -53.372  1.00  0.00    -0.253 NA
HETATM    9  H   UNL     1     -45.343  56.403 -52.755  1.00  0.00     0.134 HD
BRANCH   8  10
HETATM   10  C   UNL     1     -44.174  58.002 -52.549  1.00  0.00     0.014 A 
HETATM   11  C   UNL     1     -44.971  58.767 -51.684  1.00  0.00     0.040 A 
HETATM   12  C   UNL     1     -44.393  59.731 -50.850  1.00  0.00     0.033 A 
HETATM   13  C   UNL     1     -43.009  59.926 -50.847  1.00  0.00     0.017 A 
HETATM   14  C   UNL     1     -42.209  59.161 -51.691  1.00  0.00     0.003 A 
HETATM   15  C   UNL     1     -42.789  58.213 -52.540  1.00  0.00     0.024 A 
BRANCH  12  16
HETATM   16  C   UNL     1     -45.273  60.528 -49.961  1.00  0.00     0.251 C 
HETATM   17  N   UNL     1     -44.816  60.737 -48.674  1.00  0.00    -0.355 N 
HETATM   18  H   UNL     1     -43.841  60.492 -48.518  1.00  0.00     0.162 HD
HETATM   19  O   UNL     1     -46.359  60.944 -50.343  1.00  0.00    -0.268 OA
BRANCH  17  20
HETATM   20  C   UNL     1     -45.323  61.820 -47.832  1.00  0.00     0.150 C 
BRANCH  20  21
HETATM   21  C   UNL     1     -46.400  61.470 -46.782  1.00  0.00     0.253 C 
BRANCH  21  22
HETATM   22  N   UNL     1     -47.514  62.496 -46.731  1.00  0.00    -0.077 N 
HETATM   23  H   UNL     1     -48.369  61.923 -46.636  1.00  0.00     0.279 HD
HETATM   24  C   UNL     1     -47.429  63.438 -45.575  1.00  0.00     0.269 C 
HETATM   25  C   UNL     1     -47.670  63.213 -48.039  1.00  0.00     0.269 C 
ENDBRANCH  21  22
ENDBRANCH  20  21
ENDBRANCH  17  20
ENDBRANCH  12  16
ENDBRANCH   8  10
ENDBRANCH   2   8
BRANCH   1  26
HETATM   26  O   UNL     1     -43.835  54.328 -52.958  1.00  0.00    -0.307 OA
BRANCH  26  27
HETATM   27  C   UNL     1     -42.771  54.263 -52.095  1.00  0.00     0.076 A 
HETATM   28  C   UNL     1     -42.804  55.102 -50.984  1.00  0.00     0.039 A 
HETATM   29  C   UNL     1     -41.756  55.074 -50.065  1.00  0.00     0.027 A 
HETATM   30  C   UNL     1     -40.671  54.215 -50.262  1.00  0.00     0.040 A 
HETATM   31  C   UNL     1     -40.607  53.391 -51.398  1.00  0.00    -0.038 A 
HETATM   32 CL   UNL     1     -39.426  54.205 -49.065  1.00  0.00    -0.084 Cl
HETATM   33  C   UNL     1     -39.465  52.440 -51.625  1.00  0.00     0.050 C 
HETATM   34  C   UNL     1     -41.665  53.435 -52.323  1.00  0.00     0.045 A 
ENDBRANCH  26  27
ENDBRANCH   1  26
BRANCH   5  35
HETATM   35  C   UNL     1     -42.801  56.849 -57.861  1.00  0.00     0.084 A 
HETATM   36  C   UNL     1     -43.074  56.251 -59.106  1.00  0.00     0.063 A 
HETATM   37 CL   UNL     1     -44.133  54.890 -59.298  1.00  0.00    -0.082 Cl
HETATM   38  C   UNL     1     -42.632  56.850 -60.296  1.00  0.00     0.026 A 
HETATM   39  C   UNL     1     -41.947  58.064 -60.267  1.00  0.00     0.002 A 
HETATM   40  C   UNL     1     -41.721  58.697 -59.052  1.00  0.00     0.002 A 
HETATM   41  C   UNL     1     -42.151  58.101 -57.864  1.00  0.00     0.033 A 
ENDBRANCH   5  35
TORSDOF 9
ENDMDL
MODEL 4
REMARK VINA RESULT:      -8.4      3.189      7.374
REMARK  9 active torsions:
REMARK  status: ('A' for Active; 'I' for Inactive)
REMARK    1  A    between atoms: C_7  and  O_8 
REMARK    2  A    between atoms: O_8  and  C_9 
REMARK    3  A    between atoms: C_10  and  N_11 
REMARK    4  A    between atoms: N_11  and  C_12 
REMARK    5  A    between atoms: C_14  and  C_15 
REMARK       I    between atoms: C_15  and  N_16 
REMARK    6  A    between atoms: N_16  and  C_17 
REMARK    7  A    between atoms: C_17  and  C_18 
REMARK    8  A    between atoms: C_18  and  N_19 
REMARK    9  A    between atoms: N_29  and  C_30 
ROOT
HETATM    1  C   UNL     1     -41.715  55.861 -54.086  1.00  0.00     0.122 C 
HETATM    2  C   UNL     1     -42.842  56.315 -54.659  1.00  0.00     0.119 C 
HETATM    3  C   UNL     1     -43.648  57.378 -53.945  1.00  0.00     0.293 C 
HETATM    4  O   UNL     1     -44.612  57.845 -54.560  1.00  0.00    -0.264 OA
HETATM    5  N   UNL     1     -43.205  57.764 -52.682  1.00  0.00    -0.195 N 
HETATM    6  N   UNL     1     -41.944  57.464 -52.219  1.00  0.00    -0.174 NA
HETATM    7  C   UNL     1     -41.266  56.590 -52.882  1.00  0.00     0.178 C 
ENDROOT
BRANCH   2   8
HETATM    8  N   UNL     1     -43.409  55.876 -55.867  1.00  0.00    -0.253 NA
HETATM    9  H   UNL     1     -44.432  55.947 -55.779  1.00  0.00     0.134 HD
BRANCH   8  10
HETATM   10  C   UNL     1     -43.052  56.379 -57.148  1.00  0.00     0.014 A 
HETATM   11  C   UNL     1     -42.570  57.694 -57.230  1.00  0.00     0.040 A 
HETATM   12  C   UNL     1     -42.203  58.242 -58.465  1.00  0.00     0.033 A 
HETATM   13  C   UNL     1     -42.284  57.475 -59.631  1.00  0.00     0.017 A 
HETATM   14  C   UNL     1     -42.746  56.165 -59.557  1.00  0.00     0.003 A 
HETATM   15  C   UNL     1     -43.134  55.625 -58.327  1.00  0.00     0.024 A 
BRANCH  12  16
HETATM   16  C   UNL     1     -41.712  59.640 -58.509  1.00  0.00     0.251 C 
HETATM   17  N   UNL     1     -41.752  60.266 -59.741  1.00  0.00    -0.355 N 
HETATM   18  H   UNL     1     -42.290  59.778 -60.454  1.00  0.00     0.162 HD
HETATM   19  O   UNL     1     -41.263  60.192 -57.513  1.00  0.00    -0.268 OA
BRANCH  17  20
HETATM   20  C   UNL     1     -41.720  61.721 -59.879  1.00  0.00     0.150 C 
BRANCH  20  21
HETATM   21  C   UNL     1     -40.416  62.452 -59.492  1.00  0.00     0.253 C 
BRANCH  21  22
HETATM   22  N   UNL     1     -40.570  63.285 -58.236  1.00  0.00    -0.077 N 
HETATM   23  H   UNL     1     -40.225  62.661 -57.487  1.00  0.00     0.279 HD
HETATM   24  C   UNL     1     -39.765  64.543 -58.231  1.00  0.00     0.269 C 
HETATM   25  C   UNL     1     -42.011  63.530 -57.904  1.00  0.00     0.269 C 
ENDBRANCH  21  22
ENDBRANCH  20  21
ENDBRANCH  17  20
ENDBRANCH  12  16
ENDBRANCH   8  10
ENDBRANCH   2   8
BRANCH   1  26
HETATM   26  O   UNL     1     -40.965  54.844 -54.670  1.00  0.00    -0.307 OA
BRANCH  26  27
HETATM   27  C   UNL     1     -40.607  53.750 -53.922  1.00  0.00     0.076 A 
HETATM   28  C   UNL     1     -40.543  53.920 -52.542  1.00  0.00     0.039 A 
HETATM   29  C   UNL     1     -40.195  52.843 -51.728  1.00  0.00     0.027 A 
HETATM   30  C   UNL     1     -39.901  51.600 -52.295  1.00  0.00     0.040 A 
HETATM   31  C   UNL     1     -39.924  51.425 -53.689  1.00  0.00    -0.038 A 
HETATM   32 CL   UNL     1     -39.515  50.300 -51.226  1.00  0.00    -0.084 Cl
HETATM   33  C   UNL     1     -39.635  50.094 -54.326  1.00  0.00     0.050 C 
HETATM   34  C   UNL     1     -40.267  52.522 -54.500  1.00  0.00     0.045 A 
ENDBRANCH  26  27
ENDBRANCH   1  26
BRANCH   5  35
HETATM   35  C   UNL     1     -43.920  58.701 -51.867  1.00  0.00     0.084 A 
HETATM   36  C   UNL     1     -43.604  60.071 -51.789  1.00  0.00     0.063 A 
HETATM   37 CL   UNL     1     -42.508  60.861 -52.879  1.00  0.00    -0.082 Cl
HETATM   38  C   UNL     1     -44.311  60.916 -50.920  1.00  0.00     0.026 A 
HETATM   39  C   UNL     1     -45.360  60.421 -50.145  1.00  0.00     0.002 A 
HETATM   40  C   UNL     1     -45.722  59.085 -50.254  1.00  0.00     0.002 A 
HETATM   41  C   UNL     1     -45.017  58.237 -51.111  1.00  0.00     0.033 A 
ENDBRANCH   5  35
TORSDOF 9
ENDMDL
MODEL 5
REMARK VINA RESULT:      -8.4      3.593      5.913
REMARK  9 active torsions:
REMARK  status: ('A' for Active; 'I' for Inactive)
REMARK    1  A    between atoms: C_7  and  O_8 
REMARK    2  A    between atoms: O_8  and  C_9 
REMARK    3  A    between atoms: C_10  and  N_11 
REMARK    4  A    between atoms: N_11  and  C_12 
REMARK    5  A    between atoms: C_14  and  C_15 
REMARK       I    between atoms: C_15  and  N_16 
REMARK    6  A    between atoms: N_16  and  C_17 
REMARK    7  A    between atoms: C_17  and  C_18 
REMARK    8  A    between atoms: C_18  and  N_19 
REMARK    9  A    between atoms: N_29  and  C_30 
ROOT
HETATM    1  C   UNL     1     -42.013  56.275 -54.956  1.00  0.00     0.122 C 
HETATM    2  C   UNL     1     -42.825  55.642 -54.092  1.00  0.00     0.119 C 
HETATM    3  C   UNL     1     -42.357  54.347 -53.465  1.00  0.00     0.293 C 
HETATM    4  O   UNL     1     -43.085  53.861 -52.594  1.00  0.00    -0.264 OA
HETATM    5  N   UNL     1     -41.130  53.846 -53.893  1.00  0.00    -0.195 N 
HETATM    6  N   UNL     1     -40.223  54.611 -54.591  1.00  0.00    -0.174 NA
HETATM    7  C   UNL     1     -40.644  55.733 -55.068  1.00  0.00     0.178 C 
ENDROOT
BRANCH   2   8
HETATM    8  N   UNL     1     -44.122  56.028 -53.718  1.00  0.00    -0.253 NA
HETATM    9  H   UNL     1     -44.603  55.196 -53.346  1.00  0.00     0.134 HD
BRANCH   8  10
HETATM   10  C   UNL     1     -44.415  57.117 -52.851  1.00  0.00     0.014 A 
HETATM   11  C   UNL     1     -44.899  58.303 -53.422  1.00  0.00     0.040 A 
HETATM   12  C   UNL     1     -45.205  59.407 -52.618  1.00  0.00     0.033 A 
HETATM   13  C   UNL     1     -45.061  59.332 -51.229  1.00  0.00     0.017 A 
HETATM   14  C   UNL     1     -44.596  58.154 -50.653  1.00  0.00     0.003 A 
HETATM   15  C   UNL     1     -44.269  57.059 -51.458  1.00  0.00     0.024 A 
BRANCH  12  16
HETATM   16  C   UNL     1     -45.700  60.647 -53.263  1.00  0.00     0.251 C 
HETATM   17  N   UNL     1     -47.023  60.972 -53.032  1.00  0.00    -0.355 N 
HETATM   18  H   UNL     1     -47.474  60.439 -52.292  1.00  0.00     0.162 HD
HETATM   19  O   UNL     1     -44.981  61.322 -53.988  1.00  0.00    -0.268 OA
BRANCH  17  20
HETATM   20  C   UNL     1     -47.539  62.328 -53.220  1.00  0.00     0.150 C 
BRANCH  20  21
HETATM   21  C   UNL     1     -49.005  62.602 -52.819  1.00  0.00     0.253 C 
BRANCH  21  22
HETATM   22  N   UNL     1     -49.993  61.862 -53.696  1.00  0.00    -0.077 N 
HETATM   23  H   UNL     1     -49.597  60.909 -53.759  1.00  0.00     0.279 HD
HETATM   24  C   UNL     1     -51.373  61.779 -53.132  1.00  0.00     0.269 C 
HETATM   25  C   UNL     1     -49.984  62.379 -55.104  1.00  0.00     0.269 C 
ENDBRANCH  21  22
ENDBRANCH  20  21
ENDBRANCH  17  20
ENDBRANCH  12  16
ENDBRANCH   8  10
ENDBRANCH   2   8
BRANCH   1  26
HETATM   26  O   UNL     1     -42.415  57.439 -55.606  1.00  0.00    -0.307 OA
BRANCH  26  27
HETATM   27  C   UNL     1     -43.226  57.354 -56.709  1.00  0.00     0.076 A 
HETATM   28  C   UNL     1     -44.205  58.333 -56.852  1.00  0.00     0.039 A 
HETATM   29  C   UNL     1     -45.053  58.307 -57.959  1.00  0.00     0.027 A 
HETATM   30  C   UNL     1     -44.928  57.296 -58.916  1.00  0.00     0.040 A 
HETATM   31  C   UNL     1     -43.970  56.280 -58.764  1.00  0.00    -0.038 A 
HETATM   32 CL   UNL     1     -45.986  57.346 -60.280  1.00  0.00    -0.084 Cl
HETATM   33  C   UNL     1     -43.797  55.193 -59.788  1.00  0.00     0.050 C 
HETATM   34  C   UNL     1     -43.127  56.312 -57.639  1.00  0.00     0.045 A 
ENDBRANCH  26  27
ENDBRANCH   1  26
BRANCH   5  35
HETATM   35  C   UNL     1     -40.608  52.591 -53.438  1.00  0.00     0.084 A 
HETATM   36  C   UNL     1     -40.013  52.401 -52.176  1.00  0.00     0.063 A 
HETATM   37 CL   UNL     1     -40.091  53.573 -50.899  1.00  0.00    -0.082 Cl
HETATM   38  C   UNL     1     -39.468  51.155 -51.827  1.00  0.00     0.026 A 
HETATM   39  C   UNL     1     -39.539  50.077 -52.708  1.00  0.00     0.002 A 
HETATM   40  C   UNL     1     -40.175  50.231 -53.933  1.00  0.00     0.002 A 
HETATM   41  C   UNL     1     -40.711  51.471 -54.290  1.00  0.00     0.033 A 
ENDBRANCH   5  35
TORSDOF 9
ENDMDL
MODEL 6
REMARK VINA RESULT:      -8.3      2.387      3.635
REMARK  9 active torsions:
REMARK  status: ('A' for Active; 'I' for Inactive)
REMARK    1  A    between atoms: C_7  and  O_8 
REMARK    2  A    between atoms: O_8  and  C_9 
REMARK    3  A    between atoms: C_10  and  N_11 
REMARK    4  A    between atoms: N_11  and  C_12 
REMARK    5  A    between atoms: C_14  and  C_15 
REMARK       I    between atoms: C_15  and  N_16 
REMARK    6  A    between atoms: N_16  and  C_17 
REMARK    7  A    between atoms: C_17  and  C_18 
REMARK    8  A    between atoms: C_18  and  N_19 
REMARK    9  A    between atoms: N_29  and  C_30 
ROOT
HETATM    1  C   UNL     1     -43.440  56.638 -53.539  1.00  0.00     0.122 C 
HETATM    2  C   UNL     1     -42.263  56.680 -54.185  1.00  0.00     0.119 C 
HETATM    3  C   UNL     1     -41.364  55.464 -54.144  1.00  0.00     0.293 C 
HETATM    4  O   UNL     1     -40.347  55.505 -54.843  1.00  0.00    -0.264 OA
HETATM    5  N   UNL     1     -41.786  54.393 -53.358  1.00  0.00    -0.195 N 
HETATM    6  N   UNL     1     -43.079  54.279 -52.900  1.00  0.00    -0.174 NA
HETATM    7  C   UNL     1     -43.832  55.321 -52.998  1.00  0.00     0.178 C 
ENDROOT
BRANCH   2   8
HETATM    8  N   UNL     1     -41.724  57.771 -54.886  1.00  0.00    -0.253 NA
HETATM    9  H   UNL     1     -40.701  57.660 -54.903  1.00  0.00     0.134 HD
BRANCH   8  10
HETATM   10  C   UNL     1     -42.136  58.169 -56.187  1.00  0.00     0.014 A 
HETATM   11  C   UNL     1     -42.511  57.168 -57.096  1.00  0.00     0.040 A 
HETATM   12  C   UNL     1     -42.925  57.500 -58.391  1.00  0.00     0.033 A 
HETATM   13  C   UNL     1     -42.999  58.839 -58.788  1.00  0.00     0.017 A 
HETATM   14  C   UNL     1     -42.644  59.839 -57.888  1.00  0.00     0.003 A 
HETATM   15  C   UNL     1     -42.209  59.506 -56.602  1.00  0.00     0.024 A 
BRANCH  12  16
HETATM   16  C   UNL     1     -43.299  56.410 -59.324  1.00  0.00     0.251 C 
HETATM   17  N   UNL     1     -44.445  55.704 -59.014  1.00  0.00    -0.355 N 
HETATM   18  H   UNL     1     -45.024  56.120 -58.288  1.00  0.00     0.162 HD
HETATM   19  O   UNL     1     -42.606  56.134 -60.295  1.00  0.00    -0.268 OA
BRANCH  17  20
HETATM   20  C   UNL     1     -45.173  54.920 -60.011  1.00  0.00     0.150 C 
BRANCH  20  21
HETATM   21  C   UNL     1     -45.812  55.678 -61.195  1.00  0.00     0.253 C 
BRANCH  21  22
HETATM   22  N   UNL     1     -46.967  56.558 -60.763  1.00  0.00    -0.077 N 
HETATM   23  H   UNL     1     -47.363  56.059 -59.949  1.00  0.00     0.279 HD
HETATM   24  C   UNL     1     -46.566  57.934 -60.341  1.00  0.00     0.269 C 
HETATM   25  C   UNL     1     -48.067  56.574 -61.782  1.00  0.00     0.269 C 
ENDBRANCH  21  22
ENDBRANCH  20  21
ENDBRANCH  17  20
ENDBRANCH  12  16
ENDBRANCH   8  10
ENDBRANCH   2   8
BRANCH   1  26
HETATM   26  O   UNL     1     -44.281  57.747 -53.496  1.00  0.00    -0.307 OA
BRANCH  26  27
HETATM   27  C   UNL     1     -44.202  58.618 -52.438  1.00  0.00     0.076 A 
HETATM   28  C   UNL     1     -45.402  59.023 -51.860  1.00  0.00     0.039 A 
HETATM   29  C   UNL     1     -45.386  59.899 -50.775  1.00  0.00     0.027 A 
HETATM   30  C   UNL     1     -44.171  60.377 -50.276  1.00  0.00     0.040 A 
HETATM   31  C   UNL     1     -42.955  60.006 -50.875  1.00  0.00    -0.038 A 
HETATM   32 CL   UNL     1     -44.223  61.428 -48.907  1.00  0.00    -0.084 Cl
HETATM   33  C   UNL     1     -41.632  60.487 -50.346  1.00  0.00     0.050 C 
HETATM   34  C   UNL     1     -42.985  59.131 -51.974  1.00  0.00     0.045 A 
ENDBRANCH  26  27
ENDBRANCH   1  26
BRANCH   5  35
HETATM   35  C   UNL     1     -40.992  53.215 -53.170  1.00  0.00     0.084 A 
HETATM   36  C   UNL     1     -40.263  52.942 -51.996  1.00  0.00     0.063 A 
HETATM   37 CL   UNL     1     -40.456  53.838 -50.523  1.00  0.00    -0.082 Cl
HETATM   38  C   UNL     1     -39.458  51.795 -51.909  1.00  0.00     0.026 A 
HETATM   39  C   UNL     1     -39.394  50.891 -52.969  1.00  0.00     0.002 A 
HETATM   40  C   UNL     1     -40.153  51.115 -54.110  1.00  0.00     0.002 A 
HETATM   41  C   UNL     1     -40.949  52.259 -54.206  1.00  0.00     0.033 A 
ENDBRANCH   5  35
TORSDOF 9
ENDMDL
MODEL 7
REMARK VINA RESULT:      -8.1      3.103      6.795
REMARK  9 active torsions:
REMARK  status: ('A' for Active; 'I' for Inactive)
REMARK    1  A    between atoms: C_7  and  O_8 
REMARK    2  A    between atoms: O_8  and  C_9 
REMARK    3  A    between atoms: C_10  and  N_11 
REMARK    4  A    between atoms: N_11  and  C_12 
REMARK    5  A    between atoms: C_14  and  C_15 
REMARK       I    between atoms: C_15  and  N_16 
REMARK    6  A    between atoms: N_16  and  C_17 
REMARK    7  A    between atoms: C_17  and  C_18 
REMARK    8  A    between atoms: C_18  and  N_19 
REMARK    9  A    between atoms: N_29  and  C_30 
ROOT
HETATM    1  C   UNL     1     -41.747  56.326 -54.513  1.00  0.00     0.122 C 
HETATM    2  C   UNL     1     -42.569  55.664 -53.681  1.00  0.00     0.119 C 
HETATM    3  C   UNL     1     -42.165  54.291 -53.192  1.00  0.00     0.293 C 
HETATM    4  O   UNL     1     -42.894  53.770 -52.343  1.00  0.00    -0.264 OA
HETATM    5  N   UNL     1     -40.985  53.759 -53.710  1.00  0.00    -0.195 N 
HETATM    6  N   UNL     1     -40.054  54.531 -54.369  1.00  0.00    -0.174 NA
HETATM    7  C   UNL     1     -40.419  55.715 -54.725  1.00  0.00     0.178 C 
ENDROOT
BRANCH   2   8
HETATM    8  N   UNL     1     -43.827  56.091 -53.225  1.00  0.00    -0.253 NA
HETATM    9  H   UNL     1     -43.999  55.645 -52.312  1.00  0.00     0.134 HD
BRANCH   8  10
HETATM   10  C   UNL     1     -44.221  57.453 -53.118  1.00  0.00     0.014 A 
HETATM   11  C   UNL     1     -43.768  58.187 -52.012  1.00  0.00     0.040 A 
HETATM   12  C   UNL     1     -44.123  59.532 -51.855  1.00  0.00     0.033 A 
HETATM   13  C   UNL     1     -44.911  60.171 -52.817  1.00  0.00     0.017 A 
HETATM   14  C   UNL     1     -45.352  59.455 -53.925  1.00  0.00     0.003 A 
HETATM   15  C   UNL     1     -45.016  58.106 -54.070  1.00  0.00     0.024 A 
BRANCH  12  16
HETATM   16  C   UNL     1     -43.635  60.266 -50.663  1.00  0.00     0.251 C 
HETATM   17  N   UNL     1     -44.573  61.011 -49.975  1.00  0.00    -0.355 N 
HETATM   18  H   UNL     1     -45.540  60.831 -50.236  1.00  0.00     0.162 HD
HETATM   19  O   UNL     1     -42.456  60.239 -50.334  1.00  0.00    -0.268 OA
BRANCH  17  20
HETATM   20  C   UNL     1     -44.375  61.428 -48.587  1.00  0.00     0.150 C 
BRANCH  20  21
HETATM   21  C   UNL     1     -45.407  62.399 -47.973  1.00  0.00     0.253 C 
BRANCH  21  22
HETATM   22  N   UNL     1     -45.815  61.998 -46.571  1.00  0.00    -0.077 N 
HETATM   23  H   UNL     1     -45.000  62.267 -45.993  1.00  0.00     0.279 HD
HETATM   24  C   UNL     1     -47.028  62.704 -46.059  1.00  0.00     0.269 C 
HETATM   25  C   UNL     1     -45.919  60.509 -46.425  1.00  0.00     0.269 C 
ENDBRANCH  21  22
ENDBRANCH  20  21
ENDBRANCH  17  20
ENDBRANCH  12  16
ENDBRANCH   8  10
ENDBRANCH   2   8
BRANCH   1  26
HETATM   26  O   UNL     1     -42.095  57.567 -55.038  1.00  0.00    -0.307 OA
BRANCH  26  27
HETATM   27  C   UNL     1     -42.454  57.668 -56.359  1.00  0.00     0.076 A 
HETATM   28  C   UNL     1     -42.400  58.935 -56.934  1.00  0.00     0.039 A 
HETATM   29  C   UNL     1     -42.743  59.100 -58.275  1.00  0.00     0.027 A 
HETATM   30  C   UNL     1     -43.149  58.001 -59.038  1.00  0.00     0.040 A 
HETATM   31  C   UNL     1     -43.245  56.725 -58.458  1.00  0.00    -0.038 A 
HETATM   32 CL   UNL     1     -43.523  58.271 -60.702  1.00  0.00    -0.084 Cl
HETATM   33  C   UNL     1     -43.658  55.520 -59.259  1.00  0.00     0.050 C 
HETATM   34  C   UNL     1     -42.906  56.573 -57.102  1.00  0.00     0.045 A 
ENDBRANCH  26  27
ENDBRANCH   1  26
BRANCH   5  35
HETATM   35  C   UNL     1     -40.530  52.438 -53.392  1.00  0.00     0.084 A 
HETATM   36  C   UNL     1     -39.909  52.096 -52.175  1.00  0.00     0.063 A 
HETATM   37 CL   UNL     1     -39.873  53.146 -50.794  1.00  0.00    -0.082 Cl
HETATM   38  C   UNL     1     -39.433  50.793 -51.961  1.00  0.00     0.026 A 
HETATM   39  C   UNL     1     -39.599  49.808 -52.934  1.00  0.00     0.002 A 
HETATM   40  C   UNL     1     -40.262  50.114 -54.115  1.00  0.00     0.002 A 
HETATM   41  C   UNL     1     -40.730  51.411 -54.337  1.00  0.00     0.033 A 
ENDBRANCH   5  35
TORSDOF 9
ENDMDL
MODEL 8
REMARK VINA RESULT:      -8.1      3.121      5.098
REMARK  9 active torsions:
REMARK  status: ('A' for Active; 'I' for Inactive)
REMARK    1  A    between atoms: C_7  and  O_8 
REMARK    2  A    between atoms: O_8  and  C_9 
REMARK    3  A    between atoms: C_10  and  N_11 
REMARK    4  A    between atoms: N_11  and  C_12 
REMARK    5  A    between atoms: C_14  and  C_15 
REMARK       I    between atoms: C_15  and  N_16 
REMARK    6  A    between atoms: N_16  and  C_17 
REMARK    7  A    between atoms: C_17  and  C_18 
REMARK    8  A    between atoms: C_18  and  N_19 
REMARK    9  A    between atoms: N_29  and  C_30 
ROOT
HETATM    1  C   UNL     1     -42.027  56.060 -55.119  1.00  0.00     0.122 C 
HETATM    2  C   UNL     1     -42.825  55.483 -54.204  1.00  0.00     0.119 C 
HETATM    3  C   UNL     1     -42.345  54.234 -53.500  1.00  0.00     0.293 C 
HETATM    4  O   UNL     1     -43.059  53.804 -52.589  1.00  0.00    -0.264 OA
HETATM    5  N   UNL     1     -41.121  53.708 -53.911  1.00  0.00    -0.195 N 
HETATM    6  N   UNL     1     -40.226  54.428 -54.670  1.00  0.00    -0.174 NA
HETATM    7  C   UNL     1     -40.658  55.515 -55.214  1.00  0.00     0.178 C 
ENDROOT
BRANCH   2   8
HETATM    8  N   UNL     1     -44.118  55.891 -53.838  1.00  0.00    -0.253 NA
HETATM    9  H   UNL     1     -44.575  55.098 -53.365  1.00  0.00     0.134 HD
BRANCH   8  10
HETATM   10  C   UNL     1     -44.407  57.063 -53.088  1.00  0.00     0.014 A 
HETATM   11  C   UNL     1     -44.696  58.242 -53.791  1.00  0.00     0.040 A 
HETATM   12  C   UNL     1     -44.988  59.427 -53.105  1.00  0.00     0.033 A 
HETATM   13  C   UNL     1     -45.025  59.444 -51.708  1.00  0.00     0.017 A 
HETATM   14  C   UNL     1     -44.754  58.275 -51.003  1.00  0.00     0.003 A 
HETATM   15  C   UNL     1     -44.441  57.098 -51.688  1.00  0.00     0.024 A 
BRANCH  12  16
HETATM   16  C   UNL     1     -45.274  60.654 -53.887  1.00  0.00     0.251 C 
HETATM   17  N   UNL     1     -45.824  60.468 -55.141  1.00  0.00    -0.355 N 
HETATM   18  H   UNL     1     -46.156  59.525 -55.329  1.00  0.00     0.162 HD
HETATM   19  O   UNL     1     -45.003  61.766 -53.453  1.00  0.00    -0.268 OA
BRANCH  17  20
HETATM   20  C   UNL     1     -46.545  61.530 -55.842  1.00  0.00     0.150 C 
BRANCH  20  21
HETATM   21  C   UNL     1     -45.877  62.151 -57.088  1.00  0.00     0.253 C 
BRANCH  21  22
HETATM   22  N   UNL     1     -44.399  61.829 -57.173  1.00  0.00    -0.077 N 
HETATM   23  H   UNL     1     -44.284  61.035 -56.520  1.00  0.00     0.279 HD
HETATM   24  C   UNL     1     -43.939  61.411 -58.531  1.00  0.00     0.269 C 
HETATM   25  C   UNL     1     -43.556  62.929 -56.600  1.00  0.00     0.269 C 
ENDBRANCH  21  22
ENDBRANCH  20  21
ENDBRANCH  17  20
ENDBRANCH  12  16
ENDBRANCH   8  10
ENDBRANCH   2   8
BRANCH   1  26
HETATM   26  O   UNL     1     -42.441  57.178 -55.838  1.00  0.00    -0.307 OA
BRANCH  26  27
HETATM   27  C   UNL     1     -43.240  57.017 -56.942  1.00  0.00     0.076 A 
HETATM   28  C   UNL     1     -42.911  55.985 -57.816  1.00  0.00     0.039 A 
HETATM   29  C   UNL     1     -43.691  55.763 -58.950  1.00  0.00     0.027 A 
HETATM   30  C   UNL     1     -44.794  56.581 -59.215  1.00  0.00     0.040 A 
HETATM   31  C   UNL     1     -45.114  57.650 -58.361  1.00  0.00    -0.038 A 
HETATM   32 CL   UNL     1     -45.738  56.227 -60.616  1.00  0.00    -0.084 Cl
HETATM   33  C   UNL     1     -46.307  58.531 -58.608  1.00  0.00     0.050 C 
HETATM   34  C   UNL     1     -44.314  57.869 -57.226  1.00  0.00     0.045 A 
ENDBRANCH  26  27
ENDBRANCH   1  26
BRANCH   5  35
HETATM   35  C   UNL     1     -40.590  52.487 -53.382  1.00  0.00     0.084 A 
HETATM   36  C   UNL     1     -40.021  52.371 -52.099  1.00  0.00     0.063 A 
HETATM   37 CL   UNL     1     -40.150  53.603 -50.884  1.00  0.00    -0.082 Cl
HETATM   38  C   UNL     1     -39.464  51.154 -51.675  1.00  0.00     0.026 A 
HETATM   39  C   UNL     1     -39.495  50.033 -52.502  1.00  0.00     0.002 A 
HETATM   40  C   UNL     1     -40.105  50.114 -53.748  1.00  0.00     0.002 A 
HETATM   41  C   UNL     1     -40.654  51.325 -54.178  1.00  0.00     0.033 A 
ENDBRANCH   5  35
TORSDOF 9
ENDMDL
MODEL 9
REMARK VINA RESULT:      -8.1      2.814      7.631
REMARK  9 active torsions:
REMARK  status: ('A' for Active; 'I' for Inactive)
REMARK    1  A    between atoms: C_7  and  O_8 
REMARK    2  A    between atoms: O_8  and  C_9 
REMARK    3  A    between atoms: C_10  and  N_11 
REMARK    4  A    between atoms: N_11  and  C_12 
REMARK    5  A    between atoms: C_14  and  C_15 
REMARK       I    between atoms: C_15  and  N_16 
REMARK    6  A    between atoms: N_16  and  C_17 
REMARK    7  A    between atoms: C_17  and  C_18 
REMARK    8  A    between atoms: C_18  and  N_19 
REMARK    9  A    between atoms: N_29  and  C_30 
ROOT
HETATM    1  C   UNL     1     -41.960  56.044 -53.636  1.00  0.00     0.122 C 
HETATM    2  C   UNL     1     -41.647  57.214 -54.219  1.00  0.00     0.119 C 
HETATM    3  C   UNL     1     -42.219  57.526 -55.584  1.00  0.00     0.293 C 
HETATM    4  O   UNL     1     -41.998  58.656 -56.030  1.00  0.00    -0.264 OA
HETATM    5  N   UNL     1     -42.979  56.529 -56.193  1.00  0.00    -0.195 N 
HETATM    6  N   UNL     1     -43.473  55.449 -55.497  1.00  0.00    -0.174 NA
HETATM    7  C   UNL     1     -42.998  55.244 -54.316  1.00  0.00     0.178 C 
ENDROOT
BRANCH   2   8
HETATM    8  N   UNL     1     -40.787  58.203 -53.714  1.00  0.00    -0.253 NA
HETATM    9  H   UNL     1     -40.642  58.902 -54.456  1.00  0.00     0.134 HD
BRANCH   8  10
HETATM   10  C   UNL     1     -41.002  58.906 -52.497  1.00  0.00     0.014 A 
HETATM   11  C   UNL     1     -42.209  59.603 -52.342  1.00  0.00     0.040 A 
HETATM   12  C   UNL     1     -42.476  60.313 -51.165  1.00  0.00     0.033 A 
HETATM   13  C   UNL     1     -41.553  60.311 -50.115  1.00  0.00     0.017 A 
HETATM   14  C   UNL     1     -40.360  59.610 -50.254  1.00  0.00     0.003 A 
HETATM   15  C   UNL     1     -40.084  58.920 -51.438  1.00  0.00     0.024 A 
BRANCH  12  16
HETATM   16  C   UNL     1     -43.758  61.048 -51.048  1.00  0.00     0.251 C 
HETATM   17  N   UNL     1     -44.107  61.847 -52.120  1.00  0.00    -0.355 N 
HETATM   18  H   UNL     1     -43.551  61.707 -52.960  1.00  0.00     0.162 HD
HETATM   19  O   UNL     1     -44.447  60.974 -50.039  1.00  0.00    -0.268 OA
BRANCH  17  20
HETATM   20  C   UNL     1     -45.483  62.283 -52.354  1.00  0.00     0.150 C 
BRANCH  20  21
HETATM   21  C   UNL     1     -46.463  61.264 -52.977  1.00  0.00     0.253 C 
BRANCH  21  22
HETATM   22  N   UNL     1     -47.245  61.848 -54.135  1.00  0.00    -0.077 N 
HETATM   23  H   UNL     1     -48.012  61.169 -54.279  1.00  0.00     0.279 HD
HETATM   24  C   UNL     1     -47.833  63.195 -53.863  1.00  0.00     0.269 C 
HETATM   25  C   UNL     1     -46.457  61.819 -55.411  1.00  0.00     0.269 C 
ENDBRANCH  21  22
ENDBRANCH  20  21
ENDBRANCH  17  20
ENDBRANCH  12  16
ENDBRANCH   8  10
ENDBRANCH   2   8
BRANCH   1  26
HETATM   26  O   UNL     1     -41.417  55.680 -52.407  1.00  0.00    -0.307 OA
BRANCH  26  27
HETATM   27  C   UNL     1     -40.923  54.412 -52.232  1.00  0.00     0.076 A 
HETATM   28  C   UNL     1     -40.653  54.012 -50.927  1.00  0.00     0.039 A 
HETATM   29  C   UNL     1     -40.159  52.730 -50.684  1.00  0.00     0.027 A 
HETATM   30  C   UNL     1     -39.927  51.853 -51.747  1.00  0.00     0.040 A 
HETATM   31  C   UNL     1     -40.159  52.258 -53.073  1.00  0.00    -0.038 A 
HETATM   32 CL   UNL     1     -39.351  50.269 -51.372  1.00  0.00    -0.084 Cl
HETATM   33  C   UNL     1     -39.939  51.330 -54.235  1.00  0.00     0.050 C 
HETATM   34  C   UNL     1     -40.647  53.556 -53.305  1.00  0.00     0.045 A 
ENDBRANCH  26  27
ENDBRANCH   1  26
BRANCH   5  35
HETATM   35  C   UNL     1     -43.511  56.666 -57.516  1.00  0.00     0.084 A 
HETATM   36  C   UNL     1     -44.662  57.416 -57.824  1.00  0.00     0.063 A 
HETATM   37 CL   UNL     1     -45.418  58.505 -56.705  1.00  0.00    -0.082 Cl
HETATM   38  C   UNL     1     -45.159  57.451 -59.136  1.00  0.00     0.026 A 
HETATM   39  C   UNL     1     -44.502  56.773 -60.162  1.00  0.00     0.002 A 
HETATM   40  C   UNL     1     -43.332  56.077 -59.887  1.00  0.00     0.002 A 
HETATM   41  C   UNL     1     -42.838  56.031 -58.581  1.00  0.00     0.033 A 
ENDBRANCH   5  35
TORSDOF 9
ENDMDL
MODEL 10
REMARK VINA RESULT:      -7.8      3.108      7.180
REMARK  9 active torsions:
REMARK  status: ('A' for Active; 'I' for Inactive)
REMARK    1  A    between atoms: C_7  and  O_8 
REMARK    2  A    between atoms: O_8  and  C_9 
REMARK    3  A    between atoms: C_10  and  N_11 
REMARK    4  A    between atoms: N_11  and  C_12 
REMARK    5  A    between atoms: C_14  and  C_15 
REMARK       I    between atoms: C_15  and  N_16 
REMARK    6  A    between atoms: N_16  and  C_17 
REMARK    7  A    between atoms: C_17  and  C_18 
REMARK    8  A    between atoms: C_18  and  N_19 
REMARK    9  A    between atoms: N_29  and  C_30 
ROOT
HETATM    1  C   UNL     1     -41.567  56.452 -54.358  1.00  0.00     0.122 C 
HETATM    2  C   UNL     1     -42.759  56.854 -54.828  1.00  0.00     0.119 C 
HETATM    3  C   UNL     1     -43.450  58.024 -54.164  1.00  0.00     0.293 C 
HETATM    4  O   UNL     1     -44.486  58.430 -54.699  1.00  0.00    -0.264 OA
HETATM    5  N   UNL     1     -42.833  58.566 -53.038  1.00  0.00    -0.195 N 
HETATM    6  N   UNL     1     -41.521  58.298 -52.715  1.00  0.00    -0.174 NA
HETATM    7  C   UNL     1     -40.949  57.325 -53.339  1.00  0.00     0.178 C 
ENDROOT
BRANCH   2   8
HETATM    8  N   UNL     1     -43.491  56.271 -55.876  1.00  0.00    -0.253 NA
HETATM    9  H   UNL     1     -44.484  56.504 -55.733  1.00  0.00     0.134 HD
BRANCH   8  10
HETATM   10  C   UNL     1     -43.201  56.455 -57.255  1.00  0.00     0.014 A 
HETATM   11  C   UNL     1     -42.757  57.719 -57.673  1.00  0.00     0.040 A 
HETATM   12  C   UNL     1     -42.455  57.958 -59.019  1.00  0.00     0.033 A 
HETATM   13  C   UNL     1     -42.564  56.930 -59.962  1.00  0.00     0.017 A 
HETATM   14  C   UNL     1     -42.989  55.670 -59.553  1.00  0.00     0.003 A 
HETATM   15  C   UNL     1     -43.311  55.438 -58.212  1.00  0.00     0.024 A 
BRANCH  12  16
HETATM   16  C   UNL     1     -42.003  59.311 -59.422  1.00  0.00     0.251 C 
HETATM   17  N   UNL     1     -41.968  59.568 -60.779  1.00  0.00    -0.355 N 
HETATM   18  H   UNL     1     -42.435  58.876 -61.360  1.00  0.00     0.162 HD
HETATM   19  O   UNL     1     -41.648  60.139 -58.593  1.00  0.00    -0.268 OA
BRANCH  17  20
HETATM   20  C   UNL     1     -41.968  60.928 -61.317  1.00  0.00     0.150 C 
BRANCH  20  21
HETATM   21  C   UNL     1     -43.286  61.729 -61.247  1.00  0.00     0.253 C 
BRANCH  21  22
HETATM   22  N   UNL     1     -43.178  62.945 -60.351  1.00  0.00    -0.077 N 
HETATM   23  H   UNL     1     -43.578  63.707 -60.925  1.00  0.00     0.279 HD
HETATM   24  C   UNL     1     -43.950  62.839 -59.076  1.00  0.00     0.269 C 
HETATM   25  C   UNL     1     -41.750  63.342 -60.121  1.00  0.00     0.269 C 
ENDBRANCH  21  22
ENDBRANCH  20  21
ENDBRANCH  17  20
ENDBRANCH  12  16
ENDBRANCH   8  10
ENDBRANCH   2   8
BRANCH   1  26
HETATM   26  O   UNL     1     -40.913  55.346 -54.894  1.00  0.00    -0.307 OA
BRANCH  26  27
HETATM   27  C   UNL     1     -40.604  54.282 -54.084  1.00  0.00     0.076 A 
HETATM   28  C   UNL     1     -40.203  53.105 -54.710  1.00  0.00     0.039 A 
HETATM   29  C   UNL     1     -39.866  51.992 -53.940  1.00  0.00     0.027 A 
HETATM   30  C   UNL     1     -39.940  52.054 -52.545  1.00  0.00     0.040 A 
HETATM   31  C   UNL     1     -40.380  53.224 -51.903  1.00  0.00    -0.038 A 
HETATM   32 CL   UNL     1     -39.472  50.652 -51.653  1.00  0.00    -0.084 Cl
HETATM   33  C   UNL     1     -40.448  53.327 -50.405  1.00  0.00     0.050 C 
HETATM   34  C   UNL     1     -40.727  54.335 -52.691  1.00  0.00     0.045 A 
ENDBRANCH  26  27
ENDBRANCH   1  26
BRANCH   5  35
HETATM   35  C   UNL     1     -43.420  59.623 -52.270  1.00  0.00     0.084 A 
HETATM   36  C   UNL     1     -44.507  59.443 -51.392  1.00  0.00     0.063 A 
HETATM   37 CL   UNL     1     -45.089  57.883 -50.903  1.00  0.00    -0.082 Cl
HETATM   38  C   UNL     1     -45.068  60.540 -50.720  1.00  0.00     0.026 A 
HETATM   39  C   UNL     1     -44.538  61.819 -50.883  1.00  0.00     0.002 A 
HETATM   40  C   UNL     1     -43.430  62.005 -51.699  1.00  0.00     0.002 A 
HETATM   41  C   UNL     1     -42.872  60.918 -52.377  1.00  0.00     0.033 A 
ENDBRANCH   5  35
TORSDOF 9
ENDMDL
