MODEL 1
REMARK VINA RESULT:      -8.5      0.000      0.000
REMARK  4 active torsions:
REMARK  status: ('A' for Active; 'I' for Inactive)
REMARK    1  A    between atoms: N_7  and  N_8 
REMARK       I    between atoms: N_8  and  C_9 
REMARK    2  A    between atoms: C_9  and  C_10 
REMARK    3  A    between atoms: C_10  and  N_11 
REMARK    4  A    between atoms: N_11  and  C_12 
ROOT
HETATM    1  N   UNL     1     -40.923  54.785 -55.488  1.00  0.00    -0.245 N 
HETATM    2  C   UNL     1     -42.215  55.109 -55.869  1.00  0.00     0.250 C 
HETATM    3  O   UNL     1     -43.167  54.328 -55.888  1.00  0.00    -0.270 OA
HETATM    4  H   UNL     1     -40.227  55.520 -55.340  1.00  0.00     0.192 HD
ENDROOT
BRANCH   1   5
HETATM    5  N   UNL     1     -40.602  53.493 -55.181  1.00  0.00    -0.166 NA
HETATM    6  C   UNL     1     -40.456  53.211 -53.926  1.00  0.00     0.157 A 
HETATM    7  C   UNL     1     -40.104  51.906 -53.382  1.00  0.00     0.027 A 
HETATM    8  C   UNL     1     -40.604  54.142 -52.717  1.00  0.00     0.277 A 
HETATM    9  C   UNL     1     -39.833  50.711 -54.015  1.00  0.00     0.016 A 
HETATM   10  C   UNL     1     -40.059  52.051 -51.997  1.00  0.00     0.048 A 
HETATM   11  C   UNL     1     -39.507  49.624 -53.199  1.00  0.00     0.001 A 
HETATM   12  C   UNL     1     -39.462  49.762 -51.795  1.00  0.00     0.002 A 
HETATM   13  C   UNL     1     -39.742  50.988 -51.178  1.00  0.00     0.030 A 
HETATM   14  N   UNL     1     -40.358  53.357 -51.613  1.00  0.00    -0.321 N 
HETATM   15  H   UNL     1     -40.383  53.703 -50.666  1.00  0.00     0.169 HD
HETATM   16  O   UNL     1     -40.873  55.323 -52.785  1.00  0.00    -0.266 OA
ENDBRANCH   1   5
BRANCH   2  17
HETATM   17  C   UNL     1     -42.381  56.579 -56.259  1.00  0.00     0.197 C 
BRANCH  17  18
HETATM   18  N   UNL     1     -42.242  56.765 -57.708  1.00  0.00    -0.284 NA
HETATM   19  H   UNL     1     -41.478  56.187 -58.061  1.00  0.00     0.128 HD
BRANCH  18  20
HETATM   20  C   UNL     1     -43.359  56.720 -58.544  1.00  0.00     0.008 A 
HETATM   21  C   UNL     1     -43.485  55.834 -59.621  1.00  0.00     0.025 A 
HETATM   22  C   UNL     1     -44.666  55.766 -60.372  1.00  0.00     0.021 A 
HETATM   23  C   UNL     1     -45.750  56.567 -60.032  1.00  0.00     0.011 A 
HETATM   24 BR   UNL     1     -47.348  56.463 -61.035  1.00  0.00    -0.051 Br
HETATM   25  C   UNL     1     -45.667  57.426 -58.944  1.00  0.00     0.021 A 
HETATM   26  C   UNL     1     -44.484  57.487 -58.200  1.00  0.00     0.025 A 
ENDBRANCH  18  20
ENDBRANCH  17  18
ENDBRANCH   2  17
TORSDOF 4
ENDMDL
MODEL 2
REMARK VINA RESULT:      -8.1      3.458      4.719
REMARK  4 active torsions:
REMARK  status: ('A' for Active; 'I' for Inactive)
REMARK    1  A    between atoms: N_7  and  N_8 
REMARK       I    between atoms: N_8  and  C_9 
REMARK    2  A    between atoms: C_9  and  C_10 
REMARK    3  A    between atoms: C_10  and  N_11 
REMARK    4  A    between atoms: N_11  and  C_12 
ROOT
HETATM    1  N   UNL     1     -40.992  54.982 -55.529  1.00  0.00    -0.245 N 
HETATM    2  C   UNL     1     -42.242  55.322 -56.023  1.00  0.00     0.250 C 
HETATM    3  O   UNL     1     -43.170  54.535 -56.210  1.00  0.00    -0.270 OA
HETATM    4  H   UNL     1     -40.332  55.709 -55.246  1.00  0.00     0.192 HD
ENDROOT
BRANCH   1   5
HETATM    5  N   UNL     1     -40.681  53.672 -55.294  1.00  0.00    -0.166 NA
HETATM    6  C   UNL     1     -40.496  53.330 -54.060  1.00  0.00     0.157 A 
HETATM    7  C   UNL     1     -40.145  51.996 -53.590  1.00  0.00     0.027 A 
HETATM    8  C   UNL     1     -40.588  54.204 -52.805  1.00  0.00     0.277 A 
HETATM    9  C   UNL     1     -39.916  50.828 -54.287  1.00  0.00     0.016 A 
HETATM   10  C   UNL     1     -40.050  52.074 -52.203  1.00  0.00     0.048 A 
HETATM   11  C   UNL     1     -39.578  49.699 -53.534  1.00  0.00     0.001 A 
HETATM   12  C   UNL     1     -39.482  49.771 -52.129  1.00  0.00     0.002 A 
HETATM   13  C   UNL     1     -39.721  50.970 -51.445  1.00  0.00     0.030 A 
HETATM   14  N   UNL     1     -40.315  53.365 -51.747  1.00  0.00    -0.321 N 
HETATM   15  H   UNL     1     -40.303  53.666 -50.785  1.00  0.00     0.169 HD
HETATM   16  O   UNL     1     -40.840  55.391 -52.808  1.00  0.00    -0.266 OA
ENDBRANCH   1   5
BRANCH   2  17
HETATM   17  C   UNL     1     -42.394  56.817 -56.309  1.00  0.00     0.197 C 
BRANCH  17  18
HETATM   18  N   UNL     1     -43.285  57.458 -55.334  1.00  0.00    -0.284 NA
HETATM   19  H   UNL     1     -44.104  56.870 -55.173  1.00  0.00     0.128 HD
BRANCH  18  20
HETATM   20  C   UNL     1     -42.780  57.987 -54.145  1.00  0.00     0.008 A 
HETATM   21  C   UNL     1     -43.398  57.823 -52.901  1.00  0.00     0.025 A 
HETATM   22  C   UNL     1     -42.802  58.295 -51.724  1.00  0.00     0.021 A 
HETATM   23  C   UNL     1     -41.557  58.913 -51.778  1.00  0.00     0.011 A 
HETATM   24 BR   UNL     1     -40.745  59.535 -50.190  1.00  0.00    -0.051 Br
HETATM   25  C   UNL     1     -40.902  59.053 -52.995  1.00  0.00     0.021 A 
HETATM   26  C   UNL     1     -41.506  58.579 -54.164  1.00  0.00     0.025 A 
ENDBRANCH  18  20
ENDBRANCH  17  18
ENDBRANCH   2  17
TORSDOF 4
ENDMDL
MODEL 3
REMARK VINA RESULT:      -7.9      2.356      2.625
REMARK  4 active torsions:
REMARK  status: ('A' for Active; 'I' for Inactive)
REMARK    1  A    between atoms: N_7  and  N_8 
REMARK       I    between atoms: N_8  and  C_9 
REMARK    2  A    between atoms: C_9  and  C_10 
REMARK    3  A    between atoms: C_10  and  N_11 
REMARK    4  A    between atoms: N_11  and  C_12 
ROOT
HETATM    1  N   UNL     1     -40.957  54.825 -55.615  1.00  0.00    -0.245 N 
HETATM    2  C   UNL     1     -42.239  55.134 -56.038  1.00  0.00     0.250 C 
HETATM    3  O   UNL     1     -43.192  54.355 -56.046  1.00  0.00    -0.270 OA
HETATM    4  H   UNL     1     -40.263  55.564 -55.482  1.00  0.00     0.192 HD
ENDROOT
BRANCH   1   5
HETATM    5  N   UNL     1     -40.645  53.545 -55.249  1.00  0.00    -0.166 NA
HETATM    6  C   UNL     1     -40.500  53.321 -53.983  1.00  0.00     0.157 A 
HETATM    7  C   UNL     1     -40.157  52.040 -53.380  1.00  0.00     0.027 A 
HETATM    8  C   UNL     1     -40.638  54.308 -52.819  1.00  0.00     0.277 A 
HETATM    9  C   UNL     1     -39.897  50.814 -53.957  1.00  0.00     0.016 A 
HETATM   10  C   UNL     1     -40.108  52.248 -52.003  1.00  0.00     0.048 A 
HETATM   11  C   UNL     1     -39.578  49.764 -53.091  1.00  0.00     0.001 A 
HETATM   12  C   UNL     1     -39.529  49.967 -51.696  1.00  0.00     0.002 A 
HETATM   13  C   UNL     1     -39.798  51.222 -51.136  1.00  0.00     0.030 A 
HETATM   14  N   UNL     1     -40.396  53.573 -51.679  1.00  0.00    -0.321 N 
HETATM   15  H   UNL     1     -40.417  53.963 -50.749  1.00  0.00     0.169 HD
HETATM   16  O   UNL     1     -40.897  55.487 -52.941  1.00  0.00    -0.266 OA
ENDBRANCH   1   5
BRANCH   2  17
HETATM   17  C   UNL     1     -42.394  56.588 -56.491  1.00  0.00     0.197 C 
BRANCH  17  18
HETATM   18  N   UNL     1     -42.362  56.697 -57.954  1.00  0.00    -0.284 NA
HETATM   19  H   UNL     1     -43.164  56.209 -58.356  1.00  0.00     0.128 HD
BRANCH  18  20
HETATM   20  C   UNL     1     -42.134  57.927 -58.574  1.00  0.00     0.008 A 
HETATM   21  C   UNL     1     -42.160  58.110 -59.961  1.00  0.00     0.025 A 
HETATM   22  C   UNL     1     -42.017  59.384 -60.529  1.00  0.00     0.021 A 
HETATM   23  C   UNL     1     -41.878  60.496 -59.707  1.00  0.00     0.011 A 
HETATM   24 BR   UNL     1     -41.702  62.216 -60.471  1.00  0.00    -0.051 Br
HETATM   25  C   UNL     1     -41.890  60.348 -58.326  1.00  0.00     0.021 A 
HETATM   26  C   UNL     1     -42.032  59.073 -57.769  1.00  0.00     0.025 A 
ENDBRANCH  18  20
ENDBRANCH  17  18
ENDBRANCH   2  17
TORSDOF 4
ENDMDL
MODEL 4
REMARK VINA RESULT:      -7.8      3.271      8.255
REMARK  4 active torsions:
REMARK  status: ('A' for Active; 'I' for Inactive)
REMARK    1  A    between atoms: N_7  and  N_8 
REMARK       I    between atoms: N_8  and  C_9 
REMARK    2  A    between atoms: C_9  and  C_10 
REMARK    3  A    between atoms: C_10  and  N_11 
REMARK    4  A    between atoms: N_11  and  C_12 
ROOT
HETATM    1  N   UNL     1     -42.909  57.210 -54.536  1.00  0.00    -0.245 N 
HETATM    2  C   UNL     1     -41.923  57.041 -53.577  1.00  0.00     0.250 C 
HETATM    3  O   UNL     1     -40.862  57.664 -53.532  1.00  0.00    -0.270 OA
HETATM    4  H   UNL     1     -43.828  56.779 -54.415  1.00  0.00     0.192 HD
ENDROOT
BRANCH   1   5
HETATM    5  N   UNL     1     -42.704  58.060 -55.588  1.00  0.00    -0.166 NA
HETATM    6  C   UNL     1     -42.632  57.524 -56.763  1.00  0.00     0.157 A 
HETATM    7  C   UNL     1     -42.407  58.240 -58.012  1.00  0.00     0.027 A 
HETATM    8  C   UNL     1     -42.754  56.045 -57.146  1.00  0.00     0.277 A 
HETATM    9  C   UNL     1     -42.207  59.583 -58.256  1.00  0.00     0.016 A 
HETATM   10  C   UNL     1     -42.407  57.283 -59.025  1.00  0.00     0.048 A 
HETATM   11  C   UNL     1     -42.002  59.959 -59.587  1.00  0.00     0.001 A 
HETATM   12  C   UNL     1     -42.003  58.996 -60.618  1.00  0.00     0.002 A 
HETATM   13  C   UNL     1     -42.208  57.638 -60.343  1.00  0.00     0.030 A 
HETATM   14  N   UNL     1     -42.616  56.003 -58.515  1.00  0.00    -0.321 N 
HETATM   15  H   UNL     1     -42.652  55.151 -59.054  1.00  0.00     0.169 HD
HETATM   16  O   UNL     1     -42.925  55.140 -56.355  1.00  0.00    -0.266 OA
ENDBRANCH   1   5
BRANCH   2  17
HETATM   17  C   UNL     1     -42.279  55.994 -52.520  1.00  0.00     0.197 C 
BRANCH  17  18
HETATM   18  N   UNL     1     -41.076  55.352 -51.980  1.00  0.00    -0.284 NA
HETATM   19  H   UNL     1     -41.102  55.367 -50.958  1.00  0.00     0.128 HD
BRANCH  18  20
HETATM   20  C   UNL     1     -40.641  54.119 -52.472  1.00  0.00     0.008 A 
HETATM   21  C   UNL     1     -40.180  53.080 -51.656  1.00  0.00     0.025 A 
HETATM   22  C   UNL     1     -39.843  51.830 -52.193  1.00  0.00     0.021 A 
HETATM   23  C   UNL     1     -39.995  51.597 -53.555  1.00  0.00     0.011 A 
HETATM   24 BR   UNL     1     -39.557  49.907 -54.277  1.00  0.00    -0.051 Br
HETATM   25  C   UNL     1     -40.489  52.598 -54.381  1.00  0.00     0.021 A 
HETATM   26  C   UNL     1     -40.822  53.843 -53.837  1.00  0.00     0.025 A 
ENDBRANCH  18  20
ENDBRANCH  17  18
ENDBRANCH   2  17
TORSDOF 4
ENDMDL
MODEL 5
REMARK VINA RESULT:      -7.7      2.532      3.663
REMARK  4 active torsions:
REMARK  status: ('A' for Active; 'I' for Inactive)
REMARK    1  A    between atoms: N_7  and  N_8 
REMARK       I    between atoms: N_8  and  C_9 
REMARK    2  A    between atoms: C_9  and  C_10 
REMARK    3  A    between atoms: C_10  and  N_11 
REMARK    4  A    between atoms: N_11  and  C_12 
ROOT
HETATM    1  N   UNL     1     -42.129  57.868 -53.622  1.00  0.00    -0.245 N 
HETATM    2  C   UNL     1     -41.369  59.024 -53.694  1.00  0.00     0.250 C 
HETATM    3  O   UNL     1     -40.208  59.136 -53.301  1.00  0.00    -0.270 OA
HETATM    4  H   UNL     1     -43.022  57.803 -54.116  1.00  0.00     0.192 HD
ENDROOT
BRANCH   1   5
HETATM    5  N   UNL     1     -41.632  56.758 -52.998  1.00  0.00    -0.166 NA
HETATM    6  C   UNL     1     -41.351  55.743 -53.751  1.00  0.00     0.157 A 
HETATM    7  C   UNL     1     -40.826  54.464 -53.292  1.00  0.00     0.027 A 
HETATM    8  C   UNL     1     -41.494  55.616 -55.271  1.00  0.00     0.277 A 
HETATM    9  C   UNL     1     -40.526  54.017 -52.022  1.00  0.00     0.016 A 
HETATM   10  C   UNL     1     -40.668  53.669 -54.426  1.00  0.00     0.048 A 
HETATM   11  C   UNL     1     -40.044  52.709 -51.910  1.00  0.00     0.001 A 
HETATM   12  C   UNL     1     -39.878  51.900 -53.054  1.00  0.00     0.002 A 
HETATM   13  C   UNL     1     -40.191  52.379 -54.333  1.00  0.00     0.030 A 
HETATM   14  N   UNL     1     -41.054  54.349 -55.580  1.00  0.00    -0.321 N 
HETATM   15  H   UNL     1     -41.033  53.979 -56.518  1.00  0.00     0.169 HD
HETATM   16  O   UNL     1     -41.927  56.486 -55.999  1.00  0.00    -0.266 OA
ENDBRANCH   1   5
BRANCH   2  17
HETATM   17  C   UNL     1     -42.106  60.194 -54.349  1.00  0.00     0.197 C 
BRANCH  17  18
HETATM   18  N   UNL     1     -41.676  60.384 -55.739  1.00  0.00    -0.284 NA
HETATM   19  H   UNL     1     -40.672  60.216 -55.819  1.00  0.00     0.128 HD
BRANCH  18  20
HETATM   20  C   UNL     1     -42.387  59.805 -56.792  1.00  0.00     0.008 A 
HETATM   21  C   UNL     1     -41.802  59.432 -58.008  1.00  0.00     0.025 A 
HETATM   22  C   UNL     1     -42.541  58.769 -58.997  1.00  0.00     0.021 A 
HETATM   23  C   UNL     1     -43.872  58.443 -58.765  1.00  0.00     0.011 A 
HETATM   24 BR   UNL     1     -44.864  57.535 -60.092  1.00  0.00    -0.051 Br
HETATM   25  C   UNL     1     -44.467  58.766 -57.552  1.00  0.00     0.021 A 
HETATM   26  C   UNL     1     -43.721  59.428 -56.571  1.00  0.00     0.025 A 
ENDBRANCH  18  20
ENDBRANCH  17  18
ENDBRANCH   2  17
TORSDOF 4
ENDMDL
MODEL 6
REMARK VINA RESULT:      -7.6      1.623      2.447
REMARK  4 active torsions:
REMARK  status: ('A' for Active; 'I' for Inactive)
REMARK    1  A    between atoms: N_7  and  N_8 
REMARK       I    between atoms: N_8  and  C_9 
REMARK    2  A    between atoms: C_9  and  C_10 
REMARK    3  A    between atoms: C_10  and  N_11 
REMARK    4  A    between atoms: N_11  and  C_12 
ROOT
HETATM    1  N   UNL     1     -41.292  55.999 -53.153  1.00  0.00    -0.245 N 
HETATM    2  C   UNL     1     -42.594  56.414 -53.381  1.00  0.00     0.250 C 
HETATM    3  O   UNL     1     -43.592  55.962 -52.819  1.00  0.00    -0.270 OA
HETATM    4  H   UNL     1     -40.505  56.531 -53.532  1.00  0.00     0.192 HD
ENDROOT
BRANCH   1   5
HETATM    5  N   UNL     1     -41.043  54.950 -52.313  1.00  0.00    -0.166 NA
HETATM    6  C   UNL     1     -40.623  53.854 -52.859  1.00  0.00     0.157 A 
HETATM    7  C   UNL     1     -40.312  52.617 -52.154  1.00  0.00     0.027 A 
HETATM    8  C   UNL     1     -40.355  53.569 -54.340  1.00  0.00     0.277 A 
HETATM    9  C   UNL     1     -40.393  52.301 -50.813  1.00  0.00     0.016 A 
HETATM   10  C   UNL     1     -39.895  51.703 -53.118  1.00  0.00     0.048 A 
HETATM   11  C   UNL     1     -40.030  51.001 -50.449  1.00  0.00     0.001 A 
HETATM   12  C   UNL     1     -39.603  50.070 -51.420  1.00  0.00     0.002 A 
HETATM   13  C   UNL     1     -39.531  50.418 -52.775  1.00  0.00     0.030 A 
HETATM   14  N   UNL     1     -39.916  52.265 -54.394  1.00  0.00    -0.321 N 
HETATM   15  H   UNL     1     -39.661  51.797 -55.250  1.00  0.00     0.169 HD
HETATM   16  O   UNL     1     -40.527  54.367 -55.238  1.00  0.00    -0.266 OA
ENDBRANCH   1   5
BRANCH   2  17
HETATM   17  C   UNL     1     -42.700  57.541 -54.410  1.00  0.00     0.197 C 
BRANCH  17  18
HETATM   18  N   UNL     1     -42.135  57.137 -55.703  1.00  0.00    -0.284 NA
HETATM   19  H   UNL     1     -41.437  56.404 -55.564  1.00  0.00     0.128 HD
BRANCH  18  20
HETATM   20  C   UNL     1     -42.966  56.866 -56.792  1.00  0.00     0.008 A 
HETATM   21  C   UNL     1     -43.746  57.838 -57.429  1.00  0.00     0.025 A 
HETATM   22  C   UNL     1     -44.492  57.534 -58.576  1.00  0.00     0.021 A 
HETATM   23  C   UNL     1     -44.438  56.254 -59.118  1.00  0.00     0.011 A 
HETATM   24 BR   UNL     1     -45.429  55.848 -60.674  1.00  0.00    -0.051 Br
HETATM   25  C   UNL     1     -43.639  55.282 -58.529  1.00  0.00     0.021 A 
HETATM   26  C   UNL     1     -42.899  55.595 -57.384  1.00  0.00     0.025 A 
ENDBRANCH  18  20
ENDBRANCH  17  18
ENDBRANCH   2  17
TORSDOF 4
ENDMDL
MODEL 7
REMARK VINA RESULT:      -7.4      5.021      6.052
REMARK  4 active torsions:
REMARK  status: ('A' for Active; 'I' for Inactive)
REMARK    1  A    between atoms: N_7  and  N_8 
REMARK       I    between atoms: N_8  and  C_9 
REMARK    2  A    between atoms: C_9  and  C_10 
REMARK    3  A    between atoms: C_10  and  N_11 
REMARK    4  A    between atoms: N_11  and  C_12 
ROOT
HETATM    1  N   UNL     1     -41.448  55.692 -53.357  1.00  0.00    -0.245 N 
HETATM    2  C   UNL     1     -42.743  56.172 -53.468  1.00  0.00     0.250 C 
HETATM    3  O   UNL     1     -43.711  55.520 -53.860  1.00  0.00    -0.270 OA
HETATM    4  H   UNL     1     -40.734  56.238 -52.870  1.00  0.00     0.192 HD
ENDROOT
BRANCH   1   5
HETATM    5  N   UNL     1     -41.146  54.428 -53.782  1.00  0.00    -0.166 NA
HETATM    6  C   UNL     1     -40.715  53.600 -52.887  1.00  0.00     0.157 A 
HETATM    7  C   UNL     1     -40.324  52.217 -53.125  1.00  0.00     0.027 A 
HETATM    8  C   UNL     1     -40.499  53.842 -51.389  1.00  0.00     0.277 A 
HETATM    9  C   UNL     1     -40.297  51.477 -54.290  1.00  0.00     0.016 A 
HETATM   10  C   UNL     1     -39.930  51.696 -51.895  1.00  0.00     0.048 A 
HETATM   11  C   UNL     1     -39.850  50.156 -54.188  1.00  0.00     0.001 A 
HETATM   12  C   UNL     1     -39.452  49.621 -52.945  1.00  0.00     0.002 A 
HETATM   13  C   UNL     1     -39.491  50.394 -51.777  1.00  0.00     0.030 A 
HETATM   14  N   UNL     1     -40.040  52.648 -50.882  1.00  0.00    -0.321 N 
HETATM   15  H   UNL     1     -39.808  52.506 -49.910  1.00  0.00     0.169 HD
HETATM   16  O   UNL     1     -40.699  54.899 -50.825  1.00  0.00    -0.266 OA
ENDBRANCH   1   5
BRANCH   2  17
HETATM   17  C   UNL     1     -42.889  57.629 -53.025  1.00  0.00     0.197 C 
BRANCH  17  18
HETATM   18  N   UNL     1     -43.994  57.789 -52.073  1.00  0.00    -0.284 NA
HETATM   19  H   UNL     1     -44.134  56.920 -51.553  1.00  0.00     0.128 HD
BRANCH  18  20
HETATM   20  C   UNL     1     -44.067  58.910 -51.244  1.00  0.00     0.008 A 
HETATM   21  C   UNL     1     -42.997  59.788 -51.036  1.00  0.00     0.025 A 
HETATM   22  C   UNL     1     -43.149  60.951 -50.268  1.00  0.00     0.021 A 
HETATM   23  C   UNL     1     -44.390  61.263 -49.724  1.00  0.00     0.011 A 
HETATM   24 BR   UNL     1     -44.601  62.838 -48.702  1.00  0.00    -0.051 Br
HETATM   25  C   UNL     1     -45.479  60.430 -49.949  1.00  0.00     0.021 A 
HETATM   26  C   UNL     1     -45.316  59.272 -50.716  1.00  0.00     0.025 A 
ENDBRANCH  18  20
ENDBRANCH  17  18
ENDBRANCH   2  17
TORSDOF 4
ENDMDL
MODEL 8
REMARK VINA RESULT:      -7.3     14.463     17.610
REMARK  4 active torsions:
REMARK  status: ('A' for Active; 'I' for Inactive)
REMARK    1  A    between atoms: N_7  and  N_8 
REMARK       I    between atoms: N_8  and  C_9 
REMARK    2  A    between atoms: C_9  and  C_10 
REMARK    3  A    between atoms: C_10  and  N_11 
REMARK    4  A    between atoms: N_11  and  C_12 
ROOT
HETATM    1  N   UNL     1     -35.000  42.198 -54.362  1.00  0.00    -0.245 N 
HETATM    2  C   UNL     1     -35.728  42.218 -53.183  1.00  0.00     0.250 C 
HETATM    3  O   UNL     1     -36.954  42.283 -53.106  1.00  0.00    -0.270 OA
HETATM    4  H   UNL     1     -34.002  41.977 -54.351  1.00  0.00     0.192 HD
ENDROOT
BRANCH   1   5
HETATM    5  N   UNL     1     -35.637  42.345 -55.563  1.00  0.00    -0.166 NA
HETATM    6  C   UNL     1     -35.657  41.312 -56.342  1.00  0.00     0.157 A 
HETATM    7  C   UNL     1     -36.267  41.255 -57.664  1.00  0.00     0.027 A 
HETATM    8  C   UNL     1     -35.064  39.921 -56.095  1.00  0.00     0.277 A 
HETATM    9  C   UNL     1     -36.923  42.224 -58.395  1.00  0.00     0.016 A 
HETATM   10  C   UNL     1     -36.062  39.963 -58.142  1.00  0.00     0.048 A 
HETATM   11  C   UNL     1     -37.387  41.854 -59.660  1.00  0.00     0.001 A 
HETATM   12  C   UNL     1     -37.186  40.546 -60.150  1.00  0.00     0.002 A 
HETATM   13  C   UNL     1     -36.516  39.581 -59.387  1.00  0.00     0.030 A 
HETATM   14  N   UNL     1     -35.364  39.185 -57.220  1.00  0.00    -0.321 N 
HETATM   15  H   UNL     1     -35.095  38.221 -57.343  1.00  0.00     0.169 HD
HETATM   16  O   UNL     1     -34.453  39.598 -55.097  1.00  0.00    -0.266 OA
ENDBRANCH   1   5
BRANCH   2  17
HETATM   17  C   UNL     1     -34.853  42.126 -51.930  1.00  0.00     0.197 C 
BRANCH  17  18
HETATM   18  N   UNL     1     -33.791  41.127 -52.094  1.00  0.00    -0.284 NA
HETATM   19  H   UNL     1     -32.989  41.546 -52.568  1.00  0.00     0.128 HD
BRANCH  18  20
HETATM   20  C   UNL     1     -33.400  40.318 -51.026  1.00  0.00     0.008 A 
HETATM   21  C   UNL     1     -32.089  40.258 -50.540  1.00  0.00     0.025 A 
HETATM   22  C   UNL     1     -31.768  39.500 -49.405  1.00  0.00     0.021 A 
HETATM   23  C   UNL     1     -32.768  38.816 -48.724  1.00  0.00     0.011 A 
HETATM   24 BR   UNL     1     -32.339  37.808 -47.185  1.00  0.00    -0.051 Br
HETATM   25  C   UNL     1     -34.084  38.891 -49.161  1.00  0.00     0.021 A 
HETATM   26  C   UNL     1     -34.395  39.649 -50.294  1.00  0.00     0.025 A 
ENDBRANCH  18  20
ENDBRANCH  17  18
ENDBRANCH   2  17
TORSDOF 4
ENDMDL
MODEL 9
REMARK VINA RESULT:      -7.3      6.468      9.178
REMARK  4 active torsions:
REMARK  status: ('A' for Active; 'I' for Inactive)
REMARK    1  A    between atoms: N_7  and  N_8 
REMARK       I    between atoms: N_8  and  C_9 
REMARK    2  A    between atoms: C_9  and  C_10 
REMARK    3  A    between atoms: C_10  and  N_11 
REMARK    4  A    between atoms: N_11  and  C_12 
ROOT
HETATM    1  N   UNL     1     -42.096  59.321 -52.886  1.00  0.00    -0.245 N 
HETATM    2  C   UNL     1     -40.861  58.745 -53.137  1.00  0.00     0.250 C 
HETATM    3  O   UNL     1     -39.779  59.192 -52.759  1.00  0.00    -0.270 OA
HETATM    4  H   UNL     1     -42.958  58.808 -53.088  1.00  0.00     0.192 HD
ENDROOT
BRANCH   1   5
HETATM    5  N   UNL     1     -42.174  60.526 -52.246  1.00  0.00    -0.166 NA
HETATM    6  C   UNL     1     -43.043  60.625 -51.293  1.00  0.00     0.157 A 
HETATM    7  C   UNL     1     -43.298  61.816 -50.494  1.00  0.00     0.027 A 
HETATM    8  C   UNL     1     -44.008  59.556 -50.769  1.00  0.00     0.277 A 
HETATM    9  C   UNL     1     -42.734  63.074 -50.548  1.00  0.00     0.016 A 
HETATM   10  C   UNL     1     -44.302  61.481 -49.588  1.00  0.00     0.048 A 
HETATM   11  C   UNL     1     -43.214  64.021 -49.639  1.00  0.00     0.001 A 
HETATM   12  C   UNL     1     -44.228  63.687 -48.716  1.00  0.00     0.002 A 
HETATM   13  C   UNL     1     -44.784  62.402 -48.682  1.00  0.00     0.030 A 
HETATM   14  N   UNL     1     -44.709  60.157 -49.748  1.00  0.00    -0.321 N 
HETATM   15  H   UNL     1     -45.424  59.690 -49.211  1.00  0.00     0.169 HD
HETATM   16  O   UNL     1     -44.098  58.430 -51.213  1.00  0.00    -0.266 OA
ENDBRANCH   1   5
BRANCH   2  17
HETATM   17  C   UNL     1     -40.951  57.442 -53.934  1.00  0.00     0.197 C 
BRANCH  17  18
HETATM   18  N   UNL     1     -41.479  56.348 -53.111  1.00  0.00    -0.284 NA
HETATM   19  H   UNL     1     -42.500  56.375 -53.109  1.00  0.00     0.128 HD
BRANCH  18  20
HETATM   20  C   UNL     1     -40.992  55.048 -53.253  1.00  0.00     0.008 A 
HETATM   21  C   UNL     1     -40.927  54.127 -52.201  1.00  0.00     0.025 A 
HETATM   22  C   UNL     1     -40.516  52.804 -52.417  1.00  0.00     0.021 A 
HETATM   23  C   UNL     1     -40.196  52.380 -53.702  1.00  0.00     0.011 A 
HETATM   24 BR   UNL     1     -39.658  50.592 -53.997  1.00  0.00    -0.051 Br
HETATM   25  C   UNL     1     -40.291  53.262 -54.771  1.00  0.00     0.021 A 
HETATM   26  C   UNL     1     -40.701  54.580 -54.545  1.00  0.00     0.025 A 
ENDBRANCH  18  20
ENDBRANCH  17  18
ENDBRANCH   2  17
TORSDOF 4
ENDMDL
MODEL 10
REMARK VINA RESULT:      -7.2     13.928     15.914
REMARK  4 active torsions:
REMARK  status: ('A' for Active; 'I' for Inactive)
REMARK    1  A    between atoms: N_7  and  N_8 
REMARK       I    between atoms: N_8  and  C_9 
REMARK    2  A    between atoms: C_9  and  C_10 
REMARK    3  A    between atoms: C_10  and  N_11 
REMARK    4  A    between atoms: N_11  and  C_12 
ROOT
HETATM    1  N   UNL     1     -35.633  40.328 -53.117  1.00  0.00    -0.245 N 
HETATM    2  C   UNL     1     -36.387  41.461 -53.378  1.00  0.00     0.250 C 
HETATM    3  O   UNL     1     -36.167  42.582 -52.919  1.00  0.00    -0.270 OA
HETATM    4  H   UNL     1     -35.776  39.475 -53.661  1.00  0.00     0.192 HD
ENDROOT
BRANCH   1   5
HETATM    5  N   UNL     1     -34.605  40.381 -52.219  1.00  0.00    -0.166 NA
HETATM    6  C   UNL     1     -34.679  39.585 -51.201  1.00  0.00     0.157 A 
HETATM    7  C   UNL     1     -33.703  39.489 -50.123  1.00  0.00     0.027 A 
HETATM    8  C   UNL     1     -35.776  38.570 -50.864  1.00  0.00     0.277 A 
HETATM    9  C   UNL     1     -32.531  40.183 -49.906  1.00  0.00     0.016 A 
HETATM   10  C   UNL     1     -34.172  38.511 -49.248  1.00  0.00     0.048 A 
HETATM   11  C   UNL     1     -31.813  39.862 -48.750  1.00  0.00     0.001 A 
HETATM   12  C   UNL     1     -32.280  38.871 -47.861  1.00  0.00     0.002 A 
HETATM   13  C   UNL     1     -33.473  38.181 -48.106  1.00  0.00     0.030 A 
HETATM   14  N   UNL     1     -35.380  37.972 -49.688  1.00  0.00    -0.321 N 
HETATM   15  H   UNL     1     -35.913  37.255 -49.220  1.00  0.00     0.169 HD
HETATM   16  O   UNL     1     -36.773  38.384 -51.531  1.00  0.00    -0.266 OA
ENDBRANCH   1   5
BRANCH   2  17
HETATM   17  C   UNL     1     -37.549  41.208 -54.341  1.00  0.00     0.197 C 
BRANCH  17  18
HETATM   18  N   UNL     1     -37.477  42.093 -55.509  1.00  0.00    -0.284 NA
HETATM   19  H   UNL     1     -36.702  42.749 -55.400  1.00  0.00     0.128 HD
BRANCH  18  20
HETATM   20  C   UNL     1     -37.544  41.574 -56.804  1.00  0.00     0.008 A 
HETATM   21  C   UNL     1     -36.980  42.204 -57.919  1.00  0.00     0.025 A 
HETATM   22  C   UNL     1     -36.994  41.596 -59.182  1.00  0.00     0.021 A 
HETATM   23  C   UNL     1     -37.548  40.329 -59.334  1.00  0.00     0.011 A 
HETATM   24 BR   UNL     1     -37.553  39.502 -61.033  1.00  0.00    -0.051 Br
HETATM   25  C   UNL     1     -38.079  39.665 -58.236  1.00  0.00     0.021 A 
HETATM   26  C   UNL     1     -38.060  40.280 -56.980  1.00  0.00     0.025 A 
ENDBRANCH  18  20
ENDBRANCH  17  18
ENDBRANCH   2  17
TORSDOF 4
ENDMDL
