MODEL 1
REMARK VINA RESULT:      -8.5      0.000      0.000
REMARK  9 active torsions:
REMARK  status: ('A' for Active; 'I' for Inactive)
REMARK    1  A    between atoms: C_4  and  C_5 
REMARK    2  A    between atoms: C_8  and  C_9 
REMARK       I    between atoms: C_9  and  N_10 
REMARK    3  A    between atoms: N_10  and  C_11 
REMARK    4  A    between atoms: N_10  and  C_26 
REMARK    5  A    between atoms: C_11  and  C_12 
REMARK    6  A    between atoms: C_11  and  C_21 
REMARK       I    between atoms: C_12  and  N_13 
REMARK    7  A    between atoms: N_13  and  C_14 
REMARK    8  A    between atoms: C_14  and  C_15 
REMARK    9  A    between atoms: C_26  and  C_27 
ROOT
HETATM    1  C   UNL     1     -41.139  56.633 -50.448  1.00  0.00     0.271 C 
HETATM    2  N   UNL     1     -41.841  57.153 -51.538  1.00  0.00    -0.324 N 
HETATM    3  O   UNL     1     -40.767  57.352 -49.522  1.00  0.00    -0.266 OA
ENDROOT
BRANCH   2   4
HETATM    4  C   UNL     1     -41.940  58.616 -51.751  1.00  0.00     0.220 C 
BRANCH   4   5
HETATM    5  C   UNL     1     -41.436  59.160 -53.115  1.00  0.00     0.245 C 
HETATM    6  N   UNL     1     -42.392  59.504 -54.039  1.00  0.00    -0.357 N 
HETATM    7  H   UNL     1     -43.359  59.242 -53.839  1.00  0.00     0.162 HD
HETATM    8  O   UNL     1     -40.231  59.265 -53.353  1.00  0.00    -0.271 OA
BRANCH   6   9
HETATM    9  C   UNL     1     -42.072  60.000 -55.361  1.00  0.00     0.154 C 
BRANCH   9  10
HETATM   10  C   UNL     1     -43.192  59.809 -56.398  1.00  0.00     0.139 C 
HETATM   11  O   UNL     1     -44.062  58.753 -55.933  1.00  0.00    -0.384 OA
HETATM   12  C   UNL     1     -43.919  57.617 -56.795  1.00  0.00     0.168 C 
HETATM   13  C   UNL     1     -42.699  57.863 -57.653  1.00  0.00     0.029 C 
HETATM   14  C   UNL     1     -42.700  59.366 -57.770  1.00  0.00     0.035 C 
ENDBRANCH   9  10
ENDBRANCH   6   9
ENDBRANCH   4   5
BRANCH   4  15
HETATM   15  C   UNL     1     -43.288  59.210 -51.367  1.00  0.00     0.014 A 
HETATM   16  S   UNL     1     -43.324  60.814 -50.718  1.00  0.00    -0.104 SA
HETATM   17  C   UNL     1     -45.020  60.799 -50.554  1.00  0.00     0.050 A 
HETATM   18  C   UNL     1     -45.568  59.619 -50.994  1.00  0.00     0.008 A 
HETATM   19  C   UNL     1     -44.576  58.713 -51.470  1.00  0.00     0.017 A 
ENDBRANCH   4  15
ENDBRANCH   2   4
BRANCH   2  20
HETATM   20  C   UNL     1     -42.919  56.363 -52.150  1.00  0.00     0.173 C 
BRANCH  20  21
HETATM   21  C   UNL     1     -42.499  55.782 -53.471  1.00  0.00     0.000 A 
HETATM   22  S   UNL     1     -43.572  54.703 -54.275  1.00  0.00    -0.105 SA
HETATM   23  C   UNL     1     -42.484  54.471 -55.570  1.00  0.00     0.050 A 
HETATM   24  C   UNL     1     -41.335  55.210 -55.416  1.00  0.00     0.008 A 
HETATM   25  C   UNL     1     -41.345  55.969 -54.210  1.00  0.00     0.017 A 
ENDBRANCH  20  21
ENDBRANCH   2  20
BRANCH   1  26
HETATM   26  C   UNL     1     -40.875  55.208 -50.410  1.00  0.00     0.101 A 
HETATM   27  N   UNL     1     -40.601  54.406 -51.494  1.00  0.00    -0.351 N 
HETATM   28  C   UNL     1     -40.379  53.101 -51.108  1.00  0.00     0.043 A 
HETATM   29  H   UNL     1     -40.584  54.726 -52.452  1.00  0.00     0.166 HD
HETATM   30  C   UNL     1     -40.466  53.089 -49.726  1.00  0.00     0.033 A 
HETATM   31  C   UNL     1     -40.746  54.405 -49.291  1.00  0.00     0.037 A 
BRANCH  28  32
HETATM   32  C   UNL     1     -40.109  52.016 -52.057  1.00  0.00    -0.009 A 
HETATM   33  C   UNL     1     -39.686  50.751 -51.623  1.00  0.00     0.013 A 
HETATM   34  C   UNL     1     -39.441  49.725 -52.540  1.00  0.00     0.001 A 
HETATM   35  C   UNL     1     -39.615  49.949 -53.903  1.00  0.00     0.000 A 
HETATM   36  C   UNL     1     -40.035  51.199 -54.351  1.00  0.00     0.001 A 
HETATM   37  C   UNL     1     -40.280  52.224 -53.433  1.00  0.00     0.013 A 
ENDBRANCH  28  32
ENDBRANCH   1  26
TORSDOF 9
ENDMDL
MODEL 2
REMARK VINA RESULT:      -8.3      2.454      4.832
REMARK  9 active torsions:
REMARK  status: ('A' for Active; 'I' for Inactive)
REMARK    1  A    between atoms: C_4  and  C_5 
REMARK    2  A    between atoms: C_8  and  C_9 
REMARK       I    between atoms: C_9  and  N_10 
REMARK    3  A    between atoms: N_10  and  C_11 
REMARK    4  A    between atoms: N_10  and  C_26 
REMARK    5  A    between atoms: C_11  and  C_12 
REMARK    6  A    between atoms: C_11  and  C_21 
REMARK       I    between atoms: C_12  and  N_13 
REMARK    7  A    between atoms: N_13  and  C_14 
REMARK    8  A    between atoms: C_14  and  C_15 
REMARK    9  A    between atoms: C_26  and  C_27 
ROOT
HETATM    1  C   UNL     1     -42.718  56.425 -51.028  1.00  0.00     0.271 C 
HETATM    2  N   UNL     1     -42.354  57.557 -51.761  1.00  0.00    -0.324 N 
HETATM    3  O   UNL     1     -43.867  56.265 -50.621  1.00  0.00    -0.266 OA
ENDROOT
BRANCH   2   4
HETATM    4  C   UNL     1     -43.262  58.725 -51.856  1.00  0.00     0.220 C 
BRANCH   4   5
HETATM    5  C   UNL     1     -43.201  59.754 -50.695  1.00  0.00     0.245 C 
HETATM    6  N   UNL     1     -44.401  60.171 -50.172  1.00  0.00    -0.357 N 
HETATM    7  H   UNL     1     -45.252  59.906 -50.669  1.00  0.00     0.162 HD
HETATM    8  O   UNL     1     -42.123  60.178 -50.276  1.00  0.00    -0.271 OA
BRANCH   6   9
HETATM    9  C   UNL     1     -44.501  61.145 -49.105  1.00  0.00     0.154 C 
BRANCH   9  10
HETATM   10  C   UNL     1     -45.500  60.771 -47.997  1.00  0.00     0.139 C 
HETATM   11  O   UNL     1     -46.679  61.593 -48.156  1.00  0.00    -0.384 OA
HETATM   12  C   UNL     1     -46.758  62.513 -47.059  1.00  0.00     0.168 C 
HETATM   13  C   UNL     1     -45.425  62.466 -46.346  1.00  0.00     0.029 C 
HETATM   14  C   UNL     1     -44.994  61.042 -46.586  1.00  0.00     0.035 C 
ENDBRANCH   9  10
ENDBRANCH   6   9
ENDBRANCH   4   5
BRANCH   4  15
HETATM   15  C   UNL     1     -43.259  59.405 -53.218  1.00  0.00     0.014 A 
HETATM   16  S   UNL     1     -44.631  59.184 -54.250  1.00  0.00    -0.104 SA
HETATM   17  C   UNL     1     -43.970  60.164 -55.477  1.00  0.00     0.050 A 
HETATM   18  C   UNL     1     -42.744  60.673 -55.124  1.00  0.00     0.008 A 
HETATM   19  C   UNL     1     -42.342  60.246 -53.825  1.00  0.00     0.017 A 
ENDBRANCH   4  15
ENDBRANCH   2   4
BRANCH   2  20
HETATM   20  C   UNL     1     -41.391  57.429 -52.864  1.00  0.00     0.173 C 
BRANCH  20  21
HETATM   21  C   UNL     1     -41.793  56.348 -53.828  1.00  0.00     0.000 A 
HETATM   22  S   UNL     1     -40.561  55.387 -54.548  1.00  0.00    -0.105 SA
HETATM   23  C   UNL     1     -41.693  54.485 -55.455  1.00  0.00     0.050 A 
HETATM   24  C   UNL     1     -42.986  54.884 -55.207  1.00  0.00     0.008 A 
HETATM   25  C   UNL     1     -43.044  55.954 -54.267  1.00  0.00     0.017 A 
ENDBRANCH  20  21
ENDBRANCH   2  20
BRANCH   1  26
HETATM   26  C   UNL     1     -41.712  55.413 -50.773  1.00  0.00     0.101 A 
HETATM   27  N   UNL     1     -41.606  54.197 -51.411  1.00  0.00    -0.351 N 
HETATM   28  C   UNL     1     -40.525  53.480 -50.945  1.00  0.00     0.043 A 
HETATM   29  H   UNL     1     -42.248  53.864 -52.117  1.00  0.00     0.166 HD
HETATM   30  C   UNL     1     -39.896  54.291 -50.016  1.00  0.00     0.033 A 
HETATM   31  C   UNL     1     -40.618  55.504 -49.930  1.00  0.00     0.037 A 
BRANCH  28  32
HETATM   32  C   UNL     1     -40.194  52.130 -51.413  1.00  0.00    -0.009 A 
HETATM   33  C   UNL     1     -39.934  51.866 -52.766  1.00  0.00     0.013 A 
HETATM   34  C   UNL     1     -39.611  50.575 -53.194  1.00  0.00     0.001 A 
HETATM   35  C   UNL     1     -39.543  49.530 -52.276  1.00  0.00     0.000 A 
HETATM   36  C   UNL     1     -39.797  49.775 -50.929  1.00  0.00     0.001 A 
HETATM   37  C   UNL     1     -40.120  51.066 -50.501  1.00  0.00     0.013 A 
ENDBRANCH  28  32
ENDBRANCH   1  26
TORSDOF 9
ENDMDL
MODEL 3
REMARK VINA RESULT:      -8.3      3.160      5.778
REMARK  9 active torsions:
REMARK  status: ('A' for Active; 'I' for Inactive)
REMARK    1  A    between atoms: C_4  and  C_5 
REMARK    2  A    between atoms: C_8  and  C_9 
REMARK       I    between atoms: C_9  and  N_10 
REMARK    3  A    between atoms: N_10  and  C_11 
REMARK    4  A    between atoms: N_10  and  C_26 
REMARK    5  A    between atoms: C_11  and  C_12 
REMARK    6  A    between atoms: C_11  and  C_21 
REMARK       I    between atoms: C_12  and  N_13 
REMARK    7  A    between atoms: N_13  and  C_14 
REMARK    8  A    between atoms: C_14  and  C_15 
REMARK    9  A    between atoms: C_26  and  C_27 
ROOT
HETATM    1  C   UNL     1     -43.745  57.083 -51.143  1.00  0.00     0.271 C 
HETATM    2  N   UNL     1     -43.428  58.387 -51.533  1.00  0.00    -0.324 N 
HETATM    3  O   UNL     1     -44.909  56.737 -50.946  1.00  0.00    -0.266 OA
ENDROOT
BRANCH   2   4
HETATM    4  C   UNL     1     -44.442  59.466 -51.474  1.00  0.00     0.220 C 
BRANCH   4   5
HETATM    5  C   UNL     1     -44.225  60.571 -50.405  1.00  0.00     0.245 C 
HETATM    6  N   UNL     1     -44.885  60.417 -49.210  1.00  0.00    -0.357 N 
HETATM    7  H   UNL     1     -45.590  59.681 -49.150  1.00  0.00     0.162 HD
HETATM    8  O   UNL     1     -43.501  61.542 -50.630  1.00  0.00    -0.271 OA
BRANCH   6   9
HETATM    9  C   UNL     1     -44.800  61.378 -48.130  1.00  0.00     0.154 C 
BRANCH   9  10
HETATM   10  C   UNL     1     -45.628  61.011 -46.887  1.00  0.00     0.139 C 
HETATM   11  O   UNL     1     -46.942  61.595 -47.031  1.00  0.00    -0.384 OA
HETATM   12  C   UNL     1     -47.098  62.639 -46.062  1.00  0.00     0.168 C 
HETATM   13  C   UNL     1     -45.727  62.918 -45.488  1.00  0.00     0.029 C 
HETATM   14  C   UNL     1     -45.070  61.565 -45.582  1.00  0.00     0.035 C 
ENDBRANCH   9  10
ENDBRANCH   6   9
ENDBRANCH   4   5
BRANCH   4  15
HETATM   15  C   UNL     1     -44.805  60.052 -52.830  1.00  0.00     0.014 A 
HETATM   16  S   UNL     1     -45.062  58.966 -54.153  1.00  0.00    -0.104 SA
HETATM   17  C   UNL     1     -45.411  60.235 -55.236  1.00  0.00     0.050 A 
HETATM   18  C   UNL     1     -45.358  61.462 -54.623  1.00  0.00     0.008 A 
HETATM   19  C   UNL     1     -45.021  61.357 -53.242  1.00  0.00     0.017 A 
ENDBRANCH   4  15
ENDBRANCH   2   4
BRANCH   2  20
HETATM   20  C   UNL     1     -42.338  58.612 -52.493  1.00  0.00     0.173 C 
BRANCH  20  21
HETATM   21  C   UNL     1     -41.055  58.976 -51.799  1.00  0.00     0.000 A 
HETATM   22  S   UNL     1     -39.571  58.744 -52.638  1.00  0.00    -0.105 SA
HETATM   23  C   UNL     1     -38.651  59.308 -51.314  1.00  0.00     0.050 A 
HETATM   24  C   UNL     1     -39.446  59.688 -50.259  1.00  0.00     0.008 A 
HETATM   25  C   UNL     1     -40.831  59.502 -50.540  1.00  0.00     0.017 A 
ENDBRANCH  20  21
ENDBRANCH   2  20
BRANCH   1  26
HETATM   26  C   UNL     1     -42.669  56.123 -50.999  1.00  0.00     0.101 A 
HETATM   27  N   UNL     1     -42.319  55.155 -51.914  1.00  0.00    -0.351 N 
HETATM   28  C   UNL     1     -41.238  54.420 -51.477  1.00  0.00     0.043 A 
HETATM   29  H   UNL     1     -42.804  54.990 -52.785  1.00  0.00     0.166 HD
HETATM   30  C   UNL     1     -40.860  54.976 -50.266  1.00  0.00     0.033 A 
HETATM   31  C   UNL     1     -41.732  56.052 -49.984  1.00  0.00     0.037 A 
BRANCH  28  32
HETATM   32  C   UNL     1     -40.675  53.293 -52.227  1.00  0.00    -0.009 A 
HETATM   33  C   UNL     1     -40.866  53.165 -53.611  1.00  0.00     0.013 A 
HETATM   34  C   UNL     1     -40.316  52.089 -54.313  1.00  0.00     0.001 A 
HETATM   35  C   UNL     1     -39.567  51.125 -53.641  1.00  0.00     0.000 A 
HETATM   36  C   UNL     1     -39.368  51.237 -52.267  1.00  0.00     0.001 A 
HETATM   37  C   UNL     1     -39.919  52.314 -51.566  1.00  0.00     0.013 A 
ENDBRANCH  28  32
ENDBRANCH   1  26
TORSDOF 9
ENDMDL
MODEL 4
REMARK VINA RESULT:      -8.2      1.844      3.051
REMARK  9 active torsions:
REMARK  status: ('A' for Active; 'I' for Inactive)
REMARK    1  A    between atoms: C_4  and  C_5 
REMARK    2  A    between atoms: C_8  and  C_9 
REMARK       I    between atoms: C_9  and  N_10 
REMARK    3  A    between atoms: N_10  and  C_11 
REMARK    4  A    between atoms: N_10  and  C_26 
REMARK    5  A    between atoms: C_11  and  C_12 
REMARK    6  A    between atoms: C_11  and  C_21 
REMARK       I    between atoms: C_12  and  N_13 
REMARK    7  A    between atoms: N_13  and  C_14 
REMARK    8  A    between atoms: C_14  and  C_15 
REMARK    9  A    between atoms: C_26  and  C_27 
ROOT
HETATM    1  C   UNL     1     -41.367  57.075 -53.118  1.00  0.00     0.271 C 
HETATM    2  N   UNL     1     -42.489  57.712 -53.653  1.00  0.00    -0.324 N 
HETATM    3  O   UNL     1     -40.743  57.557 -52.174  1.00  0.00    -0.266 OA
ENDROOT
BRANCH   2   4
HETATM    4  C   UNL     1     -42.818  59.110 -53.284  1.00  0.00     0.220 C 
BRANCH   4   5
HETATM    5  C   UNL     1     -43.061  60.103 -54.452  1.00  0.00     0.245 C 
HETATM    6  N   UNL     1     -42.176  60.057 -55.501  1.00  0.00    -0.357 N 
HETATM    7  H   UNL     1     -41.333  59.491 -55.386  1.00  0.00     0.162 HD
HETATM    8  O   UNL     1     -44.002  60.899 -54.426  1.00  0.00    -0.271 OA
BRANCH   6   9
HETATM    9  C   UNL     1     -42.261  60.938 -56.647  1.00  0.00     0.154 C 
BRANCH   9  10
HETATM   10  C   UNL     1     -41.407  60.501 -57.848  1.00  0.00     0.139 C 
HETATM   11  O   UNL     1     -40.408  61.518 -58.087  1.00  0.00    -0.384 OA
HETATM   12  C   UNL     1     -40.700  62.178 -59.326  1.00  0.00     0.168 C 
HETATM   13  C   UNL     1     -42.096  61.762 -59.730  1.00  0.00     0.029 C 
HETATM   14  C   UNL     1     -42.186  60.372 -59.152  1.00  0.00     0.035 C 
ENDBRANCH   9  10
ENDBRANCH   6   9
ENDBRANCH   4   5
BRANCH   4  15
HETATM   15  C   UNL     1     -43.882  59.232 -52.203  1.00  0.00     0.014 A 
HETATM   16  S   UNL     1     -43.625  60.366 -50.921  1.00  0.00    -0.104 SA
HETATM   17  C   UNL     1     -45.107  59.983 -50.173  1.00  0.00     0.050 A 
HETATM   18  C   UNL     1     -45.806  59.032 -50.875  1.00  0.00     0.008 A 
HETATM   19  C   UNL     1     -45.109  58.609 -52.044  1.00  0.00     0.017 A 
ENDBRANCH   4  15
ENDBRANCH   2   4
BRANCH   2  20
HETATM   20  C   UNL     1     -43.629  56.909 -54.115  1.00  0.00     0.173 C 
BRANCH  20  21
HETATM   21  C   UNL     1     -43.980  57.214 -55.545  1.00  0.00     0.000 A 
HETATM   22  S   UNL     1     -45.470  58.009 -55.876  1.00  0.00    -0.105 SA
HETATM   23  C   UNL     1     -45.192  57.985 -57.560  1.00  0.00     0.050 A 
HETATM   24  C   UNL     1     -43.985  57.407 -57.875  1.00  0.00     0.008 A 
HETATM   25  C   UNL     1     -43.285  56.967 -56.714  1.00  0.00     0.017 A 
ENDBRANCH  20  21
ENDBRANCH   2  20
BRANCH   1  26
HETATM   26  C   UNL     1     -40.960  55.802 -53.681  1.00  0.00     0.101 A 
HETATM   27  N   UNL     1     -40.799  54.624 -52.988  1.00  0.00    -0.351 N 
HETATM   28  C   UNL     1     -40.423  53.597 -53.827  1.00  0.00     0.043 A 
HETATM   29  H   UNL     1     -40.922  54.526 -51.990  1.00  0.00     0.166 HD
HETATM   30  C   UNL     1     -40.394  54.134 -55.103  1.00  0.00     0.033 A 
HETATM   31  C   UNL     1     -40.755  55.498 -55.015  1.00  0.00     0.037 A 
BRANCH  28  32
HETATM   32  C   UNL     1     -40.137  52.237 -53.356  1.00  0.00    -0.009 A 
HETATM   33  C   UNL     1     -39.817  51.979 -52.015  1.00  0.00     0.013 A 
HETATM   34  C   UNL     1     -39.555  50.676 -51.580  1.00  0.00     0.001 A 
HETATM   35  C   UNL     1     -39.609  49.615 -52.480  1.00  0.00     0.000 A 
HETATM   36  C   UNL     1     -39.926  49.854 -53.815  1.00  0.00     0.001 A 
HETATM   37  C   UNL     1     -40.188  51.157 -54.248  1.00  0.00     0.013 A 
ENDBRANCH  28  32
ENDBRANCH   1  26
TORSDOF 9
ENDMDL
MODEL 5
REMARK VINA RESULT:      -8.1      2.610      4.027
REMARK  9 active torsions:
REMARK  status: ('A' for Active; 'I' for Inactive)
REMARK    1  A    between atoms: C_4  and  C_5 
REMARK    2  A    between atoms: C_8  and  C_9 
REMARK       I    between atoms: C_9  and  N_10 
REMARK    3  A    between atoms: N_10  and  C_11 
REMARK    4  A    between atoms: N_10  and  C_26 
REMARK    5  A    between atoms: C_11  and  C_12 
REMARK    6  A    between atoms: C_11  and  C_21 
REMARK       I    between atoms: C_12  and  N_13 
REMARK    7  A    between atoms: N_13  and  C_14 
REMARK    8  A    between atoms: C_14  and  C_15 
REMARK    9  A    between atoms: C_26  and  C_27 
ROOT
HETATM    1  C   UNL     1     -44.057  57.546 -54.045  1.00  0.00     0.271 C 
HETATM    2  N   UNL     1     -43.463  58.810 -54.002  1.00  0.00    -0.324 N 
HETATM    3  O   UNL     1     -45.033  57.319 -54.759  1.00  0.00    -0.266 OA
ENDROOT
BRANCH   2   4
HETATM    4  C   UNL     1     -44.132  59.986 -54.607  1.00  0.00     0.220 C 
BRANCH   4   5
HETATM    5  C   UNL     1     -44.720  59.799 -56.031  1.00  0.00     0.245 C 
HETATM    6  N   UNL     1     -43.873  59.305 -56.994  1.00  0.00    -0.357 N 
HETATM    7  H   UNL     1     -42.881  59.238 -56.761  1.00  0.00     0.162 HD
HETATM    8  O   UNL     1     -45.891  60.091 -56.281  1.00  0.00    -0.271 OA
BRANCH   6   9
HETATM    9  C   UNL     1     -44.273  59.103 -58.370  1.00  0.00     0.154 C 
BRANCH   9  10
HETATM   10  C   UNL     1     -44.621  57.647 -58.722  1.00  0.00     0.139 C 
HETATM   11  O   UNL     1     -43.949  56.782 -57.779  1.00  0.00    -0.384 OA
HETATM   12  C   UNL     1     -42.925  56.049 -58.465  1.00  0.00     0.168 C 
HETATM   13  C   UNL     1     -42.752  56.695 -59.821  1.00  0.00     0.029 C 
HETATM   14  C   UNL     1     -44.142  57.207 -60.100  1.00  0.00     0.035 C 
ENDBRANCH   9  10
ENDBRANCH   6   9
ENDBRANCH   4   5
BRANCH   4  15
HETATM   15  C   UNL     1     -45.109  60.691 -53.678  1.00  0.00     0.014 A 
HETATM   16  S   UNL     1     -45.254  62.412 -53.790  1.00  0.00    -0.104 SA
HETATM   17  C   UNL     1     -46.435  62.476 -52.562  1.00  0.00     0.050 A 
HETATM   18  C   UNL     1     -46.740  61.228 -52.078  1.00  0.00     0.008 A 
HETATM   19  C   UNL     1     -45.988  60.204 -52.724  1.00  0.00     0.017 A 
ENDBRANCH   4  15
ENDBRANCH   2   4
BRANCH   2  20
HETATM   20  C   UNL     1     -42.003  58.921 -53.882  1.00  0.00     0.173 C 
BRANCH  20  21
HETATM   21  C   UNL     1     -41.587  59.290 -52.485  1.00  0.00     0.000 A 
HETATM   22  S   UNL     1     -39.982  58.931 -51.981  1.00  0.00    -0.105 SA
HETATM   23  C   UNL     1     -40.253  59.565 -50.418  1.00  0.00     0.050 A 
HETATM   24  C   UNL     1     -41.527  60.062 -50.279  1.00  0.00     0.008 A 
HETATM   25  C   UNL     1     -42.295  59.908 -51.470  1.00  0.00     0.017 A 
ENDBRANCH  20  21
ENDBRANCH   2  20
BRANCH   1  26
HETATM   26  C   UNL     1     -43.482  56.483 -53.245  1.00  0.00     0.101 A 
HETATM   27  N   UNL     1     -42.597  55.525 -53.686  1.00  0.00    -0.351 N 
HETATM   28  C   UNL     1     -42.230  54.674 -52.666  1.00  0.00     0.043 A 
HETATM   29  H   UNL     1     -42.272  55.443 -54.640  1.00  0.00     0.166 HD
HETATM   30  C   UNL     1     -42.867  55.141 -51.529  1.00  0.00     0.033 A 
HETATM   31  C   UNL     1     -43.622  56.282 -51.883  1.00  0.00     0.037 A 
BRANCH  28  32
HETATM   32  C   UNL     1     -41.332  53.530 -52.856  1.00  0.00    -0.009 A 
HETATM   33  C   UNL     1     -41.220  52.885 -54.097  1.00  0.00     0.013 A 
HETATM   34  C   UNL     1     -40.353  51.802 -54.264  1.00  0.00     0.001 A 
HETATM   35  C   UNL     1     -39.585  51.348 -53.194  1.00  0.00     0.000 A 
HETATM   36  C   UNL     1     -39.684  51.978 -51.956  1.00  0.00     0.001 A 
HETATM   37  C   UNL     1     -40.551  53.062 -51.790  1.00  0.00     0.013 A 
ENDBRANCH  28  32
ENDBRANCH   1  26
TORSDOF 9
ENDMDL
MODEL 6
REMARK VINA RESULT:      -8.1      1.525      2.934
REMARK  9 active torsions:
REMARK  status: ('A' for Active; 'I' for Inactive)
REMARK    1  A    between atoms: C_4  and  C_5 
REMARK    2  A    between atoms: C_8  and  C_9 
REMARK       I    between atoms: C_9  and  N_10 
REMARK    3  A    between atoms: N_10  and  C_11 
REMARK    4  A    between atoms: N_10  and  C_26 
REMARK    5  A    between atoms: C_11  and  C_12 
REMARK    6  A    between atoms: C_11  and  C_21 
REMARK       I    between atoms: C_12  and  N_13 
REMARK    7  A    between atoms: N_13  and  C_14 
REMARK    8  A    between atoms: C_14  and  C_15 
REMARK    9  A    between atoms: C_26  and  C_27 
ROOT
HETATM    1  C   UNL     1     -41.231  57.290 -53.617  1.00  0.00     0.271 C 
HETATM    2  N   UNL     1     -42.456  57.794 -53.173  1.00  0.00    -0.324 N 
HETATM    3  O   UNL     1     -40.212  57.979 -53.610  1.00  0.00    -0.266 OA
ENDROOT
BRANCH   2   4
HETATM    4  C   UNL     1     -42.635  59.244 -52.922  1.00  0.00     0.220 C 
BRANCH   4   5
HETATM    5  C   UNL     1     -42.467  60.190 -54.142  1.00  0.00     0.245 C 
HETATM    6  N   UNL     1     -42.279  59.598 -55.367  1.00  0.00    -0.357 N 
HETATM    7  H   UNL     1     -42.107  58.591 -55.384  1.00  0.00     0.162 HD
HETATM    8  O   UNL     1     -42.492  61.415 -54.007  1.00  0.00    -0.271 OA
BRANCH   6   9
HETATM    9  C   UNL     1     -42.082  60.351 -56.587  1.00  0.00     0.154 C 
BRANCH   9  10
HETATM   10  C   UNL     1     -42.991  59.921 -57.751  1.00  0.00     0.139 C 
HETATM   11  O   UNL     1     -43.597  58.655 -57.407  1.00  0.00    -0.384 OA
HETATM   12  C   UNL     1     -43.066  57.635 -58.263  1.00  0.00     0.168 C 
HETATM   13  C   UNL     1     -41.868  58.229 -58.968  1.00  0.00     0.029 C 
HETATM   14  C   UNL     1     -42.253  59.684 -59.063  1.00  0.00     0.035 C 
ENDBRANCH   9  10
ENDBRANCH   6   9
ENDBRANCH   4   5
BRANCH   4  15
HETATM   15  C   UNL     1     -43.874  59.585 -52.107  1.00  0.00     0.014 A 
HETATM   16  S   UNL     1     -45.397  59.670 -52.923  1.00  0.00    -0.104 SA
HETATM   17  C   UNL     1     -46.238  60.050 -51.491  1.00  0.00     0.050 A 
HETATM   18  C   UNL     1     -45.403  60.097 -50.402  1.00  0.00     0.008 A 
HETATM   19  C   UNL     1     -44.049  59.820 -50.753  1.00  0.00     0.017 A 
ENDBRANCH   4  15
ENDBRANCH   2   4
BRANCH   2  20
HETATM   20  C   UNL     1     -43.375  56.919 -52.433  1.00  0.00     0.173 C 
BRANCH  20  21
HETATM   21  C   UNL     1     -42.680  56.215 -51.301  1.00  0.00     0.000 A 
HETATM   22  S   UNL     1     -43.118  54.588 -50.950  1.00  0.00    -0.105 SA
HETATM   23  C   UNL     1     -42.019  54.498 -49.646  1.00  0.00     0.050 A 
HETATM   24  C   UNL     1     -41.313  55.666 -49.486  1.00  0.00     0.008 A 
HETATM   25  C   UNL     1     -41.690  56.654 -50.442  1.00  0.00     0.017 A 
ENDBRANCH  20  21
ENDBRANCH   2  20
BRANCH   1  26
HETATM   26  C   UNL     1     -41.171  55.913 -54.067  1.00  0.00     0.101 A 
HETATM   27  N   UNL     1     -40.709  54.842 -53.336  1.00  0.00    -0.351 N 
HETATM   28  C   UNL     1     -40.808  53.668 -54.052  1.00  0.00     0.043 A 
HETATM   29  H   UNL     1     -40.329  54.908 -52.402  1.00  0.00     0.166 HD
HETATM   30  C   UNL     1     -41.399  54.002 -55.259  1.00  0.00     0.033 A 
HETATM   31  C   UNL     1     -41.650  55.393 -55.256  1.00  0.00     0.037 A 
BRANCH  28  32
HETATM   32  C   UNL     1     -40.349  52.373 -53.540  1.00  0.00    -0.009 A 
HETATM   33  C   UNL     1     -40.262  51.246 -54.371  1.00  0.00     0.013 A 
HETATM   34  C   UNL     1     -39.814  50.020 -53.869  1.00  0.00     0.001 A 
HETATM   35  C   UNL     1     -39.447  49.904 -52.531  1.00  0.00     0.000 A 
HETATM   36  C   UNL     1     -39.528  51.013 -51.692  1.00  0.00     0.001 A 
HETATM   37  C   UNL     1     -39.975  52.238 -52.195  1.00  0.00     0.013 A 
ENDBRANCH  28  32
ENDBRANCH   1  26
TORSDOF 9
ENDMDL
MODEL 7
REMARK VINA RESULT:      -8.0      2.771      7.705
REMARK  9 active torsions:
REMARK  status: ('A' for Active; 'I' for Inactive)
REMARK    1  A    between atoms: C_4  and  C_5 
REMARK    2  A    between atoms: C_8  and  C_9 
REMARK       I    between atoms: C_9  and  N_10 
REMARK    3  A    between atoms: N_10  and  C_11 
REMARK    4  A    between atoms: N_10  and  C_26 
REMARK    5  A    between atoms: C_11  and  C_12 
REMARK    6  A    between atoms: C_11  and  C_21 
REMARK       I    between atoms: C_12  and  N_13 
REMARK    7  A    between atoms: N_13  and  C_14 
REMARK    8  A    between atoms: C_14  and  C_15 
REMARK    9  A    between atoms: C_26  and  C_27 
ROOT
HETATM    1  C   UNL     1     -42.388  55.900 -55.191  1.00  0.00     0.271 C 
HETATM    2  N   UNL     1     -43.206  56.441 -54.196  1.00  0.00    -0.324 N 
HETATM    3  O   UNL     1     -41.550  55.037 -54.935  1.00  0.00    -0.266 OA
ENDROOT
BRANCH   2   4
HETATM    4  C   UNL     1     -42.925  56.191 -52.762  1.00  0.00     0.220 C 
BRANCH   4   5
HETATM    5  C   UNL     1     -42.649  54.721 -52.349  1.00  0.00     0.245 C 
HETATM    6  N   UNL     1     -41.334  54.345 -52.230  1.00  0.00    -0.357 N 
HETATM    7  H   UNL     1     -40.623  54.997 -52.565  1.00  0.00     0.162 HD
HETATM    8  O   UNL     1     -43.574  53.931 -52.149  1.00  0.00    -0.271 OA
BRANCH   6   9
HETATM    9  C   UNL     1     -40.924  53.001 -51.878  1.00  0.00     0.154 C 
BRANCH   9  10
HETATM   10  C   UNL     1     -39.703  52.486 -52.659  1.00  0.00     0.139 C 
HETATM   11  O   UNL     1     -40.126  52.180 -54.007  1.00  0.00    -0.384 OA
HETATM   12  C   UNL     1     -40.072  50.761 -54.203  1.00  0.00     0.168 C 
HETATM   13  C   UNL     1     -39.894  50.132 -52.839  1.00  0.00     0.029 C 
HETATM   14  C   UNL     1     -39.112  51.194 -52.108  1.00  0.00     0.035 C 
ENDBRANCH   9  10
ENDBRANCH   6   9
ENDBRANCH   4   5
BRANCH   4  15
HETATM   15  C   UNL     1     -41.913  57.151 -52.152  1.00  0.00     0.014 A 
HETATM   16  S   UNL     1     -41.043  58.209 -53.210  1.00  0.00    -0.104 SA
HETATM   17  C   UNL     1     -40.185  58.926 -51.924  1.00  0.00     0.050 A 
HETATM   18  C   UNL     1     -40.551  58.402 -50.708  1.00  0.00     0.008 A 
HETATM   19  C   UNL     1     -41.548  57.392 -50.838  1.00  0.00     0.017 A 
ENDBRANCH   4  15
ENDBRANCH   2   4
BRANCH   2  20
HETATM   20  C   UNL     1     -44.605  56.769 -54.505  1.00  0.00     0.173 C 
BRANCH  20  21
HETATM   21  C   UNL     1     -44.873  58.241 -54.363  1.00  0.00     0.000 A 
HETATM   22  S   UNL     1     -45.159  59.168 -55.785  1.00  0.00    -0.105 SA
HETATM   23  C   UNL     1     -45.339  60.613 -54.894  1.00  0.00     0.050 A 
HETATM   24  C   UNL     1     -45.208  60.405 -53.542  1.00  0.00     0.008 A 
HETATM   25  C   UNL     1     -44.944  59.038 -53.235  1.00  0.00     0.017 A 
ENDBRANCH  20  21
ENDBRANCH   2  20
BRANCH   1  26
HETATM   26  C   UNL     1     -42.564  56.357 -56.556  1.00  0.00     0.101 A 
HETATM   27  N   UNL     1     -42.140  57.562 -57.068  1.00  0.00    -0.351 N 
HETATM   28  C   UNL     1     -42.449  57.674 -58.406  1.00  0.00     0.043 A 
HETATM   29  H   UNL     1     -41.678  58.281 -56.529  1.00  0.00     0.166 HD
HETATM   30  C   UNL     1     -43.045  56.477 -58.765  1.00  0.00     0.033 A 
HETATM   31  C   UNL     1     -43.090  55.648 -57.621  1.00  0.00     0.037 A 
BRANCH  28  32
HETATM   32  C   UNL     1     -42.156  58.871 -59.202  1.00  0.00    -0.009 A 
HETATM   33  C   UNL     1     -42.188  58.845 -60.604  1.00  0.00     0.013 A 
HETATM   34  C   UNL     1     -41.915  59.996 -61.348  1.00  0.00     0.001 A 
HETATM   35  C   UNL     1     -41.607  61.190 -60.701  1.00  0.00     0.000 A 
HETATM   36  C   UNL     1     -41.572  61.234 -59.309  1.00  0.00     0.001 A 
HETATM   37  C   UNL     1     -41.845  60.082 -58.566  1.00  0.00     0.013 A 
ENDBRANCH  28  32
ENDBRANCH   1  26
TORSDOF 9
ENDMDL
MODEL 8
REMARK VINA RESULT:      -7.8      3.063      5.439
REMARK  9 active torsions:
REMARK  status: ('A' for Active; 'I' for Inactive)
REMARK    1  A    between atoms: C_4  and  C_5 
REMARK    2  A    between atoms: C_8  and  C_9 
REMARK       I    between atoms: C_9  and  N_10 
REMARK    3  A    between atoms: N_10  and  C_11 
REMARK    4  A    between atoms: N_10  and  C_26 
REMARK    5  A    between atoms: C_11  and  C_12 
REMARK    6  A    between atoms: C_11  and  C_21 
REMARK       I    between atoms: C_12  and  N_13 
REMARK    7  A    between atoms: N_13  and  C_14 
REMARK    8  A    between atoms: C_14  and  C_15 
REMARK    9  A    between atoms: C_26  and  C_27 
ROOT
HETATM    1  C   UNL     1     -43.772  57.181 -51.040  1.00  0.00     0.271 C 
HETATM    2  N   UNL     1     -43.570  58.489 -51.488  1.00  0.00    -0.324 N 
HETATM    3  O   UNL     1     -44.892  56.771 -50.739  1.00  0.00    -0.266 OA
ENDROOT
BRANCH   2   4
HETATM    4  C   UNL     1     -44.641  59.506 -51.371  1.00  0.00     0.220 C 
BRANCH   4   5
HETATM    5  C   UNL     1     -45.132  59.842 -49.937  1.00  0.00     0.245 C 
HETATM    6  N   UNL     1     -44.390  60.751 -49.223  1.00  0.00    -0.357 N 
HETATM    7  H   UNL     1     -43.487  61.032 -49.608  1.00  0.00     0.162 HD
HETATM    8  O   UNL     1     -46.137  59.306 -49.466  1.00  0.00    -0.271 OA
BRANCH   6   9
HETATM    9  C   UNL     1     -44.711  61.142 -47.866  1.00  0.00     0.154 C 
BRANCH   9  10
HETATM   10  C   UNL     1     -45.676  62.335 -47.762  1.00  0.00     0.139 C 
HETATM   11  O   UNL     1     -44.893  63.550 -47.763  1.00  0.00    -0.384 OA
HETATM   12  C   UNL     1     -44.980  64.163 -46.470  1.00  0.00     0.168 C 
HETATM   13  C   UNL     1     -45.596  63.145 -45.538  1.00  0.00     0.029 C 
HETATM   14  C   UNL     1     -46.488  62.368 -46.472  1.00  0.00     0.035 C 
ENDBRANCH   9  10
ENDBRANCH   6   9
ENDBRANCH   4   5
BRANCH   4  15
HETATM   15  C   UNL     1     -44.398  60.762 -52.196  1.00  0.00     0.014 A 
HETATM   16  S   UNL     1     -45.584  61.216 -53.371  1.00  0.00    -0.104 SA
HETATM   17  C   UNL     1     -44.708  62.598 -53.845  1.00  0.00     0.050 A 
HETATM   18  C   UNL     1     -43.547  62.741 -53.126  1.00  0.00     0.008 A 
HETATM   19  C   UNL     1     -43.374  61.694 -52.174  1.00  0.00     0.017 A 
ENDBRANCH   4  15
ENDBRANCH   2   4
BRANCH   2  20
HETATM   20  C   UNL     1     -42.578  58.751 -52.540  1.00  0.00     0.173 C 
BRANCH  20  21
HETATM   21  C   UNL     1     -42.932  58.051 -53.822  1.00  0.00     0.000 A 
HETATM   22  S   UNL     1     -41.697  57.199 -54.665  1.00  0.00    -0.105 SA
HETATM   23  C   UNL     1     -42.766  56.740 -55.915  1.00  0.00     0.050 A 
HETATM   24  C   UNL     1     -44.042  57.200 -55.696  1.00  0.00     0.008 A 
HETATM   25  C   UNL     1     -44.140  57.951 -54.488  1.00  0.00     0.017 A 
ENDBRANCH  20  21
ENDBRANCH   2  20
BRANCH   1  26
HETATM   26  C   UNL     1     -42.630  56.291 -50.962  1.00  0.00     0.101 A 
HETATM   27  N   UNL     1     -42.352  55.253 -51.822  1.00  0.00    -0.351 N 
HETATM   28  C   UNL     1     -41.178  54.618 -51.477  1.00  0.00     0.043 A 
HETATM   29  H   UNL     1     -42.941  54.977 -52.595  1.00  0.00     0.166 HD
HETATM   30  C   UNL     1     -40.670  55.312 -50.392  1.00  0.00     0.033 A 
HETATM   31  C   UNL     1     -41.559  56.369 -50.090  1.00  0.00     0.037 A 
BRANCH  28  32
HETATM   32  C   UNL     1     -40.657  53.447 -52.190  1.00  0.00    -0.009 A 
HETATM   33  C   UNL     1     -40.828  53.296 -53.574  1.00  0.00     0.013 A 
HETATM   34  C   UNL     1     -40.318  52.178 -54.241  1.00  0.00     0.001 A 
HETATM   35  C   UNL     1     -39.630  51.196 -53.533  1.00  0.00     0.000 A 
HETATM   36  C   UNL     1     -39.450  51.331 -52.158  1.00  0.00     0.001 A 
HETATM   37  C   UNL     1     -39.961  52.449 -51.493  1.00  0.00     0.013 A 
ENDBRANCH  28  32
ENDBRANCH   1  26
TORSDOF 9
ENDMDL
MODEL 9
REMARK VINA RESULT:      -7.7      2.856      5.912
REMARK  9 active torsions:
REMARK  status: ('A' for Active; 'I' for Inactive)
REMARK    1  A    between atoms: C_4  and  C_5 
REMARK    2  A    between atoms: C_8  and  C_9 
REMARK       I    between atoms: C_9  and  N_10 
REMARK    3  A    between atoms: N_10  and  C_11 
REMARK    4  A    between atoms: N_10  and  C_26 
REMARK    5  A    between atoms: C_11  and  C_12 
REMARK    6  A    between atoms: C_11  and  C_21 
REMARK       I    between atoms: C_12  and  N_13 
REMARK    7  A    between atoms: N_13  and  C_14 
REMARK    8  A    between atoms: C_14  and  C_15 
REMARK    9  A    between atoms: C_26  and  C_27 
ROOT
HETATM    1  C   UNL     1     -44.158  57.577 -53.783  1.00  0.00     0.271 C 
HETATM    2  N   UNL     1     -43.927  58.788 -53.125  1.00  0.00    -0.324 N 
HETATM    3  O   UNL     1     -45.287  57.244 -54.138  1.00  0.00    -0.266 OA
ENDROOT
BRANCH   2   4
HETATM    4  C   UNL     1     -45.054  59.595 -52.600  1.00  0.00     0.220 C 
BRANCH   4   5
HETATM    5  C   UNL     1     -45.380  59.440 -51.090  1.00  0.00     0.245 C 
HETATM    6  N   UNL     1     -45.328  60.579 -50.323  1.00  0.00    -0.357 N 
HETATM    7  H   UNL     1     -44.934  61.419 -50.750  1.00  0.00     0.162 HD
HETATM    8  O   UNL     1     -45.661  58.341 -50.608  1.00  0.00    -0.271 OA
BRANCH   6   9
HETATM    9  C   UNL     1     -45.582  60.584 -48.898  1.00  0.00     0.154 C 
BRANCH   9  10
HETATM   10  C   UNL     1     -44.635  61.487 -48.089  1.00  0.00     0.139 C 
HETATM   11  O   UNL     1     -44.529  60.948 -46.753  1.00  0.00    -0.384 OA
HETATM   12  C   UNL     1     -45.166  61.846 -45.834  1.00  0.00     0.168 C 
HETATM   13  C   UNL     1     -45.958  62.835 -46.660  1.00  0.00     0.029 C 
HETATM   14  C   UNL     1     -45.133  62.918 -47.920  1.00  0.00     0.035 C 
ENDBRANCH   9  10
ENDBRANCH   6   9
ENDBRANCH   4   5
BRANCH   4  15
HETATM   15  C   UNL     1     -45.025  61.055 -53.027  1.00  0.00     0.014 A 
HETATM   16  S   UNL     1     -45.889  61.510 -54.456  1.00  0.00    -0.104 SA
HETATM   17  C   UNL     1     -45.445  63.148 -54.304  1.00  0.00     0.050 A 
HETATM   18  C   UNL     1     -44.674  63.369 -53.190  1.00  0.00     0.008 A 
HETATM   19  C   UNL     1     -44.442  62.171 -52.453  1.00  0.00     0.017 A 
ENDBRANCH   4  15
ENDBRANCH   2   4
BRANCH   2  20
HETATM   20  C   UNL     1     -42.702  59.547 -53.411  1.00  0.00     0.173 C 
BRANCH  20  21
HETATM   21  C   UNL     1     -41.728  59.480 -52.268  1.00  0.00     0.000 A 
HETATM   22  S   UNL     1     -40.192  58.750 -52.535  1.00  0.00    -0.105 SA
HETATM   23  C   UNL     1     -39.709  59.005 -50.918  1.00  0.00     0.050 A 
HETATM   24  C   UNL     1     -40.678  59.650 -50.186  1.00  0.00     0.008 A 
HETATM   25  C   UNL     1     -41.839  59.928 -50.964  1.00  0.00     0.017 A 
ENDBRANCH  20  21
ENDBRANCH   2  20
BRANCH   1  26
HETATM   26  C   UNL     1     -43.025  56.719 -54.070  1.00  0.00     0.101 A 
HETATM   27  N   UNL     1     -42.612  55.643 -53.318  1.00  0.00    -0.351 N 
HETATM   28  C   UNL     1     -41.513  55.030 -53.881  1.00  0.00     0.043 A 
HETATM   29  H   UNL     1     -43.045  55.350 -52.453  1.00  0.00     0.166 HD
HETATM   30  C   UNL     1     -41.254  55.712 -55.058  1.00  0.00     0.033 A 
HETATM   31  C   UNL     1     -42.211  56.744 -55.189  1.00  0.00     0.037 A 
BRANCH  28  32
HETATM   32  C   UNL     1     -40.831  53.884 -53.272  1.00  0.00    -0.009 A 
HETATM   33  C   UNL     1     -40.391  52.798 -54.044  1.00  0.00     0.013 A 
HETATM   34  C   UNL     1     -39.734  51.717 -53.449  1.00  0.00     0.001 A 
HETATM   35  C   UNL     1     -39.509  51.706 -52.075  1.00  0.00     0.000 A 
HETATM   36  C   UNL     1     -39.939  52.776 -51.294  1.00  0.00     0.001 A 
HETATM   37  C   UNL     1     -40.596  53.856 -51.890  1.00  0.00     0.013 A 
ENDBRANCH  28  32
ENDBRANCH   1  26
TORSDOF 9
ENDMDL
MODEL 10
REMARK VINA RESULT:      -7.6      3.199      4.708
REMARK  9 active torsions:
REMARK  status: ('A' for Active; 'I' for Inactive)
REMARK    1  A    between atoms: C_4  and  C_5 
REMARK    2  A    between atoms: C_8  and  C_9 
REMARK       I    between atoms: C_9  and  N_10 
REMARK    3  A    between atoms: N_10  and  C_11 
REMARK    4  A    between atoms: N_10  and  C_26 
REMARK    5  A    between atoms: C_11  and  C_12 
REMARK    6  A    between atoms: C_11  and  C_21 
REMARK       I    between atoms: C_12  and  N_13 
REMARK    7  A    between atoms: N_13  and  C_14 
REMARK    8  A    between atoms: C_14  and  C_15 
REMARK    9  A    between atoms: C_26  and  C_27 
ROOT
HETATM    1  C   UNL     1     -42.529  58.789 -53.855  1.00  0.00     0.271 C 
HETATM    2  N   UNL     1     -43.081  59.077 -55.106  1.00  0.00    -0.324 N 
HETATM    3  O   UNL     1     -42.029  59.669 -53.156  1.00  0.00    -0.266 OA
ENDROOT
BRANCH   2   4
HETATM    4  C   UNL     1     -42.856  60.392 -55.751  1.00  0.00     0.220 C 
BRANCH   4   5
HETATM    5  C   UNL     1     -41.923  60.412 -56.991  1.00  0.00     0.245 C 
HETATM    6  N   UNL     1     -41.385  61.626 -57.345  1.00  0.00    -0.357 N 
HETATM    7  H   UNL     1     -41.746  62.458 -56.876  1.00  0.00     0.162 HD
HETATM    8  O   UNL     1     -41.687  59.384 -57.629  1.00  0.00    -0.271 OA
BRANCH   6   9
HETATM    9  C   UNL     1     -40.519  61.803 -58.491  1.00  0.00     0.154 C 
BRANCH   9  10
HETATM   10  C   UNL     1     -40.703  63.143 -59.223  1.00  0.00     0.139 C 
HETATM   11  O   UNL     1     -40.306  62.963 -60.601  1.00  0.00    -0.384 OA
HETATM   12  C   UNL     1     -39.104  63.706 -60.842  1.00  0.00     0.168 C 
HETATM   13  C   UNL     1     -38.565  64.125 -59.493  1.00  0.00     0.029 C 
HETATM   14  C   UNL     1     -39.830  64.271 -58.685  1.00  0.00     0.035 C 
ENDBRANCH   9  10
ENDBRANCH   6   9
ENDBRANCH   4   5
BRANCH   4  15
HETATM   15  C   UNL     1     -44.129  61.193 -55.986  1.00  0.00     0.014 A 
HETATM   16  S   UNL     1     -44.848  62.007 -54.638  1.00  0.00    -0.104 SA
HETATM   17  C   UNL     1     -46.111  62.642 -55.589  1.00  0.00     0.050 A 
HETATM   18  C   UNL     1     -45.998  62.273 -56.907  1.00  0.00     0.008 A 
HETATM   19  C   UNL     1     -44.856  61.451 -57.136  1.00  0.00     0.017 A 
ENDBRANCH   4  15
ENDBRANCH   2   4
BRANCH   2  20
HETATM   20  C   UNL     1     -44.291  58.369 -55.545  1.00  0.00     0.173 C 
BRANCH  20  21
HETATM   21  C   UNL     1     -44.006  57.447 -56.698  1.00  0.00     0.000 A 
HETATM   22  S   UNL     1     -44.803  57.731 -58.197  1.00  0.00    -0.105 SA
HETATM   23  C   UNL     1     -44.056  56.383 -58.932  1.00  0.00     0.050 A 
HETATM   24  C   UNL     1     -43.201  55.735 -58.073  1.00  0.00     0.008 A 
HETATM   25  C   UNL     1     -43.168  56.351 -56.787  1.00  0.00     0.017 A 
ENDBRANCH  20  21
ENDBRANCH   2  20
BRANCH   1  26
HETATM   26  C   UNL     1     -42.581  57.423 -53.373  1.00  0.00     0.101 A 
HETATM   27  N   UNL     1     -41.640  56.445 -53.606  1.00  0.00    -0.351 N 
HETATM   28  C   UNL     1     -41.983  55.262 -52.988  1.00  0.00     0.043 A 
HETATM   29  H   UNL     1     -40.812  56.572 -54.171  1.00  0.00     0.166 HD
HETATM   30  C   UNL     1     -43.158  55.515 -52.300  1.00  0.00     0.033 A 
HETATM   31  C   UNL     1     -43.514  56.866 -52.517  1.00  0.00     0.037 A 
BRANCH  28  32
HETATM   32  C   UNL     1     -41.188  54.035 -53.100  1.00  0.00    -0.009 A 
HETATM   33  C   UNL     1     -41.004  53.392 -54.333  1.00  0.00     0.013 A 
HETATM   34  C   UNL     1     -40.235  52.228 -54.425  1.00  0.00     0.001 A 
HETATM   35  C   UNL     1     -39.640  51.691 -53.286  1.00  0.00     0.000 A 
HETATM   36  C   UNL     1     -39.812  52.318 -52.055  1.00  0.00     0.001 A 
HETATM   37  C   UNL     1     -40.580  53.482 -51.964  1.00  0.00     0.013 A 
ENDBRANCH  28  32
ENDBRANCH   1  26
TORSDOF 9
ENDMDL
