MODEL 1
REMARK VINA RESULT:      -7.2      0.000      0.000
REMARK  9 active torsions:
REMARK  status: ('A' for Active; 'I' for Inactive)
REMARK    1  A    between atoms: C_2  and  C_3 
REMARK    2  A    between atoms: C_3  and  O_4 
REMARK    3  A    between atoms: O_4  and  C_5 
REMARK    4  A    between atoms: C_8  and  C_9 
REMARK    5  A    between atoms: C_13  and  C_14 
REMARK       I    between atoms: C_14  and  N_15 
REMARK    6  A    between atoms: N_15  and  N_16 
REMARK    7  A    between atoms: C_17  and  C_18 
REMARK    8  A    between atoms: C_21  and  C_22 
REMARK    9  A    between atoms: C_22  and  O_23 
ROOT
HETATM    1  C   UNL     1     -44.856  61.069 -48.741  1.00  0.00     0.089 A 
HETATM    2  N   UNL     1     -45.826  60.239 -49.154  1.00  0.00    -0.174 NA
HETATM    3  N   UNL     1     -45.408  59.797 -50.348  1.00  0.00    -0.272 N 
HETATM    4  H   UNL     1     -45.986  59.139 -50.863  1.00  0.00     0.189 HD
HETATM    5  C   UNL     1     -44.185  60.277 -50.728  1.00  0.00     0.121 A 
HETATM    6  C   UNL     1     -43.816  61.134 -49.711  1.00  0.00     0.071 A 
ENDROOT
BRANCH   5   7
HETATM    7  C   UNL     1     -43.560  59.841 -51.954  1.00  0.00     0.289 C 
HETATM    8  N   UNL     1     -43.670  58.482 -52.205  1.00  0.00    -0.242 N 
HETATM    9  H   UNL     1     -44.158  57.880 -51.555  1.00  0.00     0.192 HD
HETATM   10  O   UNL     1     -43.003  60.641 -52.700  1.00  0.00    -0.264 OA
BRANCH   8  11
HETATM   11  N   UNL     1     -43.253  57.968 -53.399  1.00  0.00    -0.184 NA
HETATM   12  C   UNL     1     -44.178  57.790 -54.286  1.00  0.00     0.150 C 
BRANCH  12  13
HETATM   13  C   UNL     1     -43.866  57.295 -55.642  1.00  0.00    -0.017 A 
HETATM   14  C   UNL     1     -44.303  57.986 -56.774  1.00  0.00     0.014 A 
HETATM   15  C   UNL     1     -44.030  57.480 -58.048  1.00  0.00     0.018 A 
HETATM   16  C   UNL     1     -43.319  56.280 -58.196  1.00  0.00     0.039 A 
HETATM   17  C   UNL     1     -42.875  55.598 -57.053  1.00  0.00     0.018 A 
HETATM   18  C   UNL     1     -43.149  56.103 -55.778  1.00  0.00     0.014 A 
BRANCH  16  19
HETATM   19  C   UNL     1     -43.071  55.776 -59.575  1.00  0.00     0.292 C 
HETATM   20  O   UNL     1     -42.219  56.237 -60.320  1.00  0.00    -0.259 OA
BRANCH  19  21
HETATM   21  O   UNL     1     -43.921  54.762 -59.874  1.00  0.00    -0.323 OA
HETATM   22  C   UNL     1     -44.968  55.130 -60.774  1.00  0.00     0.213 C 
ENDBRANCH  19  21
ENDBRANCH  16  19
ENDBRANCH  12  13
ENDBRANCH   8  11
ENDBRANCH   5   7
BRANCH   1  23
HETATM   23  C   UNL     1     -44.917  61.741 -47.441  1.00  0.00    -0.005 A 
HETATM   24  C   UNL     1     -44.742  61.010 -46.258  1.00  0.00     0.016 A 
HETATM   25  C   UNL     1     -44.740  61.646 -45.010  1.00  0.00     0.037 A 
HETATM   26  C   UNL     1     -44.917  63.026 -44.929  1.00  0.00     0.068 A 
HETATM   27  C   UNL     1     -45.125  63.756 -46.101  1.00  0.00     0.037 A 
HETATM   28  C   UNL     1     -45.121  63.123 -47.348  1.00  0.00     0.016 A 
BRANCH  26  29
HETATM   29  O   UNL     1     -44.918  63.769 -43.782  1.00  0.00    -0.351 OA
BRANCH  29  30
HETATM   30  C   UNL     1     -43.738  64.523 -43.504  1.00  0.00     0.175 C 
BRANCH  30  31
HETATM   31  C   UNL     1     -42.934  63.764 -42.454  1.00  0.00     0.022 C 
HETATM   32  C   UNL     1     -43.630  63.756 -41.105  1.00  0.00     0.007 C 
ENDBRANCH  30  31
ENDBRANCH  29  30
ENDBRANCH  26  29
ENDBRANCH   1  23
TORSDOF 9
ENDMDL
MODEL 2
REMARK VINA RESULT:      -7.1      7.959     12.766
REMARK  9 active torsions:
REMARK  status: ('A' for Active; 'I' for Inactive)
REMARK    1  A    between atoms: C_2  and  C_3 
REMARK    2  A    between atoms: C_3  and  O_4 
REMARK    3  A    between atoms: O_4  and  C_5 
REMARK    4  A    between atoms: C_8  and  C_9 
REMARK    5  A    between atoms: C_13  and  C_14 
REMARK       I    between atoms: C_14  and  N_15 
REMARK    6  A    between atoms: N_15  and  N_16 
REMARK    7  A    between atoms: C_17  and  C_18 
REMARK    8  A    between atoms: C_21  and  C_22 
REMARK    9  A    between atoms: C_22  and  O_23 
ROOT
HETATM    1  C   UNL     1     -45.671  58.021 -60.040  1.00  0.00     0.089 A 
HETATM    2  N   UNL     1     -44.586  58.731 -60.384  1.00  0.00    -0.174 NA
HETATM    3  N   UNL     1     -43.672  58.426 -59.451  1.00  0.00    -0.272 N 
HETATM    4  H   UNL     1     -42.749  58.849 -59.506  1.00  0.00     0.189 HD
HETATM    5  C   UNL     1     -44.099  57.518 -58.522  1.00  0.00     0.121 A 
HETATM    6  C   UNL     1     -45.411  57.259 -58.865  1.00  0.00     0.071 A 
ENDROOT
BRANCH   5   7
HETATM    7  C   UNL     1     -43.212  57.030 -57.494  1.00  0.00     0.289 C 
HETATM    8  N   UNL     1     -43.588  55.817 -56.937  1.00  0.00    -0.242 N 
HETATM    9  H   UNL     1     -44.424  55.346 -57.256  1.00  0.00     0.192 HD
HETATM   10  O   UNL     1     -42.203  57.655 -57.179  1.00  0.00    -0.264 OA
BRANCH   8  11
HETATM   11  N   UNL     1     -42.757  55.176 -56.063  1.00  0.00    -0.184 NA
HETATM   12  C   UNL     1     -43.231  54.989 -54.874  1.00  0.00     0.150 C 
BRANCH  12  13
HETATM   13  C   UNL     1     -42.468  54.261 -53.841  1.00  0.00    -0.017 A 
HETATM   14  C   UNL     1     -42.833  54.339 -52.494  1.00  0.00     0.014 A 
HETATM   15  C   UNL     1     -42.074  53.674 -51.528  1.00  0.00     0.018 A 
HETATM   16  C   UNL     1     -40.947  52.927 -51.902  1.00  0.00     0.039 A 
HETATM   17  C   UNL     1     -40.594  52.847 -53.257  1.00  0.00     0.018 A 
HETATM   18  C   UNL     1     -41.352  53.514 -54.226  1.00  0.00     0.014 A 
BRANCH  16  19
HETATM   19  C   UNL     1     -40.163  52.253 -50.830  1.00  0.00     0.292 C 
HETATM   20  O   UNL     1     -40.245  52.547 -49.648  1.00  0.00    -0.259 OA
BRANCH  19  21
HETATM   21  O   UNL     1     -39.358  51.296 -51.357  1.00  0.00    -0.323 OA
HETATM   22  C   UNL     1     -39.654  49.975 -50.900  1.00  0.00     0.213 C 
ENDBRANCH  19  21
ENDBRANCH  16  19
ENDBRANCH  12  13
ENDBRANCH   8  11
ENDBRANCH   5   7
BRANCH   1  23
HETATM   23  C   UNL     1     -46.897  58.047 -60.841  1.00  0.00    -0.005 A 
HETATM   24  C   UNL     1     -47.479  59.269 -61.204  1.00  0.00     0.016 A 
HETATM   25  C   UNL     1     -48.619  59.312 -62.016  1.00  0.00     0.037 A 
HETATM   26  C   UNL     1     -49.195  58.130 -62.477  1.00  0.00     0.068 A 
HETATM   27  C   UNL     1     -48.640  56.907 -62.092  1.00  0.00     0.037 A 
HETATM   28  C   UNL     1     -47.498  56.863 -61.285  1.00  0.00     0.016 A 
BRANCH  26  29
HETATM   29  O   UNL     1     -50.292  58.033 -63.286  1.00  0.00    -0.351 OA
BRANCH  29  30
HETATM   30  C   UNL     1     -51.206  59.129 -63.262  1.00  0.00     0.175 C 
BRANCH  30  31
HETATM   31  C   UNL     1     -52.246  58.847 -62.182  1.00  0.00     0.022 C 
HETATM   32  C   UNL     1     -52.225  59.900 -61.088  1.00  0.00     0.007 C 
ENDBRANCH  30  31
ENDBRANCH  29  30
ENDBRANCH  26  29
ENDBRANCH   1  23
TORSDOF 9
ENDMDL
MODEL 3
REMARK VINA RESULT:      -7.0      5.816      7.291
REMARK  9 active torsions:
REMARK  status: ('A' for Active; 'I' for Inactive)
REMARK    1  A    between atoms: C_2  and  C_3 
REMARK    2  A    between atoms: C_3  and  O_4 
REMARK    3  A    between atoms: O_4  and  C_5 
REMARK    4  A    between atoms: C_8  and  C_9 
REMARK    5  A    between atoms: C_13  and  C_14 
REMARK       I    between atoms: C_14  and  N_15 
REMARK    6  A    between atoms: N_15  and  N_16 
REMARK    7  A    between atoms: C_17  and  C_18 
REMARK    8  A    between atoms: C_21  and  C_22 
REMARK    9  A    between atoms: C_22  and  O_23 
ROOT
HETATM    1  C   UNL     1     -45.345  61.775 -51.413  1.00  0.00     0.089 A 
HETATM    2  N   UNL     1     -44.316  62.520 -50.983  1.00  0.00    -0.174 NA
HETATM    3  N   UNL     1     -43.271  61.679 -50.969  1.00  0.00    -0.272 N 
HETATM    4  H   UNL     1     -42.361  62.025 -50.676  1.00  0.00     0.189 HD
HETATM    5  C   UNL     1     -43.562  60.416 -51.404  1.00  0.00     0.121 A 
HETATM    6  C   UNL     1     -44.916  60.442 -51.672  1.00  0.00     0.071 A 
ENDROOT
BRANCH   5   7
HETATM    7  C   UNL     1     -42.532  59.412 -51.520  1.00  0.00     0.289 C 
HETATM    8  N   UNL     1     -42.757  58.267 -50.769  1.00  0.00    -0.242 N 
HETATM    9  H   UNL     1     -43.589  58.184 -50.201  1.00  0.00     0.192 HD
HETATM   10  O   UNL     1     -41.560  59.582 -52.249  1.00  0.00    -0.264 OA
BRANCH   8  11
HETATM   11  N   UNL     1     -41.935  57.185 -50.906  1.00  0.00    -0.184 NA
HETATM   12  C   UNL     1     -42.468  56.144 -51.458  1.00  0.00     0.150 C 
BRANCH  12  13
HETATM   13  C   UNL     1     -41.684  54.920 -51.721  1.00  0.00    -0.017 A 
HETATM   14  C   UNL     1     -41.756  54.277 -52.959  1.00  0.00     0.014 A 
HETATM   15  C   UNL     1     -41.035  53.099 -53.175  1.00  0.00     0.018 A 
HETATM   16  C   UNL     1     -40.241  52.557 -52.154  1.00  0.00     0.039 A 
HETATM   17  C   UNL     1     -40.168  53.215 -50.917  1.00  0.00     0.018 A 
HETATM   18  C   UNL     1     -40.889  54.394 -50.700  1.00  0.00     0.014 A 
BRANCH  16  19
HETATM   19  C   UNL     1     -39.509  51.290 -52.430  1.00  0.00     0.292 C 
HETATM   20  O   UNL     1     -39.206  50.483 -51.565  1.00  0.00    -0.259 OA
BRANCH  19  21
HETATM   21  O   UNL     1     -39.227  51.179 -53.753  1.00  0.00    -0.323 OA
HETATM   22  C   UNL     1     -39.574  49.912 -54.314  1.00  0.00     0.213 C 
ENDBRANCH  19  21
ENDBRANCH  16  19
ENDBRANCH  12  13
ENDBRANCH   8  11
ENDBRANCH   5   7
BRANCH   1  23
HETATM   23  C   UNL     1     -46.682  62.342 -51.605  1.00  0.00    -0.005 A 
HETATM   24  C   UNL     1     -47.537  61.823 -52.587  1.00  0.00     0.016 A 
HETATM   25  C   UNL     1     -48.838  62.317 -52.746  1.00  0.00     0.037 A 
HETATM   26  C   UNL     1     -49.302  63.341 -51.922  1.00  0.00     0.068 A 
HETATM   27  C   UNL     1     -48.444  63.886 -50.964  1.00  0.00     0.037 A 
HETATM   28  C   UNL     1     -47.147  63.390 -50.801  1.00  0.00     0.016 A 
BRANCH  26  29
HETATM   29  O   UNL     1     -50.549  63.898 -51.960  1.00  0.00    -0.351 OA
BRANCH  29  30
HETATM   30  C   UNL     1     -51.373  63.553 -53.074  1.00  0.00     0.175 C 
BRANCH  30  31
HETATM   31  C   UNL     1     -52.488  62.644 -52.567  1.00  0.00     0.022 C 
HETATM   32  C   UNL     1     -53.040  63.116 -51.235  1.00  0.00     0.007 C 
ENDBRANCH  30  31
ENDBRANCH  29  30
ENDBRANCH  26  29
ENDBRANCH   1  23
TORSDOF 9
ENDMDL
MODEL 4
REMARK VINA RESULT:      -7.0      8.112     10.099
REMARK  9 active torsions:
REMARK  status: ('A' for Active; 'I' for Inactive)
REMARK    1  A    between atoms: C_2  and  C_3 
REMARK    2  A    between atoms: C_3  and  O_4 
REMARK    3  A    between atoms: O_4  and  C_5 
REMARK    4  A    between atoms: C_8  and  C_9 
REMARK    5  A    between atoms: C_13  and  C_14 
REMARK       I    between atoms: C_14  and  N_15 
REMARK    6  A    between atoms: N_15  and  N_16 
REMARK    7  A    between atoms: C_17  and  C_18 
REMARK    8  A    between atoms: C_21  and  C_22 
REMARK    9  A    between atoms: C_22  and  O_23 
ROOT
HETATM    1  C   UNL     1     -41.666  55.713 -55.083  1.00  0.00     0.089 A 
HETATM    2  N   UNL     1     -41.739  56.973 -54.628  1.00  0.00    -0.174 NA
HETATM    3  N   UNL     1     -42.292  57.665 -55.634  1.00  0.00    -0.272 N 
HETATM    4  H   UNL     1     -42.455  58.662 -55.519  1.00  0.00     0.189 HD
HETATM    5  C   UNL     1     -42.618  56.907 -56.725  1.00  0.00     0.121 A 
HETATM    6  C   UNL     1     -42.192  55.633 -56.403  1.00  0.00     0.071 A 
ENDROOT
BRANCH   5   7
HETATM    7  C   UNL     1     -43.288  57.487 -57.863  1.00  0.00     0.289 C 
HETATM    8  N   UNL     1     -43.941  56.572 -58.675  1.00  0.00    -0.242 N 
HETATM    9  H   UNL     1     -43.925  55.587 -58.450  1.00  0.00     0.192 HD
HETATM   10  O   UNL     1     -43.276  58.700 -58.055  1.00  0.00    -0.264 OA
BRANCH   8  11
HETATM   11  N   UNL     1     -44.735  57.006 -59.698  1.00  0.00    -0.184 NA
HETATM   12  C   UNL     1     -46.007  56.996 -59.463  1.00  0.00     0.150 C 
BRANCH  12  13
HETATM   13  C   UNL     1     -46.982  57.490 -60.456  1.00  0.00    -0.017 A 
HETATM   14  C   UNL     1     -47.273  58.854 -60.556  1.00  0.00     0.014 A 
HETATM   15  C   UNL     1     -48.226  59.296 -61.477  1.00  0.00     0.018 A 
HETATM   16  C   UNL     1     -48.895  58.379 -62.302  1.00  0.00     0.039 A 
HETATM   17  C   UNL     1     -48.588  57.014 -62.201  1.00  0.00     0.018 A 
HETATM   18  C   UNL     1     -47.635  56.569 -61.279  1.00  0.00     0.014 A 
BRANCH  16  19
HETATM   19  C   UNL     1     -49.915  58.902 -63.252  1.00  0.00     0.292 C 
HETATM   20  O   UNL     1     -49.685  59.772 -64.077  1.00  0.00    -0.259 OA
BRANCH  19  21
HETATM   21  O   UNL     1     -51.109  58.288 -63.057  1.00  0.00    -0.323 OA
HETATM   22  C   UNL     1     -51.948  58.945 -62.105  1.00  0.00     0.213 C 
ENDBRANCH  19  21
ENDBRANCH  16  19
ENDBRANCH  12  13
ENDBRANCH   8  11
ENDBRANCH   5   7
BRANCH   1  23
HETATM   23  C   UNL     1     -41.145  54.622 -54.255  1.00  0.00    -0.005 A 
HETATM   24  C   UNL     1     -40.610  53.473 -54.854  1.00  0.00     0.016 A 
HETATM   25  C   UNL     1     -40.057  52.447 -54.078  1.00  0.00     0.037 A 
HETATM   26  C   UNL     1     -40.033  52.555 -52.689  1.00  0.00     0.068 A 
HETATM   27  C   UNL     1     -40.594  53.683 -52.084  1.00  0.00     0.037 A 
HETATM   28  C   UNL     1     -41.142  54.711 -52.858  1.00  0.00     0.016 A 
BRANCH  26  29
HETATM   29  O   UNL     1     -39.509  51.639 -51.820  1.00  0.00    -0.351 OA
BRANCH  29  30
HETATM   30  C   UNL     1     -39.504  50.278 -52.251  1.00  0.00     0.175 C 
BRANCH  30  31
HETATM   31  C   UNL     1     -39.741  49.399 -51.027  1.00  0.00     0.022 C 
HETATM   32  C   UNL     1     -40.238  50.204 -49.840  1.00  0.00     0.007 C 
ENDBRANCH  30  31
ENDBRANCH  29  30
ENDBRANCH  26  29
ENDBRANCH   1  23
TORSDOF 9
ENDMDL
MODEL 5
REMARK VINA RESULT:      -6.5      1.899      3.274
REMARK  9 active torsions:
REMARK  status: ('A' for Active; 'I' for Inactive)
REMARK    1  A    between atoms: C_2  and  C_3 
REMARK    2  A    between atoms: C_3  and  O_4 
REMARK    3  A    between atoms: O_4  and  C_5 
REMARK    4  A    between atoms: C_8  and  C_9 
REMARK    5  A    between atoms: C_13  and  C_14 
REMARK       I    between atoms: C_14  and  N_15 
REMARK    6  A    between atoms: N_15  and  N_16 
REMARK    7  A    between atoms: C_17  and  C_18 
REMARK    8  A    between atoms: C_21  and  C_22 
REMARK    9  A    between atoms: C_22  and  O_23 
ROOT
HETATM    1  C   UNL     1     -45.143  62.015 -46.058  1.00  0.00     0.089 A 
HETATM    2  N   UNL     1     -45.486  60.718 -46.063  1.00  0.00    -0.174 NA
HETATM    3  N   UNL     1     -45.504  60.377 -47.360  1.00  0.00    -0.272 N 
HETATM    4  H   UNL     1     -45.737  59.422 -47.617  1.00  0.00     0.189 HD
HETATM    5  C   UNL     1     -45.155  61.389 -48.211  1.00  0.00     0.121 A 
HETATM    6  C   UNL     1     -44.944  62.479 -47.390  1.00  0.00     0.071 A 
ENDROOT
BRANCH   5   7
HETATM    7  C   UNL     1     -45.055  61.166 -49.633  1.00  0.00     0.289 C 
HETATM    8  N   UNL     1     -44.126  60.204 -50.001  1.00  0.00    -0.242 N 
HETATM    9  H   UNL     1     -43.584  59.722 -49.297  1.00  0.00     0.192 HD
HETATM   10  O   UNL     1     -45.766  61.781 -50.423  1.00  0.00    -0.264 OA
BRANCH   8  11
HETATM   11  N   UNL     1     -44.041  59.794 -51.301  1.00  0.00    -0.184 NA
HETATM   12  C   UNL     1     -43.665  58.570 -51.479  1.00  0.00     0.150 C 
BRANCH  12  13
HETATM   13  C   UNL     1     -43.581  57.973 -52.827  1.00  0.00    -0.017 A 
HETATM   14  C   UNL     1     -42.988  56.722 -53.019  1.00  0.00     0.014 A 
HETATM   15  C   UNL     1     -42.885  56.192 -54.308  1.00  0.00     0.018 A 
HETATM   16  C   UNL     1     -43.374  56.908 -55.411  1.00  0.00     0.039 A 
HETATM   17  C   UNL     1     -43.977  58.158 -55.206  1.00  0.00     0.018 A 
HETATM   18  C   UNL     1     -44.079  58.691 -53.916  1.00  0.00     0.014 A 
BRANCH  16  19
HETATM   19  C   UNL     1     -43.222  56.305 -56.764  1.00  0.00     0.292 C 
HETATM   20  O   UNL     1     -42.654  55.244 -56.970  1.00  0.00    -0.259 OA
BRANCH  19  21
HETATM   21  O   UNL     1     -43.786  57.100 -57.707  1.00  0.00    -0.323 OA
HETATM   22  C   UNL     1     -43.291  56.872 -59.028  1.00  0.00     0.213 C 
ENDBRANCH  19  21
ENDBRANCH  16  19
ENDBRANCH  12  13
ENDBRANCH   8  11
ENDBRANCH   5   7
BRANCH   1  23
HETATM   23  C   UNL     1     -44.975  62.765 -44.811  1.00  0.00    -0.005 A 
HETATM   24  C   UNL     1     -45.651  63.977 -44.617  1.00  0.00     0.016 A 
HETATM   25  C   UNL     1     -45.546  64.677 -43.409  1.00  0.00     0.037 A 
HETATM   26  C   UNL     1     -44.758  64.173 -42.376  1.00  0.00     0.068 A 
HETATM   27  C   UNL     1     -44.055  62.983 -42.574  1.00  0.00     0.037 A 
HETATM   28  C   UNL     1     -44.164  62.280 -43.778  1.00  0.00     0.016 A 
BRANCH  26  29
HETATM   29  O   UNL     1     -44.584  64.745 -41.147  1.00  0.00    -0.351 OA
BRANCH  29  30
HETATM   30  C   UNL     1     -43.860  63.983 -40.181  1.00  0.00     0.175 C 
BRANCH  30  31
HETATM   31  C   UNL     1     -44.388  64.355 -38.799  1.00  0.00     0.022 C 
HETATM   32  C   UNL     1     -44.815  63.132 -38.008  1.00  0.00     0.007 C 
ENDBRANCH  30  31
ENDBRANCH  29  30
ENDBRANCH  26  29
ENDBRANCH   1  23
TORSDOF 9
ENDMDL
MODEL 6
REMARK VINA RESULT:      -6.3      8.114     10.500
REMARK  9 active torsions:
REMARK  status: ('A' for Active; 'I' for Inactive)
REMARK    1  A    between atoms: C_2  and  C_3 
REMARK    2  A    between atoms: C_3  and  O_4 
REMARK    3  A    between atoms: O_4  and  C_5 
REMARK    4  A    between atoms: C_8  and  C_9 
REMARK    5  A    between atoms: C_13  and  C_14 
REMARK       I    between atoms: C_14  and  N_15 
REMARK    6  A    between atoms: N_15  and  N_16 
REMARK    7  A    between atoms: C_17  and  C_18 
REMARK    8  A    between atoms: C_21  and  C_22 
REMARK    9  A    between atoms: C_22  and  O_23 
ROOT
HETATM    1  C   UNL     1     -42.045  55.949 -55.419  1.00  0.00     0.089 A 
HETATM    2  N   UNL     1     -41.967  57.256 -55.122  1.00  0.00    -0.174 NA
HETATM    3  N   UNL     1     -42.698  57.863 -56.068  1.00  0.00    -0.272 N 
HETATM    4  H   UNL     1     -42.791  58.875 -56.048  1.00  0.00     0.189 HD
HETATM    5  C   UNL     1     -43.283  57.008 -56.961  1.00  0.00     0.121 A 
HETATM    6  C   UNL     1     -42.849  55.754 -56.578  1.00  0.00     0.071 A 
ENDROOT
BRANCH   5   7
HETATM    7  C   UNL     1     -44.161  57.497 -57.996  1.00  0.00     0.289 C 
HETATM    8  N   UNL     1     -45.489  57.618 -57.616  1.00  0.00    -0.242 N 
HETATM    9  H   UNL     1     -45.776  57.373 -56.678  1.00  0.00     0.192 HD
HETATM   10  O   UNL     1     -43.728  57.791 -59.107  1.00  0.00    -0.264 OA
BRANCH   8  11
HETATM   11  N   UNL     1     -46.392  58.208 -58.453  1.00  0.00    -0.184 NA
HETATM   12  C   UNL     1     -47.183  59.071 -57.906  1.00  0.00     0.150 C 
BRANCH  12  13
HETATM   13  C   UNL     1     -48.173  59.828 -58.699  1.00  0.00    -0.017 A 
HETATM   14  C   UNL     1     -49.246  60.473 -58.077  1.00  0.00     0.014 A 
HETATM   15  C   UNL     1     -50.191  61.152 -58.849  1.00  0.00     0.018 A 
HETATM   16  C   UNL     1     -50.071  61.191 -60.246  1.00  0.00     0.039 A 
HETATM   17  C   UNL     1     -48.984  60.550 -60.860  1.00  0.00     0.018 A 
HETATM   18  C   UNL     1     -48.037  59.868 -60.088  1.00  0.00     0.014 A 
BRANCH  16  19
HETATM   19  C   UNL     1     -51.116  61.913 -61.022  1.00  0.00     0.292 C 
HETATM   20  O   UNL     1     -51.383  63.094 -60.859  1.00  0.00    -0.259 OA
BRANCH  19  21
HETATM   21  O   UNL     1     -51.718  61.078 -61.906  1.00  0.00    -0.323 OA
HETATM   22  C   UNL     1     -52.902  60.457 -61.401  1.00  0.00     0.213 C 
ENDBRANCH  19  21
ENDBRANCH  16  19
ENDBRANCH  12  13
ENDBRANCH   8  11
ENDBRANCH   5   7
BRANCH   1  23
HETATM   23  C   UNL     1     -41.401  54.929 -54.589  1.00  0.00    -0.005 A 
HETATM   24  C   UNL     1     -41.528  54.968 -53.194  1.00  0.00     0.016 A 
HETATM   25  C   UNL     1     -40.966  53.968 -52.390  1.00  0.00     0.037 A 
HETATM   26  C   UNL     1     -40.266  52.914 -52.973  1.00  0.00     0.068 A 
HETATM   27  C   UNL     1     -40.108  52.886 -54.361  1.00  0.00     0.037 A 
HETATM   28  C   UNL     1     -40.673  53.880 -55.165  1.00  0.00     0.016 A 
BRANCH  26  29
HETATM   29  O   UNL     1     -39.687  51.870 -52.308  1.00  0.00    -0.351 OA
BRANCH  29  30
HETATM   30  C   UNL     1     -39.372  50.712 -53.082  1.00  0.00     0.175 C 
BRANCH  30  31
HETATM   31  C   UNL     1     -39.670  49.483 -52.229  1.00  0.00     0.022 C 
HETATM   32  C   UNL     1     -39.672  49.810 -50.747  1.00  0.00     0.007 C 
ENDBRANCH  30  31
ENDBRANCH  29  30
ENDBRANCH  26  29
ENDBRANCH   1  23
TORSDOF 9
ENDMDL
MODEL 7
REMARK VINA RESULT:      -6.1      8.139     10.170
REMARK  9 active torsions:
REMARK  status: ('A' for Active; 'I' for Inactive)
REMARK    1  A    between atoms: C_2  and  C_3 
REMARK    2  A    between atoms: C_3  and  O_4 
REMARK    3  A    between atoms: O_4  and  C_5 
REMARK    4  A    between atoms: C_8  and  C_9 
REMARK    5  A    between atoms: C_13  and  C_14 
REMARK       I    between atoms: C_14  and  N_15 
REMARK    6  A    between atoms: N_15  and  N_16 
REMARK    7  A    between atoms: C_17  and  C_18 
REMARK    8  A    between atoms: C_21  and  C_22 
REMARK    9  A    between atoms: C_22  and  O_23 
ROOT
HETATM    1  C   UNL     1     -42.579  55.083 -54.584  1.00  0.00     0.089 A 
HETATM    2  N   UNL     1     -43.789  55.442 -54.127  1.00  0.00    -0.174 NA
HETATM    3  N   UNL     1     -44.272  56.270 -55.064  1.00  0.00    -0.272 N 
HETATM    4  H   UNL     1     -45.196  56.675 -54.938  1.00  0.00     0.189 HD
HETATM    5  C   UNL     1     -43.444  56.449 -56.138  1.00  0.00     0.121 A 
HETATM    6  C   UNL     1     -42.318  55.709 -55.836  1.00  0.00     0.071 A 
ENDROOT
BRANCH   5   7
HETATM    7  C   UNL     1     -43.848  57.253 -57.266  1.00  0.00     0.289 C 
HETATM    8  N   UNL     1     -45.205  57.533 -57.317  1.00  0.00    -0.242 N 
HETATM    9  H   UNL     1     -45.827  57.183 -56.600  1.00  0.00     0.192 HD
HETATM   10  O   UNL     1     -43.026  57.656 -58.084  1.00  0.00    -0.264 OA
BRANCH   8  11
HETATM   11  N   UNL     1     -45.692  58.405 -58.248  1.00  0.00    -0.184 NA
HETATM   12  C   UNL     1     -46.677  57.969 -58.963  1.00  0.00     0.150 C 
BRANCH  12  13
HETATM   13  C   UNL     1     -47.340  58.821 -59.971  1.00  0.00    -0.017 A 
HETATM   14  C   UNL     1     -47.634  60.159 -59.694  1.00  0.00     0.014 A 
HETATM   15  C   UNL     1     -48.296  60.938 -60.647  1.00  0.00     0.018 A 
HETATM   16  C   UNL     1     -48.668  60.384 -61.881  1.00  0.00     0.039 A 
HETATM   17  C   UNL     1     -48.359  59.043 -62.154  1.00  0.00     0.018 A 
HETATM   18  C   UNL     1     -47.698  58.262 -61.200  1.00  0.00     0.014 A 
BRANCH  16  19
HETATM   19  C   UNL     1     -49.387  61.252 -62.853  1.00  0.00     0.292 C 
HETATM   20  O   UNL     1     -50.476  60.974 -63.330  1.00  0.00    -0.259 OA
BRANCH  19  21
HETATM   21  O   UNL     1     -48.660  62.365 -63.130  1.00  0.00    -0.323 OA
HETATM   22  C   UNL     1     -47.621  62.155 -64.087  1.00  0.00     0.213 C 
ENDBRANCH  19  21
ENDBRANCH  16  19
ENDBRANCH  12  13
ENDBRANCH   8  11
ENDBRANCH   5   7
BRANCH   1  23
HETATM   23  C   UNL     1     -41.727  54.139 -53.856  1.00  0.00    -0.005 A 
HETATM   24  C   UNL     1     -40.862  53.285 -54.552  1.00  0.00     0.016 A 
HETATM   25  C   UNL     1     -40.001  52.417 -53.869  1.00  0.00     0.037 A 
HETATM   26  C   UNL     1     -39.996  52.391 -52.475  1.00  0.00     0.068 A 
HETATM   27  C   UNL     1     -40.879  53.216 -51.776  1.00  0.00     0.037 A 
HETATM   28  C   UNL     1     -41.735  54.087 -52.457  1.00  0.00     0.016 A 
BRANCH  26  29
HETATM   29  O   UNL     1     -39.197  51.609 -51.690  1.00  0.00    -0.351 OA
BRANCH  29  30
HETATM   30  C   UNL     1     -39.833  50.917 -50.615  1.00  0.00     0.175 C 
BRANCH  30  31
HETATM   31  C   UNL     1     -40.160  49.506 -51.095  1.00  0.00     0.022 C 
HETATM   32  C   UNL     1     -39.356  49.127 -52.325  1.00  0.00     0.007 C 
ENDBRANCH  30  31
ENDBRANCH  29  30
ENDBRANCH  26  29
ENDBRANCH   1  23
TORSDOF 9
ENDMDL
MODEL 8
REMARK VINA RESULT:      -6.0      7.561      9.797
REMARK  9 active torsions:
REMARK  status: ('A' for Active; 'I' for Inactive)
REMARK    1  A    between atoms: C_2  and  C_3 
REMARK    2  A    between atoms: C_3  and  O_4 
REMARK    3  A    between atoms: O_4  and  C_5 
REMARK    4  A    between atoms: C_8  and  C_9 
REMARK    5  A    between atoms: C_13  and  C_14 
REMARK       I    between atoms: C_14  and  N_15 
REMARK    6  A    between atoms: N_15  and  N_16 
REMARK    7  A    between atoms: C_17  and  C_18 
REMARK    8  A    between atoms: C_21  and  C_22 
REMARK    9  A    between atoms: C_22  and  O_23 
ROOT
HETATM    1  C   UNL     1     -43.008  55.968 -54.167  1.00  0.00     0.089 A 
HETATM    2  N   UNL     1     -44.337  55.977 -54.350  1.00  0.00    -0.174 NA
HETATM    3  N   UNL     1     -44.562  57.026 -55.154  1.00  0.00    -0.272 N 
HETATM    4  H   UNL     1     -45.514  57.235 -55.439  1.00  0.00     0.189 HD
HETATM    5  C   UNL     1     -43.431  57.693 -55.536  1.00  0.00     0.121 A 
HETATM    6  C   UNL     1     -42.404  57.041 -54.882  1.00  0.00     0.071 A 
ENDROOT
BRANCH   5   7
HETATM    7  C   UNL     1     -43.494  58.800 -56.459  1.00  0.00     0.289 C 
HETATM    8  N   UNL     1     -42.302  59.491 -56.613  1.00  0.00    -0.242 N 
HETATM    9  H   UNL     1     -41.477  59.207 -56.101  1.00  0.00     0.192 HD
HETATM   10  O   UNL     1     -44.533  59.067 -57.057  1.00  0.00    -0.264 OA
BRANCH   8  11
HETATM   11  N   UNL     1     -42.190  60.463 -57.566  1.00  0.00    -0.184 NA
HETATM   12  C   UNL     1     -41.688  60.085 -58.696  1.00  0.00     0.150 C 
BRANCH  12  13
HETATM   13  C   UNL     1     -41.559  61.014 -59.836  1.00  0.00    -0.017 A 
HETATM   14  C   UNL     1     -41.907  60.614 -61.129  1.00  0.00     0.014 A 
HETATM   15  C   UNL     1     -41.742  61.497 -62.199  1.00  0.00     0.018 A 
HETATM   16  C   UNL     1     -41.226  62.783 -61.985  1.00  0.00     0.039 A 
HETATM   17  C   UNL     1     -40.888  63.180 -60.682  1.00  0.00     0.018 A 
HETATM   18  C   UNL     1     -41.053  62.296 -59.609  1.00  0.00     0.014 A 
BRANCH  16  19
HETATM   19  C   UNL     1     -41.053  63.677 -63.163  1.00  0.00     0.292 C 
HETATM   20  O   UNL     1     -41.647  64.735 -63.301  1.00  0.00    -0.259 OA
BRANCH  19  21
HETATM   21  O   UNL     1     -40.166  63.144 -64.041  1.00  0.00    -0.323 OA
HETATM   22  C   UNL     1     -38.804  63.244 -63.622  1.00  0.00     0.213 C 
ENDBRANCH  19  21
ENDBRANCH  16  19
ENDBRANCH  12  13
ENDBRANCH   8  11
ENDBRANCH   5   7
BRANCH   1  23
HETATM   23  C   UNL     1     -42.345  54.937 -53.366  1.00  0.00    -0.005 A 
HETATM   24  C   UNL     1     -41.526  53.980 -53.981  1.00  0.00     0.016 A 
HETATM   25  C   UNL     1     -40.840  53.023 -53.223  1.00  0.00     0.037 A 
HETATM   26  C   UNL     1     -40.967  53.008 -51.835  1.00  0.00     0.068 A 
HETATM   27  C   UNL     1     -41.808  53.937 -51.218  1.00  0.00     0.037 A 
HETATM   28  C   UNL     1     -42.489  54.897 -51.974  1.00  0.00     0.016 A 
BRANCH  26  29
HETATM   29  O   UNL     1     -40.343  52.143 -50.981  1.00  0.00    -0.351 OA
BRANCH  29  30
HETATM   30  C   UNL     1     -39.216  51.434 -51.497  1.00  0.00     0.175 C 
BRANCH  30  31
HETATM   31  C   UNL     1     -39.560  49.948 -51.500  1.00  0.00     0.022 C 
HETATM   32  C   UNL     1     -39.574  49.373 -52.905  1.00  0.00     0.007 C 
ENDBRANCH  30  31
ENDBRANCH  29  30
ENDBRANCH  26  29
ENDBRANCH   1  23
TORSDOF 9
ENDMDL
MODEL 9
REMARK VINA RESULT:      -5.7      6.619      8.719
REMARK  9 active torsions:
REMARK  status: ('A' for Active; 'I' for Inactive)
REMARK    1  A    between atoms: C_2  and  C_3 
REMARK    2  A    between atoms: C_3  and  O_4 
REMARK    3  A    between atoms: O_4  and  C_5 
REMARK    4  A    between atoms: C_8  and  C_9 
REMARK    5  A    between atoms: C_13  and  C_14 
REMARK       I    between atoms: C_14  and  N_15 
REMARK    6  A    between atoms: N_15  and  N_16 
REMARK    7  A    between atoms: C_17  and  C_18 
REMARK    8  A    between atoms: C_21  and  C_22 
REMARK    9  A    between atoms: C_22  and  O_23 
ROOT
HETATM    1  C   UNL     1     -41.638  57.312 -51.786  1.00  0.00     0.089 A 
HETATM    2  N   UNL     1     -42.161  58.258 -50.992  1.00  0.00    -0.174 NA
HETATM    3  N   UNL     1     -42.311  59.326 -51.789  1.00  0.00    -0.272 N 
HETATM    4  H   UNL     1     -42.701  60.181 -51.404  1.00  0.00     0.189 HD
HETATM    5  C   UNL     1     -41.937  59.113 -53.088  1.00  0.00     0.121 A 
HETATM    6  C   UNL     1     -41.466  57.815 -53.106  1.00  0.00     0.071 A 
ENDROOT
BRANCH   5   7
HETATM    7  C   UNL     1     -42.103  60.138 -54.089  1.00  0.00     0.289 C 
HETATM    8  N   UNL     1     -41.753  59.751 -55.374  1.00  0.00    -0.242 N 
HETATM    9  H   UNL     1     -41.413  58.816 -55.550  1.00  0.00     0.192 HD
HETATM   10  O   UNL     1     -42.542  61.246 -53.794  1.00  0.00    -0.264 OA
BRANCH   8  11
HETATM   11  N   UNL     1     -42.003  60.577 -56.432  1.00  0.00    -0.184 NA
HETATM   12  C   UNL     1     -41.765  60.078 -57.601  1.00  0.00     0.150 C 
BRANCH  12  13
HETATM   13  C   UNL     1     -42.042  60.836 -58.838  1.00  0.00    -0.017 A 
HETATM   14  C   UNL     1     -41.057  61.638 -59.421  1.00  0.00     0.014 A 
HETATM   15  C   UNL     1     -41.351  62.376 -60.570  1.00  0.00     0.018 A 
HETATM   16  C   UNL     1     -42.630  62.318 -61.143  1.00  0.00     0.039 A 
HETATM   17  C   UNL     1     -43.609  61.502 -60.556  1.00  0.00     0.018 A 
HETATM   18  C   UNL     1     -43.316  60.763 -59.405  1.00  0.00     0.014 A 
BRANCH  16  19
HETATM   19  C   UNL     1     -42.895  63.139 -62.356  1.00  0.00     0.292 C 
HETATM   20  O   UNL     1     -42.677  64.339 -62.420  1.00  0.00    -0.259 OA
BRANCH  19  21
HETATM   21  O   UNL     1     -43.414  62.372 -63.349  1.00  0.00    -0.323 OA
HETATM   22  C   UNL     1     -42.440  61.598 -64.051  1.00  0.00     0.213 C 
ENDBRANCH  19  21
ENDBRANCH  16  19
ENDBRANCH  12  13
ENDBRANCH   8  11
ENDBRANCH   5   7
BRANCH   1  23
HETATM   23  C   UNL     1     -41.356  55.961 -51.295  1.00  0.00    -0.005 A 
HETATM   24  C   UNL     1     -41.977  54.850 -51.882  1.00  0.00     0.016 A 
HETATM   25  C   UNL     1     -41.675  53.549 -51.461  1.00  0.00     0.037 A 
HETATM   26  C   UNL     1     -40.746  53.341 -50.443  1.00  0.00     0.068 A 
HETATM   27  C   UNL     1     -40.148  54.445 -49.831  1.00  0.00     0.037 A 
HETATM   28  C   UNL     1     -40.445  55.744 -50.254  1.00  0.00     0.016 A 
BRANCH  26  29
HETATM   29  O   UNL     1     -40.350  52.128 -49.954  1.00  0.00    -0.351 OA
BRANCH  29  30
HETATM   30  C   UNL     1     -40.172  51.079 -50.906  1.00  0.00     0.175 C 
BRANCH  30  31
HETATM   31  C   UNL     1     -39.157  51.555 -51.941  1.00  0.00     0.022 C 
HETATM   32  C   UNL     1     -39.577  51.193 -53.354  1.00  0.00     0.007 C 
ENDBRANCH  30  31
ENDBRANCH  29  30
ENDBRANCH  26  29
ENDBRANCH   1  23
TORSDOF 9
ENDMDL
MODEL 10
REMARK VINA RESULT:      -5.5      1.445      2.044
REMARK  9 active torsions:
REMARK  status: ('A' for Active; 'I' for Inactive)
REMARK    1  A    between atoms: C_2  and  C_3 
REMARK    2  A    between atoms: C_3  and  O_4 
REMARK    3  A    between atoms: O_4  and  C_5 
REMARK    4  A    between atoms: C_8  and  C_9 
REMARK    5  A    between atoms: C_13  and  C_14 
REMARK       I    between atoms: C_14  and  N_15 
REMARK    6  A    between atoms: N_15  and  N_16 
REMARK    7  A    between atoms: C_17  and  C_18 
REMARK    8  A    between atoms: C_21  and  C_22 
REMARK    9  A    between atoms: C_22  and  O_23 
ROOT
HETATM    1  C   UNL     1     -44.985  61.438 -48.566  1.00  0.00     0.089 A 
HETATM    2  N   UNL     1     -45.727  60.399 -48.979  1.00  0.00    -0.174 NA
HETATM    3  N   UNL     1     -45.461  60.291 -50.288  1.00  0.00    -0.272 N 
HETATM    4  H   UNL     1     -45.913  59.557 -50.827  1.00  0.00     0.189 HD
HETATM    5  C   UNL     1     -44.548  61.198 -50.752  1.00  0.00     0.121 A 
HETATM    6  C   UNL     1     -44.244  61.978 -49.655  1.00  0.00     0.071 A 
ENDROOT
BRANCH   5   7
HETATM    7  C   UNL     1     -44.099  61.169 -52.123  1.00  0.00     0.289 C 
HETATM    8  N   UNL     1     -44.221  59.935 -52.743  1.00  0.00    -0.242 N 
HETATM    9  H   UNL     1     -44.601  59.145 -52.239  1.00  0.00     0.192 HD
HETATM   10  O   UNL     1     -43.667  62.180 -52.669  1.00  0.00    -0.264 OA
BRANCH   8  11
HETATM   11  N   UNL     1     -43.971  59.811 -54.080  1.00  0.00    -0.184 NA
HETATM   12  C   UNL     1     -43.532  58.657 -54.463  1.00  0.00     0.150 C 
BRANCH  12  13
HETATM   13  C   UNL     1     -43.271  58.360 -55.886  1.00  0.00    -0.017 A 
HETATM   14  C   UNL     1     -43.696  57.157 -56.456  1.00  0.00     0.014 A 
HETATM   15  C   UNL     1     -43.406  56.880 -57.794  1.00  0.00     0.018 A 
HETATM   16  C   UNL     1     -42.690  57.802 -58.570  1.00  0.00     0.039 A 
HETATM   17  C   UNL     1     -42.275  59.012 -57.993  1.00  0.00     0.018 A 
HETATM   18  C   UNL     1     -42.564  59.290 -56.652  1.00  0.00     0.014 A 
BRANCH  16  19
HETATM   19  C   UNL     1     -42.391  57.449 -59.985  1.00  0.00     0.292 C 
HETATM   20  O   UNL     1     -41.828  56.418 -60.320  1.00  0.00    -0.259 OA
BRANCH  19  21
HETATM   21  O   UNL     1     -42.819  58.427 -60.823  1.00  0.00    -0.323 OA
HETATM   22  C   UNL     1     -41.791  59.335 -61.224  1.00  0.00     0.213 C 
ENDBRANCH  19  21
ENDBRANCH  16  19
ENDBRANCH  12  13
ENDBRANCH   8  11
ENDBRANCH   5   7
BRANCH   1  23
HETATM   23  C   UNL     1     -44.965  61.864 -47.164  1.00  0.00    -0.005 A 
HETATM   24  C   UNL     1     -45.377  63.156 -46.811  1.00  0.00     0.016 A 
HETATM   25  C   UNL     1     -45.416  63.559 -45.471  1.00  0.00     0.037 A 
HETATM   26  C   UNL     1     -45.041  62.673 -44.463  1.00  0.00     0.068 A 
HETATM   27  C   UNL     1     -44.598  61.395 -44.810  1.00  0.00     0.037 A 
HETATM   28  C   UNL     1     -44.563  60.989 -46.147  1.00  0.00     0.016 A 
BRANCH  26  29
HETATM   29  O   UNL     1     -45.051  62.933 -43.121  1.00  0.00    -0.351 OA
BRANCH  29  30
HETATM   30  C   UNL     1     -44.900  64.298 -42.731  1.00  0.00     0.175 C 
BRANCH  30  31
HETATM   31  C   UNL     1     -43.682  64.392 -41.818  1.00  0.00     0.022 C 
HETATM   32  C   UNL     1     -42.399  64.035 -42.546  1.00  0.00     0.007 C 
ENDBRANCH  30  31
ENDBRANCH  29  30
ENDBRANCH  26  29
ENDBRANCH   1  23
TORSDOF 9
ENDMDL
