MODEL 1
REMARK VINA RESULT:      -6.9      0.000      0.000
REMARK  2 active torsions:
REMARK  status: ('A' for Active; 'I' for Inactive)
REMARK    1  A    between atoms: C_8  and  N_9 
REMARK       I    between atoms: N_9  and  C_10 
REMARK       I    between atoms: C_10  and  N_11 
REMARK    2  A    between atoms: N_11  and  C_12 
ROOT
HETATM    1  N   UNL     1     -41.624  56.292 -54.749  1.00  0.00    -0.309 N 
HETATM    2  C   UNL     1     -41.675  57.552 -54.250  1.00  0.00     0.321 C 
HETATM    3  N   UNL     1     -40.782  57.888 -53.281  1.00  0.00    -0.337 N 
HETATM    4  O   UNL     1     -42.469  58.372 -54.711  1.00  0.00    -0.247 OA
HETATM    5  H   UNL     1     -42.141  56.205 -55.620  1.00  0.00     0.170 HD
HETATM    6  H   UNL     1     -39.946  57.314 -53.269  1.00  0.00     0.164 HD
ENDROOT
BRANCH   1   7
HETATM    7  C   UNL     1     -41.107  55.085 -54.235  1.00  0.00     0.037 A 
HETATM    8  C   UNL     1     -41.176  54.718 -52.884  1.00  0.00     0.051 A 
HETATM    9  C   UNL     1     -40.667  53.460 -52.500  1.00  0.00     0.037 A 
HETATM   10  S   UNL     1     -40.622  52.742 -50.934  1.00  0.00    -0.073 SA
HETATM   11  C   UNL     1     -40.111  52.572 -53.418  1.00  0.00     0.075 A 
HETATM   12  C   UNL     1     -39.882  51.341 -51.595  1.00  0.00     0.072 A 
HETATM   13  C   UNL     1     -39.531  50.183 -50.728  1.00  0.00     0.079 C 
HETATM   14  N   UNL     1     -39.663  51.377 -52.891  1.00  0.00    -0.245 NA
HETATM   15  C   UNL     1     -40.065  52.946 -54.773  1.00  0.00     0.035 A 
HETATM   16  C   UNL     1     -40.570  54.192 -55.167  1.00  0.00     0.032 A 
ENDBRANCH   1   7
BRANCH   3  17
HETATM   17  C   UNL     1     -40.721  59.164 -52.557  1.00  0.00     0.113 C 
HETATM   18  C   UNL     1     -42.044  59.663 -51.961  1.00  0.00     0.257 C 
HETATM   19  N   UNL     1     -42.118  58.949 -50.648  1.00  0.00    -0.073 N 
HETATM   20  H   UNL     1     -42.758  59.368 -49.965  1.00  0.00     0.277 HD
HETATM   21  H   UNL     1     -42.490  57.998 -50.869  1.00  0.00     0.277 HD
HETATM   22  C   UNL     1     -40.724  58.742 -50.153  1.00  0.00     0.234 C 
HETATM   23  C   UNL     1     -39.818  59.089 -51.328  1.00  0.00     0.054 C 
ENDBRANCH   3  17
TORSDOF 2
ENDMDL
MODEL 2
REMARK VINA RESULT:      -6.7      2.514      3.549
REMARK  2 active torsions:
REMARK  status: ('A' for Active; 'I' for Inactive)
REMARK    1  A    between atoms: C_8  and  N_9 
REMARK       I    between atoms: N_9  and  C_10 
REMARK       I    between atoms: C_10  and  N_11 
REMARK    2  A    between atoms: N_11  and  C_12 
ROOT
HETATM    1  N   UNL     1     -44.389  55.989 -51.020  1.00  0.00    -0.309 N 
HETATM    2  C   UNL     1     -44.494  57.330 -51.189  1.00  0.00     0.321 C 
HETATM    3  N   UNL     1     -43.681  57.920 -52.105  1.00  0.00    -0.337 N 
HETATM    4  O   UNL     1     -45.345  57.970 -50.572  1.00  0.00    -0.247 OA
HETATM    5  H   UNL     1     -45.183  55.603 -50.516  1.00  0.00     0.170 HD
HETATM    6  H   UNL     1     -43.334  57.290 -52.821  1.00  0.00     0.164 HD
ENDROOT
BRANCH   1   7
HETATM    7  C   UNL     1     -43.350  55.074 -51.292  1.00  0.00     0.037 A 
HETATM    8  C   UNL     1     -43.098  54.533 -52.560  1.00  0.00     0.051 A 
HETATM    9  C   UNL     1     -41.997  53.666 -52.716  1.00  0.00     0.037 A 
HETATM   10  S   UNL     1     -41.441  52.866 -54.138  1.00  0.00    -0.073 SA
HETATM   11  C   UNL     1     -41.151  53.340 -51.658  1.00  0.00     0.075 A 
HETATM   12  C   UNL     1     -40.152  52.169 -53.245  1.00  0.00     0.072 A 
HETATM   13  C   UNL     1     -39.161  51.275 -53.906  1.00  0.00     0.079 C 
HETATM   14  N   UNL     1     -40.113  52.485 -51.969  1.00  0.00    -0.245 NA
HETATM   15  C   UNL     1     -41.406  53.904 -50.395  1.00  0.00     0.035 A 
HETATM   16  C   UNL     1     -42.495  54.769 -50.228  1.00  0.00     0.032 A 
ENDBRANCH   1   7
BRANCH   3  17
HETATM   17  C   UNL     1     -43.580  59.359 -52.384  1.00  0.00     0.113 C 
HETATM   18  C   UNL     1     -42.212  60.001 -52.117  1.00  0.00     0.257 C 
HETATM   19  N   UNL     1     -41.456  59.728 -53.378  1.00  0.00    -0.073 N 
HETATM   20  H   UNL     1     -40.639  60.331 -53.529  1.00  0.00     0.277 HD
HETATM   21  H   UNL     1     -41.098  58.751 -53.283  1.00  0.00     0.277 HD
HETATM   22  C   UNL     1     -42.431  59.703 -54.509  1.00  0.00     0.234 C 
HETATM   23  C   UNL     1     -43.809  59.680 -53.858  1.00  0.00     0.054 C 
ENDBRANCH   3  17
TORSDOF 2
ENDMDL
MODEL 3
REMARK VINA RESULT:      -6.7     14.925     16.416
REMARK  2 active torsions:
REMARK  status: ('A' for Active; 'I' for Inactive)
REMARK    1  A    between atoms: C_8  and  N_9 
REMARK       I    between atoms: N_9  and  C_10 
REMARK       I    between atoms: C_10  and  N_11 
REMARK    2  A    between atoms: N_11  and  C_12 
ROOT
HETATM    1  N   UNL     1     -38.227  41.494 -54.667  1.00  0.00    -0.309 N 
HETATM    2  C   UNL     1     -37.668  41.045 -53.517  1.00  0.00     0.321 C 
HETATM    3  N   UNL     1     -36.378  40.617 -53.561  1.00  0.00    -0.337 N 
HETATM    4  O   UNL     1     -38.299  41.088 -52.460  1.00  0.00    -0.247 OA
HETATM    5  H   UNL     1     -39.082  42.016 -54.499  1.00  0.00     0.170 HD
HETATM    6  H   UNL     1     -35.841  40.994 -54.335  1.00  0.00     0.164 HD
ENDROOT
BRANCH   1   7
HETATM    7  C   UNL     1     -37.918  41.269 -56.025  1.00  0.00     0.037 A 
HETATM    8  C   UNL     1     -38.303  40.123 -56.734  1.00  0.00     0.051 A 
HETATM    9  C   UNL     1     -37.978  40.037 -58.104  1.00  0.00     0.037 A 
HETATM   10  S   UNL     1     -38.323  38.771 -59.222  1.00  0.00    -0.073 SA
HETATM   11  C   UNL     1     -37.300  41.054 -58.772  1.00  0.00     0.075 A 
HETATM   12  C   UNL     1     -37.557  39.663 -60.472  1.00  0.00     0.072 A 
HETATM   13  C   UNL     1     -37.482  39.124 -61.858  1.00  0.00     0.079 C 
HETATM   14  N   UNL     1     -37.060  40.826 -60.113  1.00  0.00    -0.245 NA
HETATM   15  C   UNL     1     -36.935  42.205 -58.052  1.00  0.00     0.035 A 
HETATM   16  C   UNL     1     -37.255  42.304 -56.692  1.00  0.00     0.032 A 
ENDBRANCH   1   7
BRANCH   3  17
HETATM   17  C   UNL     1     -35.617  40.024 -52.453  1.00  0.00     0.113 C 
HETATM   18  C   UNL     1     -34.140  39.721 -52.740  1.00  0.00     0.257 C 
HETATM   19  N   UNL     1     -33.465  41.029 -52.472  1.00  0.00    -0.073 N 
HETATM   20  H   UNL     1     -32.454  40.965 -52.305  1.00  0.00     0.277 HD
HETATM   21  H   UNL     1     -33.594  41.592 -53.342  1.00  0.00     0.277 HD
HETATM   22  C   UNL     1     -34.231  41.736 -51.403  1.00  0.00     0.234 C 
HETATM   23  C   UNL     1     -35.530  40.956 -51.247  1.00  0.00     0.054 C 
ENDBRANCH   3  17
TORSDOF 2
ENDMDL
MODEL 4
REMARK VINA RESULT:      -6.7      2.293      3.602
REMARK  2 active torsions:
REMARK  status: ('A' for Active; 'I' for Inactive)
REMARK    1  A    between atoms: C_8  and  N_9 
REMARK       I    between atoms: N_9  and  C_10 
REMARK       I    between atoms: C_10  and  N_11 
REMARK    2  A    between atoms: N_11  and  C_12 
ROOT
HETATM    1  N   UNL     1     -41.486  56.373 -50.859  1.00  0.00    -0.309 N 
HETATM    2  C   UNL     1     -41.963  57.416 -51.582  1.00  0.00     0.321 C 
HETATM    3  N   UNL     1     -42.517  57.148 -52.795  1.00  0.00    -0.337 N 
HETATM    4  O   UNL     1     -41.946  58.555 -51.116  1.00  0.00    -0.247 OA
HETATM    5  H   UNL     1     -41.326  56.623 -49.887  1.00  0.00     0.170 HD
HETATM    6  H   UNL     1     -42.849  56.195 -52.899  1.00  0.00     0.164 HD
ENDROOT
BRANCH   1   7
HETATM    7  C   UNL     1     -41.063  55.077 -51.223  1.00  0.00     0.037 A 
HETATM    8  C   UNL     1     -41.078  54.590 -52.537  1.00  0.00     0.051 A 
HETATM    9  C   UNL     1     -40.581  53.294 -52.781  1.00  0.00     0.037 A 
HETATM   10  S   UNL     1     -40.466  52.441 -54.275  1.00  0.00    -0.073 SA
HETATM   11  C   UNL     1     -40.069  52.490 -51.765  1.00  0.00     0.075 A 
HETATM   12  C   UNL     1     -39.761  51.105 -53.461  1.00  0.00     0.072 A 
HETATM   13  C   UNL     1     -39.352  49.884 -54.210  1.00  0.00     0.079 C 
HETATM   14  N   UNL     1     -39.614  51.248 -52.162  1.00  0.00    -0.245 NA
HETATM   15  C   UNL     1     -40.044  52.998 -50.454  1.00  0.00     0.035 A 
HETATM   16  C   UNL     1     -40.533  54.286 -50.199  1.00  0.00     0.032 A 
ENDBRANCH   1   7
BRANCH   3  17
HETATM   17  C   UNL     1     -43.017  58.134 -53.762  1.00  0.00     0.113 C 
HETATM   18  C   UNL     1     -42.870  57.756 -55.242  1.00  0.00     0.257 C 
HETATM   19  N   UNL     1     -44.083  56.920 -55.503  1.00  0.00    -0.073 N 
HETATM   20  H   UNL     1     -44.336  56.825 -56.494  1.00  0.00     0.277 HD
HETATM   21  H   UNL     1     -43.841  55.964 -55.159  1.00  0.00     0.277 HD
HETATM   22  C   UNL     1     -45.184  57.411 -54.622  1.00  0.00     0.234 C 
HETATM   23  C   UNL     1     -44.520  58.361 -53.632  1.00  0.00     0.054 C 
ENDBRANCH   3  17
TORSDOF 2
ENDMDL
MODEL 5
REMARK VINA RESULT:      -6.5      4.330      6.175
REMARK  2 active torsions:
REMARK  status: ('A' for Active; 'I' for Inactive)
REMARK    1  A    between atoms: C_8  and  N_9 
REMARK       I    between atoms: N_9  and  C_10 
REMARK       I    between atoms: C_10  and  N_11 
REMARK    2  A    between atoms: N_11  and  C_12 
ROOT
HETATM    1  N   UNL     1     -43.741  57.882 -56.019  1.00  0.00    -0.309 N 
HETATM    2  C   UNL     1     -44.085  58.152 -57.302  1.00  0.00     0.321 C 
HETATM    3  N   UNL     1     -44.411  57.105 -58.107  1.00  0.00    -0.337 N 
HETATM    4  O   UNL     1     -44.156  59.316 -57.696  1.00  0.00    -0.247 OA
HETATM    5  H   UNL     1     -43.759  58.714 -55.435  1.00  0.00     0.170 HD
HETATM    6  H   UNL     1     -44.715  56.276 -57.607  1.00  0.00     0.164 HD
ENDROOT
BRANCH   1   7
HETATM    7  C   UNL     1     -43.254  56.718 -55.389  1.00  0.00     0.037 A 
HETATM    8  C   UNL     1     -42.023  56.121 -55.694  1.00  0.00     0.051 A 
HETATM    9  C   UNL     1     -41.623  54.987 -54.958  1.00  0.00     0.037 A 
HETATM   10  S   UNL     1     -40.178  54.057 -55.099  1.00  0.00    -0.073 SA
HETATM   11  C   UNL     1     -42.405  54.449 -53.937  1.00  0.00     0.075 A 
HETATM   12  C   UNL     1     -40.704  53.041 -53.820  1.00  0.00     0.072 A 
HETATM   13  C   UNL     1     -39.859  51.908 -53.350  1.00  0.00     0.079 C 
HETATM   14  N   UNL     1     -41.875  53.342 -53.305  1.00  0.00    -0.245 NA
HETATM   15  C   UNL     1     -43.630  55.068 -53.631  1.00  0.00     0.035 A 
HETATM   16  C   UNL     1     -44.036  56.198 -54.353  1.00  0.00     0.032 A 
ENDBRANCH   1   7
BRANCH   3  17
HETATM   17  C   UNL     1     -44.733  57.172 -59.538  1.00  0.00     0.113 C 
HETATM   18  C   UNL     1     -44.691  55.839 -60.299  1.00  0.00     0.257 C 
HETATM   19  N   UNL     1     -46.046  55.259 -60.045  1.00  0.00    -0.073 N 
HETATM   20  H   UNL     1     -46.333  54.529 -60.707  1.00  0.00     0.277 HD
HETATM   21  H   UNL     1     -45.985  54.809 -59.105  1.00  0.00     0.277 HD
HETATM   22  C   UNL     1     -47.015  56.387 -59.901  1.00  0.00     0.234 C 
HETATM   23  C   UNL     1     -46.162  57.645 -59.788  1.00  0.00     0.054 C 
ENDBRANCH   3  17
TORSDOF 2
ENDMDL
MODEL 6
REMARK VINA RESULT:      -6.5      3.302      5.173
REMARK  2 active torsions:
REMARK  status: ('A' for Active; 'I' for Inactive)
REMARK    1  A    between atoms: C_8  and  N_9 
REMARK       I    between atoms: N_9  and  C_10 
REMARK       I    between atoms: C_10  and  N_11 
REMARK    2  A    between atoms: N_11  and  C_12 
ROOT
HETATM    1  N   UNL     1     -44.814  56.610 -54.478  1.00  0.00    -0.309 N 
HETATM    2  C   UNL     1     -44.864  57.270 -55.661  1.00  0.00     0.321 C 
HETATM    3  N   UNL     1     -44.003  56.885 -56.641  1.00  0.00    -0.337 N 
HETATM    4  O   UNL     1     -45.709  58.146 -55.850  1.00  0.00    -0.247 OA
HETATM    5  H   UNL     1     -45.637  56.785 -53.907  1.00  0.00     0.170 HD
HETATM    6  H   UNL     1     -43.659  55.935 -56.542  1.00  0.00     0.164 HD
ENDROOT
BRANCH   1   7
HETATM    7  C   UNL     1     -43.803  55.849 -53.855  1.00  0.00     0.037 A 
HETATM    8  C   UNL     1     -43.237  54.696 -54.414  1.00  0.00     0.051 A 
HETATM    9  C   UNL     1     -42.195  54.050 -53.716  1.00  0.00     0.037 A 
HETATM   10  S   UNL     1     -41.312  52.636 -54.154  1.00  0.00    -0.073 SA
HETATM   11  C   UNL     1     -41.709  54.525 -52.500  1.00  0.00     0.075 A 
HETATM   12  C   UNL     1     -40.378  52.773 -52.721  1.00  0.00     0.072 A 
HETATM   13  C   UNL     1     -39.301  51.791 -52.415  1.00  0.00     0.079 C 
HETATM   14  N   UNL     1     -40.683  53.788 -51.943  1.00  0.00    -0.245 NA
HETATM   15  C   UNL     1     -42.275  55.693 -51.960  1.00  0.00     0.035 A 
HETATM   16  C   UNL     1     -43.307  56.345 -52.645  1.00  0.00     0.032 A 
ENDBRANCH   1   7
BRANCH   3  17
HETATM   17  C   UNL     1     -43.841  57.516 -57.957  1.00  0.00     0.113 C 
HETATM   18  C   UNL     1     -42.397  57.669 -58.455  1.00  0.00     0.257 C 
HETATM   19  N   UNL     1     -42.110  56.341 -59.082  1.00  0.00    -0.073 N 
HETATM   20  H   UNL     1     -41.322  56.337 -59.739  1.00  0.00     0.277 HD
HETATM   21  H   UNL     1     -41.848  55.711 -58.291  1.00  0.00     0.277 HD
HETATM   22  C   UNL     1     -43.387  55.802 -59.635  1.00  0.00     0.234 C 
HETATM   23  C   UNL     1     -44.485  56.698 -59.073  1.00  0.00     0.054 C 
ENDBRANCH   3  17
TORSDOF 2
ENDMDL
MODEL 7
REMARK VINA RESULT:      -6.4      3.542      5.362
REMARK  2 active torsions:
REMARK  status: ('A' for Active; 'I' for Inactive)
REMARK    1  A    between atoms: C_8  and  N_9 
REMARK       I    between atoms: N_9  and  C_10 
REMARK       I    between atoms: C_10  and  N_11 
REMARK    2  A    between atoms: N_11  and  C_12 
ROOT
HETATM    1  N   UNL     1     -44.964  56.953 -54.638  1.00  0.00    -0.309 N 
HETATM    2  C   UNL     1     -44.966  57.502 -55.877  1.00  0.00     0.321 C 
HETATM    3  N   UNL     1     -44.061  57.040 -56.779  1.00  0.00    -0.337 N 
HETATM    4  O   UNL     1     -45.808  58.349 -56.181  1.00  0.00    -0.247 OA
HETATM    5  H   UNL     1     -45.813  57.169 -54.122  1.00  0.00     0.170 HD
HETATM    6  H   UNL     1     -43.715  56.107 -56.581  1.00  0.00     0.164 HD
ENDROOT
BRANCH   1   7
HETATM    7  C   UNL     1     -43.976  56.261 -53.906  1.00  0.00     0.037 A 
HETATM    8  C   UNL     1     -43.343  56.778 -52.768  1.00  0.00     0.051 A 
HETATM    9  C   UNL     1     -42.406  55.969 -52.092  1.00  0.00     0.037 A 
HETATM   10  S   UNL     1     -41.487  56.325 -50.678  1.00  0.00    -0.073 SA
HETATM   11  C   UNL     1     -42.101  54.676 -52.512  1.00  0.00     0.075 A 
HETATM   12  C   UNL     1     -40.776  54.765 -50.743  1.00  0.00     0.072 A 
HETATM   13  C   UNL     1     -39.787  54.333 -49.717  1.00  0.00     0.079 C 
HETATM   14  N   UNL     1     -41.170  54.006 -51.743  1.00  0.00    -0.245 NA
HETATM   15  C   UNL     1     -42.758  54.164 -53.645  1.00  0.00     0.035 A 
HETATM   16  C   UNL     1     -43.692  54.957 -54.323  1.00  0.00     0.032 A 
ENDBRANCH   1   7
BRANCH   3  17
HETATM   17  C   UNL     1     -43.845  57.551 -58.140  1.00  0.00     0.113 C 
HETATM   18  C   UNL     1     -42.391  57.563 -58.629  1.00  0.00     0.257 C 
HETATM   19  N   UNL     1     -42.193  56.173 -59.146  1.00  0.00    -0.073 N 
HETATM   20  H   UNL     1     -41.403  56.062 -59.791  1.00  0.00     0.277 HD
HETATM   21  H   UNL     1     -41.982  55.591 -58.305  1.00  0.00     0.277 HD
HETATM   22  C   UNL     1     -43.502  55.682 -59.671  1.00  0.00     0.234 C 
HETATM   23  C   UNL     1     -44.537  56.694 -59.196  1.00  0.00     0.054 C 
ENDBRANCH   3  17
TORSDOF 2
ENDMDL
MODEL 8
REMARK VINA RESULT:      -6.2      1.995      2.296
REMARK  2 active torsions:
REMARK  status: ('A' for Active; 'I' for Inactive)
REMARK    1  A    between atoms: C_8  and  N_9 
REMARK       I    between atoms: N_9  and  C_10 
REMARK       I    between atoms: C_10  and  N_11 
REMARK    2  A    between atoms: N_11  and  C_12 
ROOT
HETATM    1  N   UNL     1     -44.126  56.544 -52.625  1.00  0.00    -0.309 N 
HETATM    2  C   UNL     1     -43.853  57.807 -52.217  1.00  0.00     0.321 C 
HETATM    3  N   UNL     1     -42.696  58.378 -52.646  1.00  0.00    -0.337 N 
HETATM    4  O   UNL     1     -44.665  58.428 -51.531  1.00  0.00    -0.247 OA
HETATM    5  H   UNL     1     -45.099  56.294 -52.472  1.00  0.00     0.170 HD
HETATM    6  H   UNL     1     -42.322  57.970 -53.497  1.00  0.00     0.164 HD
ENDROOT
BRANCH   1   7
HETATM    7  C   UNL     1     -43.304  55.497 -53.093  1.00  0.00     0.037 A 
HETATM    8  C   UNL     1     -42.357  54.834 -52.302  1.00  0.00     0.051 A 
HETATM    9  C   UNL     1     -41.631  53.767 -52.870  1.00  0.00     0.037 A 
HETATM   10  S   UNL     1     -40.422  52.772 -52.148  1.00  0.00    -0.073 SA
HETATM   11  C   UNL     1     -41.831  53.348 -54.184  1.00  0.00     0.075 A 
HETATM   12  C   UNL     1     -40.271  51.889 -53.612  1.00  0.00     0.072 A 
HETATM   13  C   UNL     1     -39.316  50.752 -53.722  1.00  0.00     0.079 C 
HETATM   14  N   UNL     1     -41.049  52.287 -54.594  1.00  0.00    -0.245 NA
HETATM   15  C   UNL     1     -42.797  54.012 -54.961  1.00  0.00     0.035 A 
HETATM   16  C   UNL     1     -43.527  55.070 -54.406  1.00  0.00     0.032 A 
ENDBRANCH   1   7
BRANCH   3  17
HETATM   17  C   UNL     1     -42.178  59.697 -52.260  1.00  0.00     0.113 C 
HETATM   18  C   UNL     1     -42.964  60.433 -51.166  1.00  0.00     0.257 C 
HETATM   19  N   UNL     1     -42.399  59.867 -49.902  1.00  0.00    -0.073 N 
HETATM   20  H   UNL     1     -42.563  60.438 -49.064  1.00  0.00     0.277 HD
HETATM   21  H   UNL     1     -42.899  58.962 -49.754  1.00  0.00     0.277 HD
HETATM   22  C   UNL     1     -40.969  59.515 -50.147  1.00  0.00     0.234 C 
HETATM   23  C   UNL     1     -40.779  59.615 -51.656  1.00  0.00     0.054 C 
ENDBRANCH   3  17
TORSDOF 2
ENDMDL
MODEL 9
REMARK VINA RESULT:      -6.1      4.419      6.616
REMARK  2 active torsions:
REMARK  status: ('A' for Active; 'I' for Inactive)
REMARK    1  A    between atoms: C_8  and  N_9 
REMARK       I    between atoms: N_9  and  C_10 
REMARK       I    between atoms: C_10  and  N_11 
REMARK    2  A    between atoms: N_11  and  C_12 
ROOT
HETATM    1  N   UNL     1     -41.987  59.297 -55.575  1.00  0.00    -0.309 N 
HETATM    2  C   UNL     1     -41.772  59.020 -54.265  1.00  0.00     0.321 C 
HETATM    3  N   UNL     1     -42.014  57.754 -53.835  1.00  0.00    -0.337 N 
HETATM    4  O   UNL     1     -41.312  59.882 -53.515  1.00  0.00    -0.247 OA
HETATM    5  H   UNL     1     -41.552  60.171 -55.858  1.00  0.00     0.170 HD
HETATM    6  H   UNL     1     -41.985  57.053 -54.568  1.00  0.00     0.164 HD
ENDROOT
BRANCH   1   7
HETATM    7  C   UNL     1     -42.786  58.678 -56.559  1.00  0.00     0.037 A 
HETATM    8  C   UNL     1     -42.299  57.758 -57.496  1.00  0.00     0.051 A 
HETATM    9  C   UNL     1     -43.209  57.169 -58.398  1.00  0.00     0.037 A 
HETATM   10  S   UNL     1     -42.909  56.011 -59.640  1.00  0.00    -0.073 SA
HETATM   11  C   UNL     1     -44.570  57.465 -58.381  1.00  0.00     0.075 A 
HETATM   12  C   UNL     1     -44.577  56.003 -60.040  1.00  0.00     0.072 A 
HETATM   13  C   UNL     1     -45.096  55.133 -61.131  1.00  0.00     0.079 C 
HETATM   14  N   UNL     1     -45.334  56.803 -59.321  1.00  0.00    -0.245 NA
HETATM   15  C   UNL     1     -45.048  58.378 -57.423  1.00  0.00     0.035 A 
HETATM   16  C   UNL     1     -44.154  58.967 -56.520  1.00  0.00     0.032 A 
ENDBRANCH   1   7
BRANCH   3  17
HETATM   17  C   UNL     1     -41.922  57.270 -52.451  1.00  0.00     0.113 C 
HETATM   18  C   UNL     1     -43.241  57.214 -51.670  1.00  0.00     0.257 C 
HETATM   19  N   UNL     1     -43.819  55.893 -52.068  1.00  0.00    -0.073 N 
HETATM   20  H   UNL     1     -44.536  55.527 -51.432  1.00  0.00     0.277 HD
HETATM   21  H   UNL     1     -44.285  56.059 -52.988  1.00  0.00     0.277 HD
HETATM   22  C   UNL     1     -42.689  54.955 -52.341  1.00  0.00     0.234 C 
HETATM   23  C   UNL     1     -41.437  55.824 -52.375  1.00  0.00     0.054 C 
ENDBRANCH   3  17
TORSDOF 2
ENDMDL
MODEL 10
REMARK VINA RESULT:      -6.0     15.623     17.099
REMARK  2 active torsions:
REMARK  status: ('A' for Active; 'I' for Inactive)
REMARK    1  A    between atoms: C_8  and  N_9 
REMARK       I    between atoms: N_9  and  C_10 
REMARK       I    between atoms: C_10  and  N_11 
REMARK    2  A    between atoms: N_11  and  C_12 
ROOT
HETATM    1  N   UNL     1     -33.299  40.774 -54.217  1.00  0.00    -0.309 N 
HETATM    2  C   UNL     1     -33.575  40.456 -52.928  1.00  0.00     0.321 C 
HETATM    3  N   UNL     1     -34.700  39.735 -52.678  1.00  0.00    -0.337 N 
HETATM    4  O   UNL     1     -32.789  40.763 -52.031  1.00  0.00    -0.247 OA
HETATM    5  H   UNL     1     -32.339  41.084 -54.338  1.00  0.00     0.170 HD
HETATM    6  H   UNL     1     -35.036  39.200 -53.471  1.00  0.00     0.164 HD
ENDROOT
BRANCH   1   7
HETATM    7  C   UNL     1     -34.111  40.873 -55.367  1.00  0.00     0.037 A 
HETATM    8  C   UNL     1     -34.318  39.823 -56.271  1.00  0.00     0.051 A 
HETATM    9  C   UNL     1     -35.194  40.030 -57.356  1.00  0.00     0.037 A 
HETATM   10  S   UNL     1     -35.645  38.935 -58.609  1.00  0.00    -0.073 SA
HETATM   11  C   UNL     1     -35.863  41.236 -57.552  1.00  0.00     0.075 A 
HETATM   12  C   UNL     1     -36.669  40.132 -59.290  1.00  0.00     0.072 A 
HETATM   13  C   UNL     1     -37.467  39.846 -60.515  1.00  0.00     0.079 C 
HETATM   14  N   UNL     1     -36.691  41.284 -58.656  1.00  0.00    -0.245 NA
HETATM   15  C   UNL     1     -35.659  42.276 -56.627  1.00  0.00     0.035 A 
HETATM   16  C   UNL     1     -34.794  42.081 -55.543  1.00  0.00     0.032 A 
ENDBRANCH   1   7
BRANCH   3  17
HETATM   17  C   UNL     1     -35.218  39.358 -51.356  1.00  0.00     0.113 C 
HETATM   18  C   UNL     1     -35.900  40.477 -50.558  1.00  0.00     0.257 C 
HETATM   19  N   UNL     1     -37.301  40.465 -51.083  1.00  0.00    -0.073 N 
HETATM   20  H   UNL     1     -37.993  40.918 -50.475  1.00  0.00     0.277 HD
HETATM   21  H   UNL     1     -37.270  41.016 -51.970  1.00  0.00     0.277 HD
HETATM   22  C   UNL     1     -37.638  39.065 -51.478  1.00  0.00     0.234 C 
HETATM   23  C   UNL     1     -36.318  38.303 -51.445  1.00  0.00     0.054 C 
ENDBRANCH   3  17
TORSDOF 2
ENDMDL
