MODEL 1
REMARK VINA RESULT:      -8.5      0.000      0.000
REMARK  6 active torsions:
REMARK  status: ('A' for Active; 'I' for Inactive)
REMARK    1  A    between atoms: C_11  and  N_12 
REMARK    2  A    between atoms: N_12  and  C_13 
REMARK    3  A    between atoms: C_13  and  C_14 
REMARK    4  A    between atoms: C_14  and  N_15 
REMARK       I    between atoms: N_15  and  C_16 
REMARK    5  A    between atoms: C_16  and  C_17 
REMARK    6  A    between atoms: C_20  and  O_21 
ROOT
HETATM    1  N   UNL     1     -42.145  56.745 -53.087  1.00  0.00    -0.277 NA
HETATM    2  H   UNL     1     -41.679  57.602 -52.793  1.00  0.00     0.129 HD
ENDROOT
BRANCH   1   3
HETATM    3  C   UNL     1     -41.533  55.606 -52.565  1.00  0.00     0.086 C 
HETATM    4  N   UNL     1     -41.202  54.601 -53.392  1.00  0.00    -0.346 N 
HETATM    5  C   UNL     1     -40.695  53.423 -52.999  1.00  0.00     0.044 A 
HETATM    6  H   UNL     1     -41.301  54.777 -54.398  1.00  0.00     0.167 HD
HETATM    7  C   UNL     1     -40.474  52.393 -53.919  1.00  0.00     0.037 A 
HETATM    8  C   UNL     1     -40.406  53.229 -51.638  1.00  0.00    -0.008 A 
HETATM    9  C   UNL     1     -39.994  51.142 -53.495  1.00  0.00    -0.054 A 
HETATM   10  C   UNL     1     -39.737  50.928 -52.126  1.00  0.00    -0.055 A 
HETATM   11  C   UNL     1     -39.819  50.039 -54.507  1.00  0.00     0.049 C 
HETATM   12  C   UNL     1     -39.239  49.601 -51.615  1.00  0.00     0.049 C 
HETATM   13  C   UNL     1     -39.921  51.982 -51.214  1.00  0.00     0.021 A 
HETATM   14  C   UNL     1     -40.610  54.294 -50.757  1.00  0.00     0.023 C 
HETATM   15  C   UNL     1     -41.147  55.505 -51.216  1.00  0.00    -0.023 C 
HETATM   16  C   UNL     1     -41.355  56.621 -50.229  1.00  0.00     0.052 C 
ENDBRANCH   1   3
BRANCH   1  17
HETATM   17  C   UNL     1     -43.602  56.878 -52.900  1.00  0.00     0.113 C 
BRANCH  17  18
HETATM   18  C   UNL     1     -44.373  56.528 -54.183  1.00  0.00     0.137 C 
BRANCH  18  19
HETATM   19  N   UNL     1     -43.786  56.980 -55.436  1.00  0.00    -0.356 N 
HETATM   20  C   UNL     1     -43.018  56.210 -56.278  1.00  0.00     0.251 C 
HETATM   21  O   UNL     1     -42.578  55.103 -55.968  1.00  0.00    -0.268 OA
HETATM   22  H   UNL     1     -44.023  57.923 -55.724  1.00  0.00     0.162 HD
BRANCH  20  23
HETATM   23  C   UNL     1     -42.662  56.841 -57.580  1.00  0.00     0.032 A 
HETATM   24  C   UNL     1     -42.185  58.154 -57.587  1.00  0.00     0.020 A 
HETATM   25  C   UNL     1     -41.889  58.780 -58.802  1.00  0.00     0.038 A 
HETATM   26  C   UNL     1     -42.054  58.105 -60.015  1.00  0.00     0.068 A 
HETATM   27  C   UNL     1     -42.501  56.784 -60.006  1.00  0.00     0.038 A 
HETATM   28  C   UNL     1     -42.800  56.151 -58.792  1.00  0.00     0.020 A 
BRANCH  26  29
HETATM   29  O   UNL     1     -41.743  58.839 -61.124  1.00  0.00    -0.356 OA
HETATM   30  C   UNL     1     -41.977  60.242 -61.062  1.00  0.00     0.210 C 
ENDBRANCH  26  29
ENDBRANCH  20  23
ENDBRANCH  18  19
ENDBRANCH  17  18
ENDBRANCH   1  17
TORSDOF 6
ENDMDL
MODEL 2
REMARK VINA RESULT:      -8.4      1.702      2.275
REMARK  6 active torsions:
REMARK  status: ('A' for Active; 'I' for Inactive)
REMARK    1  A    between atoms: C_11  and  N_12 
REMARK    2  A    between atoms: N_12  and  C_13 
REMARK    3  A    between atoms: C_13  and  C_14 
REMARK    4  A    between atoms: C_14  and  N_15 
REMARK       I    between atoms: N_15  and  C_16 
REMARK    5  A    between atoms: C_16  and  C_17 
REMARK    6  A    between atoms: C_20  and  O_21 
ROOT
HETATM    1  N   UNL     1     -41.868  56.832 -52.746  1.00  0.00    -0.277 NA
HETATM    2  H   UNL     1     -42.695  56.689 -53.324  1.00  0.00     0.129 HD
ENDROOT
BRANCH   1   3
HETATM    3  C   UNL     1     -41.337  55.631 -52.277  1.00  0.00     0.086 C 
HETATM    4  N   UNL     1     -40.984  54.680 -53.157  1.00  0.00    -0.346 N 
HETATM    5  C   UNL     1     -40.550  53.455 -52.825  1.00  0.00     0.044 A 
HETATM    6  H   UNL     1     -41.006  54.937 -54.150  1.00  0.00     0.167 HD
HETATM    7  C   UNL     1     -40.303  52.491 -53.808  1.00  0.00     0.037 A 
HETATM    8  C   UNL     1     -40.365  53.145 -51.468  1.00  0.00    -0.008 A 
HETATM    9  C   UNL     1     -39.900  51.193 -53.454  1.00  0.00    -0.054 A 
HETATM   10  C   UNL     1     -39.748  50.863 -52.092  1.00  0.00    -0.055 A 
HETATM   11  C   UNL     1     -39.694  50.164 -54.537  1.00  0.00     0.049 C 
HETATM   12  C   UNL     1     -39.337  49.480 -51.656  1.00  0.00     0.049 C 
HETATM   13  C   UNL     1     -39.958  51.850 -51.114  1.00  0.00     0.021 A 
HETATM   14  C   UNL     1     -40.592  54.147 -50.521  1.00  0.00     0.023 C 
HETATM   15  C   UNL     1     -41.051  55.410 -50.917  1.00  0.00    -0.023 C 
HETATM   16  C   UNL     1     -41.288  56.455 -49.861  1.00  0.00     0.052 C 
ENDBRANCH   1   3
BRANCH   1  17
HETATM   17  C   UNL     1     -40.944  57.765 -53.417  1.00  0.00     0.113 C 
BRANCH  17  18
HETATM   18  C   UNL     1     -41.699  58.787 -54.281  1.00  0.00     0.137 C 
BRANCH  18  19
HETATM   19  N   UNL     1     -42.255  58.295 -55.534  1.00  0.00    -0.356 N 
HETATM   20  C   UNL     1     -42.097  58.891 -56.763  1.00  0.00     0.251 C 
HETATM   21  O   UNL     1     -41.629  60.020 -56.911  1.00  0.00    -0.268 OA
HETATM   22  H   UNL     1     -42.744  57.408 -55.485  1.00  0.00     0.162 HD
BRANCH  20  23
HETATM   23  C   UNL     1     -42.622  58.118 -57.924  1.00  0.00     0.032 A 
HETATM   24  C   UNL     1     -43.163  56.849 -57.702  1.00  0.00     0.020 A 
HETATM   25  C   UNL     1     -43.618  56.089 -58.784  1.00  0.00     0.038 A 
HETATM   26  C   UNL     1     -43.550  56.587 -60.089  1.00  0.00     0.068 A 
HETATM   27  C   UNL     1     -43.040  57.866 -60.305  1.00  0.00     0.038 A 
HETATM   28  C   UNL     1     -42.581  58.632 -59.226  1.00  0.00     0.020 A 
BRANCH  26  29
HETATM   29  O   UNL     1     -44.015  55.735 -61.050  1.00  0.00    -0.356 OA
HETATM   30  C   UNL     1     -45.182  54.980 -60.741  1.00  0.00     0.210 C 
ENDBRANCH  26  29
ENDBRANCH  20  23
ENDBRANCH  18  19
ENDBRANCH  17  18
ENDBRANCH   1  17
TORSDOF 6
ENDMDL
MODEL 3
REMARK VINA RESULT:      -8.4      2.434      2.828
REMARK  6 active torsions:
REMARK  status: ('A' for Active; 'I' for Inactive)
REMARK    1  A    between atoms: C_11  and  N_12 
REMARK    2  A    between atoms: N_12  and  C_13 
REMARK    3  A    between atoms: C_13  and  C_14 
REMARK    4  A    between atoms: C_14  and  N_15 
REMARK       I    between atoms: N_15  and  C_16 
REMARK    5  A    between atoms: C_16  and  C_17 
REMARK    6  A    between atoms: C_20  and  O_21 
ROOT
HETATM    1  N   UNL     1     -41.933  56.802 -53.645  1.00  0.00    -0.277 NA
HETATM    2  H   UNL     1     -42.218  57.556 -53.023  1.00  0.00     0.129 HD
ENDROOT
BRANCH   1   3
HETATM    3  C   UNL     1     -41.419  55.708 -52.949  1.00  0.00     0.086 C 
HETATM    4  N   UNL     1     -40.968  54.645 -53.635  1.00  0.00    -0.346 N 
HETATM    5  C   UNL     1     -40.538  53.502 -53.079  1.00  0.00     0.044 A 
HETATM    6  H   UNL     1     -40.906  54.744 -54.655  1.00  0.00     0.167 HD
HETATM    7  C   UNL     1     -40.182  52.407 -53.873  1.00  0.00     0.037 A 
HETATM    8  C   UNL     1     -40.468  53.413 -51.679  1.00  0.00    -0.008 A 
HETATM    9  C   UNL     1     -39.784  51.195 -53.286  1.00  0.00    -0.054 A 
HETATM   10  C   UNL     1     -39.747  51.086 -51.882  1.00  0.00    -0.055 A 
HETATM   11  C   UNL     1     -39.459  50.019 -54.172  1.00  0.00     0.049 C 
HETATM   12  C   UNL     1     -39.345  49.804 -51.200  1.00  0.00     0.049 C 
HETATM   13  C   UNL     1     -40.065  52.205 -51.092  1.00  0.00     0.021 A 
HETATM   14  C   UNL     1     -40.800  54.541 -50.925  1.00  0.00     0.023 C 
HETATM   15  C   UNL     1     -41.250  55.711 -51.552  1.00  0.00    -0.023 C 
HETATM   16  C   UNL     1     -41.603  56.897 -50.698  1.00  0.00     0.052 C 
ENDBRANCH   1   3
BRANCH   1  17
HETATM   17  C   UNL     1     -42.996  56.537 -54.632  1.00  0.00     0.113 C 
BRANCH  17  18
HETATM   18  C   UNL     1     -42.447  56.521 -56.067  1.00  0.00     0.137 C 
BRANCH  18  19
HETATM   19  N   UNL     1     -43.431  56.499 -57.140  1.00  0.00    -0.356 N 
HETATM   20  C   UNL     1     -43.223  56.958 -58.419  1.00  0.00     0.251 C 
HETATM   21  O   UNL     1     -42.238  57.620 -58.748  1.00  0.00    -0.268 OA
HETATM   22  H   UNL     1     -44.315  56.052 -56.923  1.00  0.00     0.162 HD
BRANCH  20  23
HETATM   23  C   UNL     1     -44.323  56.685 -59.386  1.00  0.00     0.032 A 
HETATM   24  C   UNL     1     -45.399  57.574 -59.454  1.00  0.00     0.020 A 
HETATM   25  C   UNL     1     -46.464  57.311 -60.322  1.00  0.00     0.038 A 
HETATM   26  C   UNL     1     -46.463  56.173 -61.134  1.00  0.00     0.068 A 
HETATM   27  C   UNL     1     -45.374  55.304 -61.089  1.00  0.00     0.038 A 
HETATM   28  C   UNL     1     -44.305  55.560 -60.221  1.00  0.00     0.020 A 
BRANCH  26  29
HETATM   29  O   UNL     1     -47.571  56.032 -61.920  1.00  0.00    -0.356 OA
HETATM   30  C   UNL     1     -48.390  57.182 -62.102  1.00  0.00     0.210 C 
ENDBRANCH  26  29
ENDBRANCH  20  23
ENDBRANCH  18  19
ENDBRANCH  17  18
ENDBRANCH   1  17
TORSDOF 6
ENDMDL
MODEL 4
REMARK VINA RESULT:      -8.1      3.737      6.387
REMARK  6 active torsions:
REMARK  status: ('A' for Active; 'I' for Inactive)
REMARK    1  A    between atoms: C_11  and  N_12 
REMARK    2  A    between atoms: N_12  and  C_13 
REMARK    3  A    between atoms: C_13  and  C_14 
REMARK    4  A    between atoms: C_14  and  N_15 
REMARK       I    between atoms: N_15  and  C_16 
REMARK    5  A    between atoms: C_16  and  C_17 
REMARK    6  A    between atoms: C_20  and  O_21 
ROOT
HETATM    1  N   UNL     1     -41.839  56.742 -53.109  1.00  0.00    -0.277 NA
HETATM    2  H   UNL     1     -42.667  56.564 -53.676  1.00  0.00     0.129 HD
ENDROOT
BRANCH   1   3
HETATM    3  C   UNL     1     -41.327  55.575 -52.542  1.00  0.00     0.086 C 
HETATM    4  N   UNL     1     -40.921  54.578 -53.345  1.00  0.00    -0.346 N 
HETATM    5  C   UNL     1     -40.497  53.378 -52.920  1.00  0.00     0.044 A 
HETATM    6  H   UNL     1     -40.889  54.777 -54.351  1.00  0.00     0.167 HD
HETATM    7  C   UNL     1     -40.190  52.361 -53.830  1.00  0.00     0.037 A 
HETATM    8  C   UNL     1     -40.385  53.148 -51.538  1.00  0.00    -0.008 A 
HETATM    9  C   UNL     1     -39.799  51.089 -53.379  1.00  0.00    -0.054 A 
HETATM   10  C   UNL     1     -39.720  50.840 -51.994  1.00  0.00    -0.055 A 
HETATM   11  C   UNL     1     -39.528  50.002 -54.388  1.00  0.00     0.049 C 
HETATM   12  C   UNL     1     -39.324  49.489 -51.457  1.00  0.00     0.049 C 
HETATM   13  C   UNL     1     -39.989  51.880 -51.088  1.00  0.00     0.021 A 
HETATM   14  C   UNL     1     -40.669  54.201 -50.665  1.00  0.00     0.023 C 
HETATM   15  C   UNL     1     -41.114  55.435 -51.158  1.00  0.00    -0.023 C 
HETATM   16  C   UNL     1     -41.415  56.537 -50.179  1.00  0.00     0.052 C 
ENDBRANCH   1   3
BRANCH   1  17
HETATM   17  C   UNL     1     -40.900  57.604 -53.850  1.00  0.00     0.113 C 
BRANCH  17  18
HETATM   18  C   UNL     1     -40.442  58.801 -53.004  1.00  0.00     0.137 C 
BRANCH  18  19
HETATM   19  N   UNL     1     -41.404  59.326 -52.046  1.00  0.00    -0.356 N 
HETATM   20  C   UNL     1     -42.461  60.152 -52.351  1.00  0.00     0.251 C 
HETATM   21  O   UNL     1     -42.596  60.699 -53.446  1.00  0.00    -0.268 OA
HETATM   22  H   UNL     1     -41.306  58.998 -51.091  1.00  0.00     0.162 HD
BRANCH  20  23
HETATM   23  C   UNL     1     -43.404  60.430 -51.232  1.00  0.00     0.032 A 
HETATM   24  C   UNL     1     -44.576  59.675 -51.132  1.00  0.00     0.020 A 
HETATM   25  C   UNL     1     -45.495  59.952 -50.115  1.00  0.00     0.038 A 
HETATM   26  C   UNL     1     -45.254  60.970 -49.188  1.00  0.00     0.068 A 
HETATM   27  C   UNL     1     -44.070  61.701 -49.270  1.00  0.00     0.038 A 
HETATM   28  C   UNL     1     -43.145  61.430 -50.286  1.00  0.00     0.020 A 
BRANCH  26  29
HETATM   29  O   UNL     1     -46.242  61.143 -48.260  1.00  0.00    -0.356 OA
HETATM   30  C   UNL     1     -45.942  60.780 -46.916  1.00  0.00     0.210 C 
ENDBRANCH  26  29
ENDBRANCH  20  23
ENDBRANCH  18  19
ENDBRANCH  17  18
ENDBRANCH   1  17
TORSDOF 6
ENDMDL
MODEL 5
REMARK VINA RESULT:      -7.9      3.158      3.503
REMARK  6 active torsions:
REMARK  status: ('A' for Active; 'I' for Inactive)
REMARK    1  A    between atoms: C_11  and  N_12 
REMARK    2  A    between atoms: N_12  and  C_13 
REMARK    3  A    between atoms: C_13  and  C_14 
REMARK    4  A    between atoms: C_14  and  N_15 
REMARK       I    between atoms: N_15  and  C_16 
REMARK    5  A    between atoms: C_16  and  C_17 
REMARK    6  A    between atoms: C_20  and  O_21 
ROOT
HETATM    1  N   UNL     1     -41.852  56.461 -55.404  1.00  0.00    -0.277 NA
HETATM    2  H   UNL     1     -41.826  57.427 -55.081  1.00  0.00     0.129 HD
ENDROOT
BRANCH   1   3
HETATM    3  C   UNL     1     -41.383  55.568 -54.441  1.00  0.00     0.086 C 
HETATM    4  N   UNL     1     -40.920  54.368 -54.827  1.00  0.00    -0.346 N 
HETATM    5  C   UNL     1     -40.529  53.394 -53.992  1.00  0.00     0.044 A 
HETATM    6  H   UNL     1     -40.815  54.215 -55.837  1.00  0.00     0.167 HD
HETATM    7  C   UNL     1     -40.157  52.137 -54.479  1.00  0.00     0.037 A 
HETATM    8  C   UNL     1     -40.517  53.649 -52.610  1.00  0.00    -0.008 A 
HETATM    9  C   UNL     1     -39.800  51.103 -53.597  1.00  0.00    -0.054 A 
HETATM   10  C   UNL     1     -39.822  51.340 -52.208  1.00  0.00    -0.055 A 
HETATM   11  C   UNL     1     -39.456  49.745 -54.155  1.00  0.00     0.049 C 
HETATM   12  C   UNL     1     -39.467  50.262 -51.217  1.00  0.00     0.049 C 
HETATM   13  C   UNL     1     -40.156  52.619 -51.729  1.00  0.00     0.021 A 
HETATM   14  C   UNL     1     -40.864  54.929 -52.169  1.00  0.00     0.023 C 
HETATM   15  C   UNL     1     -41.271  55.911 -53.081  1.00  0.00    -0.023 C 
HETATM   16  C   UNL     1     -41.642  57.272 -52.558  1.00  0.00     0.052 C 
ENDBRANCH   1   3
BRANCH   1  17
HETATM   17  C   UNL     1     -43.164  56.172 -56.013  1.00  0.00     0.113 C 
BRANCH  17  18
HETATM   18  C   UNL     1     -43.032  55.825 -57.505  1.00  0.00     0.137 C 
BRANCH  18  19
HETATM   19  N   UNL     1     -44.005  56.434 -58.401  1.00  0.00    -0.356 N 
HETATM   20  C   UNL     1     -44.643  55.791 -59.436  1.00  0.00     0.251 C 
HETATM   21  O   UNL     1     -44.315  54.677 -59.844  1.00  0.00    -0.268 OA
HETATM   22  H   UNL     1     -44.264  57.392 -58.192  1.00  0.00     0.162 HD
BRANCH  20  23
HETATM   23  C   UNL     1     -45.715  56.573 -60.115  1.00  0.00     0.032 A 
HETATM   24  C   UNL     1     -45.708  57.966 -60.004  1.00  0.00     0.020 A 
HETATM   25  C   UNL     1     -46.731  58.715 -60.595  1.00  0.00     0.038 A 
HETATM   26  C   UNL     1     -47.759  58.088 -61.305  1.00  0.00     0.068 A 
HETATM   27  C   UNL     1     -47.748  56.701 -61.442  1.00  0.00     0.038 A 
HETATM   28  C   UNL     1     -46.726  55.945 -60.852  1.00  0.00     0.020 A 
BRANCH  26  29
HETATM   29  O   UNL     1     -48.700  58.937 -61.816  1.00  0.00    -0.356 OA
HETATM   30  C   UNL     1     -48.436  59.508 -63.092  1.00  0.00     0.210 C 
ENDBRANCH  26  29
ENDBRANCH  20  23
ENDBRANCH  18  19
ENDBRANCH  17  18
ENDBRANCH   1  17
TORSDOF 6
ENDMDL
MODEL 6
REMARK VINA RESULT:      -7.9      1.527      2.342
REMARK  6 active torsions:
REMARK  status: ('A' for Active; 'I' for Inactive)
REMARK    1  A    between atoms: C_11  and  N_12 
REMARK    2  A    between atoms: N_12  and  C_13 
REMARK    3  A    between atoms: C_13  and  C_14 
REMARK    4  A    between atoms: C_14  and  N_15 
REMARK       I    between atoms: N_15  and  C_16 
REMARK    5  A    between atoms: C_16  and  C_17 
REMARK    6  A    between atoms: C_20  and  O_21 
ROOT
HETATM    1  N   UNL     1     -41.988  56.775 -54.269  1.00  0.00    -0.277 NA
HETATM    2  H   UNL     1     -42.096  57.641 -53.741  1.00  0.00     0.129 HD
ENDROOT
BRANCH   1   3
HETATM    3  C   UNL     1     -41.481  55.739 -53.484  1.00  0.00     0.086 C 
HETATM    4  N   UNL     1     -41.002  54.636 -54.082  1.00  0.00    -0.346 N 
HETATM    5  C   UNL     1     -40.576  53.540 -53.437  1.00  0.00     0.044 A 
HETATM    6  H   UNL     1     -40.915  54.664 -55.105  1.00  0.00     0.167 HD
HETATM    7  C   UNL     1     -40.188  52.397 -54.143  1.00  0.00     0.037 A 
HETATM    8  C   UNL     1     -40.541  53.550 -52.032  1.00  0.00    -0.008 A 
HETATM    9  C   UNL     1     -39.793  51.233 -53.462  1.00  0.00    -0.054 A 
HETATM   10  C   UNL     1     -39.792  51.223 -52.053  1.00  0.00    -0.055 A 
HETATM   11  C   UNL     1     -39.434  50.002 -54.254  1.00  0.00     0.049 C 
HETATM   12  C   UNL     1     -39.396  49.996 -51.272  1.00  0.00     0.049 C 
HETATM   13  C   UNL     1     -40.142  52.391 -51.352  1.00  0.00     0.021 A 
HETATM   14  C   UNL     1     -40.904  54.724 -51.368  1.00  0.00     0.023 C 
HETATM   15  C   UNL     1     -41.349  55.842 -52.088  1.00  0.00    -0.023 C 
HETATM   16  C   UNL     1     -41.737  57.081 -51.328  1.00  0.00     0.052 C 
ENDBRANCH   1   3
BRANCH   1  17
HETATM   17  C   UNL     1     -43.214  56.503 -55.041  1.00  0.00     0.113 C 
BRANCH  17  18
HETATM   18  C   UNL     1     -42.907  56.279 -56.530  1.00  0.00     0.137 C 
BRANCH  18  19
HETATM   19  N   UNL     1     -42.476  57.445 -57.287  1.00  0.00    -0.356 N 
HETATM   20  C   UNL     1     -42.495  57.555 -58.658  1.00  0.00     0.251 C 
HETATM   21  O   UNL     1     -42.697  56.601 -59.410  1.00  0.00    -0.268 OA
HETATM   22  H   UNL     1     -42.200  58.254 -56.741  1.00  0.00     0.162 HD
BRANCH  20  23
HETATM   23  C   UNL     1     -42.157  58.902 -59.200  1.00  0.00     0.032 A 
HETATM   24  C   UNL     1     -42.188  59.101 -60.582  1.00  0.00     0.020 A 
HETATM   25  C   UNL     1     -41.829  60.345 -61.113  1.00  0.00     0.038 A 
HETATM   26  C   UNL     1     -41.449  61.398 -60.277  1.00  0.00     0.068 A 
HETATM   27  C   UNL     1     -41.449  61.208 -58.896  1.00  0.00     0.038 A 
HETATM   28  C   UNL     1     -41.806  59.964 -58.357  1.00  0.00     0.020 A 
BRANCH  26  29
HETATM   29  O   UNL     1     -41.109  62.550 -60.928  1.00  0.00    -0.356 OA
HETATM   30  C   UNL     1     -39.824  63.097 -60.654  1.00  0.00     0.210 C 
ENDBRANCH  26  29
ENDBRANCH  20  23
ENDBRANCH  18  19
ENDBRANCH  17  18
ENDBRANCH   1  17
TORSDOF 6
ENDMDL
MODEL 7
REMARK VINA RESULT:      -7.8      1.986      9.080
REMARK  6 active torsions:
REMARK  status: ('A' for Active; 'I' for Inactive)
REMARK    1  A    between atoms: C_11  and  N_12 
REMARK    2  A    between atoms: N_12  and  C_13 
REMARK    3  A    between atoms: C_13  and  C_14 
REMARK    4  A    between atoms: C_14  and  N_15 
REMARK       I    between atoms: N_15  and  C_16 
REMARK    5  A    between atoms: C_16  and  C_17 
REMARK    6  A    between atoms: C_20  and  O_21 
ROOT
HETATM    1  N   UNL     1     -43.323  56.068 -56.362  1.00  0.00    -0.277 NA
HETATM    2  H   UNL     1     -43.795  55.206 -56.631  1.00  0.00     0.129 HD
ENDROOT
BRANCH   1   3
HETATM    3  C   UNL     1     -43.008  56.864 -57.463  1.00  0.00     0.086 C 
HETATM    4  N   UNL     1     -42.388  58.039 -57.269  1.00  0.00    -0.346 N 
HETATM    5  C   UNL     1     -42.116  58.929 -58.235  1.00  0.00     0.044 A 
HETATM    6  H   UNL     1     -42.059  58.237 -56.317  1.00  0.00     0.167 HD
HETATM    7  C   UNL     1     -41.559  60.175 -57.927  1.00  0.00     0.037 A 
HETATM    8  C   UNL     1     -42.419  58.599 -59.566  1.00  0.00    -0.008 A 
HETATM    9  C   UNL     1     -41.326  61.125 -58.935  1.00  0.00    -0.054 A 
HETATM   10  C   UNL     1     -41.662  60.815 -60.268  1.00  0.00    -0.055 A 
HETATM   11  C   UNL     1     -40.774  62.477 -58.560  1.00  0.00     0.049 C 
HETATM   12  C   UNL     1     -41.451  61.804 -61.386  1.00  0.00     0.049 C 
HETATM   13  C   UNL     1     -42.181  59.545 -60.574  1.00  0.00     0.021 A 
HETATM   14  C   UNL     1     -42.943  57.332 -59.833  1.00  0.00     0.023 C 
HETATM   15  C   UNL     1     -43.215  56.439 -58.788  1.00  0.00    -0.023 C 
HETATM   16  C   UNL     1     -43.786  55.088 -59.124  1.00  0.00     0.052 C 
ENDBRANCH   1   3
BRANCH   1  17
HETATM   17  C   UNL     1     -44.047  56.708 -55.248  1.00  0.00     0.113 C 
BRANCH  17  18
HETATM   18  C   UNL     1     -43.270  56.596 -53.927  1.00  0.00     0.137 C 
BRANCH  18  19
HETATM   19  N   UNL     1     -42.588  55.334 -53.681  1.00  0.00    -0.356 N 
HETATM   20  C   UNL     1     -41.284  55.056 -54.018  1.00  0.00     0.251 C 
HETATM   21  O   UNL     1     -40.605  55.781 -54.746  1.00  0.00    -0.268 OA
HETATM   22  H   UNL     1     -43.113  54.637 -53.164  1.00  0.00     0.162 HD
BRANCH  20  23
HETATM   23  C   UNL     1     -40.755  53.754 -53.522  1.00  0.00     0.032 A 
HETATM   24  C   UNL     1     -40.440  53.625 -52.167  1.00  0.00     0.020 A 
HETATM   25  C   UNL     1     -39.899  52.426 -51.691  1.00  0.00     0.038 A 
HETATM   26  C   UNL     1     -39.677  51.348 -52.552  1.00  0.00     0.068 A 
HETATM   27  C   UNL     1     -40.021  51.467 -53.898  1.00  0.00     0.038 A 
HETATM   28  C   UNL     1     -40.562  52.666 -54.382  1.00  0.00     0.020 A 
BRANCH  26  29
HETATM   29  O   UNL     1     -39.130  50.246 -51.958  1.00  0.00    -0.356 OA
HETATM   30  C   UNL     1     -39.734  49.791 -50.752  1.00  0.00     0.210 C 
ENDBRANCH  26  29
ENDBRANCH  20  23
ENDBRANCH  18  19
ENDBRANCH  17  18
ENDBRANCH   1  17
TORSDOF 6
ENDMDL
MODEL 8
REMARK VINA RESULT:      -7.6      2.741      7.911
REMARK  6 active torsions:
REMARK  status: ('A' for Active; 'I' for Inactive)
REMARK    1  A    between atoms: C_11  and  N_12 
REMARK    2  A    between atoms: N_12  and  C_13 
REMARK    3  A    between atoms: C_13  and  C_14 
REMARK    4  A    between atoms: C_14  and  N_15 
REMARK       I    between atoms: N_15  and  C_16 
REMARK    5  A    between atoms: C_16  and  C_17 
REMARK    6  A    between atoms: C_20  and  O_21 
ROOT
HETATM    1  N   UNL     1     -43.526  57.330 -52.949  1.00  0.00    -0.277 NA
HETATM    2  H   UNL     1     -44.524  57.430 -52.768  1.00  0.00     0.129 HD
ENDROOT
BRANCH   1   3
HETATM    3  C   UNL     1     -43.238  57.286 -54.313  1.00  0.00     0.086 C 
HETATM    4  N   UNL     1     -42.722  58.372 -54.911  1.00  0.00    -0.346 N 
HETATM    5  C   UNL     1     -42.489  58.482 -56.227  1.00  0.00     0.044 A 
HETATM    6  H   UNL     1     -42.443  59.149 -54.300  1.00  0.00     0.167 HD
HETATM    7  C   UNL     1     -42.045  59.688 -56.779  1.00  0.00     0.037 A 
HETATM    8  C   UNL     1     -42.717  57.368 -57.052  1.00  0.00    -0.008 A 
HETATM    9  C   UNL     1     -41.854  59.816 -58.165  1.00  0.00    -0.054 A 
HETATM   10  C   UNL     1     -42.117  58.713 -59.003  1.00  0.00    -0.055 A 
HETATM   11  C   UNL     1     -41.427  61.146 -58.731  1.00  0.00     0.049 C 
HETATM   12  C   UNL     1     -41.948  58.801 -60.498  1.00  0.00     0.049 C 
HETATM   13  C   UNL     1     -42.522  57.493 -58.436  1.00  0.00     0.021 A 
HETATM   14  C   UNL     1     -43.128  56.173 -56.456  1.00  0.00     0.023 C 
HETATM   15  C   UNL     1     -43.363  56.110 -55.075  1.00  0.00    -0.023 C 
HETATM   16  C   UNL     1     -43.812  54.804 -54.479  1.00  0.00     0.052 C 
ENDBRANCH   1   3
BRANCH   1  17
HETATM   17  C   UNL     1     -42.770  58.293 -52.127  1.00  0.00     0.113 C 
BRANCH  17  18
HETATM   18  C   UNL     1     -41.819  57.582 -51.151  1.00  0.00     0.137 C 
BRANCH  18  19
HETATM   19  N   UNL     1     -41.236  56.329 -51.609  1.00  0.00    -0.356 N 
HETATM   20  C   UNL     1     -41.555  55.081 -51.128  1.00  0.00     0.251 C 
HETATM   21  O   UNL     1     -42.231  54.899 -50.115  1.00  0.00    -0.268 OA
HETATM   22  H   UNL     1     -40.588  56.398 -52.386  1.00  0.00     0.162 HD
BRANCH  20  23
HETATM   23  C   UNL     1     -40.945  53.935 -51.861  1.00  0.00     0.032 A 
HETATM   24  C   UNL     1     -40.350  52.904 -51.128  1.00  0.00     0.020 A 
HETATM   25  C   UNL     1     -39.732  51.843 -51.798  1.00  0.00     0.038 A 
HETATM   26  C   UNL     1     -39.710  51.793 -53.195  1.00  0.00     0.068 A 
HETATM   27  C   UNL     1     -40.332  52.806 -53.924  1.00  0.00     0.038 A 
HETATM   28  C   UNL     1     -40.952  53.872 -53.260  1.00  0.00     0.020 A 
BRANCH  26  29
HETATM   29  O   UNL     1     -39.060  50.711 -53.717  1.00  0.00    -0.356 OA
HETATM   30  C   UNL     1     -39.822  49.828 -54.533  1.00  0.00     0.210 C 
ENDBRANCH  26  29
ENDBRANCH  20  23
ENDBRANCH  18  19
ENDBRANCH  17  18
ENDBRANCH   1  17
TORSDOF 6
ENDMDL
MODEL 9
REMARK VINA RESULT:      -7.5     14.670     16.763
REMARK  6 active torsions:
REMARK  status: ('A' for Active; 'I' for Inactive)
REMARK    1  A    between atoms: C_11  and  N_12 
REMARK    2  A    between atoms: N_12  and  C_13 
REMARK    3  A    between atoms: C_13  and  C_14 
REMARK    4  A    between atoms: C_14  and  N_15 
REMARK       I    between atoms: N_15  and  C_16 
REMARK    5  A    between atoms: C_16  and  C_17 
REMARK    6  A    between atoms: C_20  and  O_21 
ROOT
HETATM    1  N   UNL     1     -35.392  40.901 -50.969  1.00  0.00    -0.277 NA
HETATM    2  H   UNL     1     -35.274  41.103 -49.977  1.00  0.00     0.129 HD
ENDROOT
BRANCH   1   3
HETATM    3  C   UNL     1     -34.314  40.189 -51.494  1.00  0.00     0.086 C 
HETATM    4  N   UNL     1     -33.832  40.523 -52.702  1.00  0.00    -0.346 N 
HETATM    5  C   UNL     1     -32.863  39.858 -53.350  1.00  0.00     0.044 A 
HETATM    6  H   UNL     1     -34.204  41.379 -53.129  1.00  0.00     0.167 HD
HETATM    7  C   UNL     1     -32.493  40.215 -54.650  1.00  0.00     0.037 A 
HETATM    8  C   UNL     1     -32.235  38.778 -52.707  1.00  0.00    -0.008 A 
HETATM    9  C   UNL     1     -31.516  39.482 -55.345  1.00  0.00    -0.054 A 
HETATM   10  C   UNL     1     -30.908  38.375 -54.720  1.00  0.00    -0.055 A 
HETATM   11  C   UNL     1     -31.181  39.863 -56.765  1.00  0.00     0.049 C 
HETATM   12  C   UNL     1     -29.869  37.543 -55.426  1.00  0.00     0.049 C 
HETATM   13  C   UNL     1     -31.255  38.049 -53.398  1.00  0.00     0.021 A 
HETATM   14  C   UNL     1     -32.611  38.476 -51.396  1.00  0.00     0.023 C 
HETATM   15  C   UNL     1     -33.633  39.197 -50.764  1.00  0.00    -0.023 C 
HETATM   16  C   UNL     1     -34.009  38.831 -49.354  1.00  0.00     0.052 C 
ENDBRANCH   1   3
BRANCH   1  17
HETATM   17  C   UNL     1     -36.743  40.362 -51.213  1.00  0.00     0.113 C 
BRANCH  17  18
HETATM   18  C   UNL     1     -37.649  41.395 -51.901  1.00  0.00     0.137 C 
BRANCH  18  19
HETATM   19  N   UNL     1     -37.547  41.486 -53.351  1.00  0.00    -0.356 N 
HETATM   20  C   UNL     1     -36.520  42.086 -54.040  1.00  0.00     0.251 C 
HETATM   21  O   UNL     1     -35.665  42.790 -53.501  1.00  0.00    -0.268 OA
HETATM   22  H   UNL     1     -38.271  41.010 -53.878  1.00  0.00     0.162 HD
BRANCH  20  23
HETATM   23  C   UNL     1     -36.551  41.915 -55.520  1.00  0.00     0.032 A 
HETATM   24  C   UNL     1     -37.772  41.640 -56.142  1.00  0.00     0.020 A 
HETATM   25  C   UNL     1     -37.815  41.430 -57.524  1.00  0.00     0.038 A 
HETATM   26  C   UNL     1     -36.652  41.500 -58.297  1.00  0.00     0.068 A 
HETATM   27  C   UNL     1     -35.440  41.806 -57.679  1.00  0.00     0.038 A 
HETATM   28  C   UNL     1     -35.390  42.017 -56.295  1.00  0.00     0.020 A 
BRANCH  26  29
HETATM   29  O   UNL     1     -36.836  41.259 -59.628  1.00  0.00    -0.356 OA
HETATM   30  C   UNL     1     -36.916  39.897 -60.037  1.00  0.00     0.210 C 
ENDBRANCH  26  29
ENDBRANCH  20  23
ENDBRANCH  18  19
ENDBRANCH  17  18
ENDBRANCH   1  17
TORSDOF 6
ENDMDL
MODEL 10
REMARK VINA RESULT:      -7.4      2.341      7.612
REMARK  6 active torsions:
REMARK  status: ('A' for Active; 'I' for Inactive)
REMARK    1  A    between atoms: C_11  and  N_12 
REMARK    2  A    between atoms: N_12  and  C_13 
REMARK    3  A    between atoms: C_13  and  C_14 
REMARK    4  A    between atoms: C_14  and  N_15 
REMARK       I    between atoms: N_15  and  C_16 
REMARK    5  A    between atoms: C_16  and  C_17 
REMARK    6  A    between atoms: C_20  and  O_21 
ROOT
HETATM    1  N   UNL     1     -41.892  59.938 -53.539  1.00  0.00    -0.277 NA
HETATM    2  H   UNL     1     -41.359  60.726 -53.903  1.00  0.00     0.129 HD
ENDROOT
BRANCH   1   3
HETATM    3  C   UNL     1     -42.756  59.399 -54.493  1.00  0.00     0.086 C 
HETATM    4  N   UNL     1     -42.244  58.723 -55.535  1.00  0.00    -0.346 N 
HETATM    5  C   UNL     1     -42.963  58.240 -56.560  1.00  0.00     0.044 A 
HETATM    6  H   UNL     1     -41.237  58.525 -55.510  1.00  0.00     0.167 HD
HETATM    7  C   UNL     1     -42.335  57.638 -57.655  1.00  0.00     0.037 A 
HETATM    8  C   UNL     1     -44.361  58.366 -56.527  1.00  0.00    -0.008 A 
HETATM    9  C   UNL     1     -43.086  57.181 -58.751  1.00  0.00    -0.054 A 
HETATM   10  C   UNL     1     -44.487  57.338 -58.742  1.00  0.00    -0.055 A 
HETATM   11  C   UNL     1     -42.372  56.585 -59.937  1.00  0.00     0.049 C 
HETATM   12  C   UNL     1     -45.340  56.884 -59.899  1.00  0.00     0.049 C 
HETATM   13  C   UNL     1     -45.113  57.906 -57.618  1.00  0.00     0.021 A 
HETATM   14  C   UNL     1     -44.950  58.944 -55.400  1.00  0.00     0.023 C 
HETATM   15  C   UNL     1     -44.155  59.440 -54.357  1.00  0.00    -0.023 C 
HETATM   16  C   UNL     1     -44.834  60.061 -53.166  1.00  0.00     0.052 C 
ENDBRANCH   1   3
BRANCH   1  17
HETATM   17  C   UNL     1     -40.992  59.005 -52.837  1.00  0.00     0.113 C 
BRANCH  17  18
HETATM   18  C   UNL     1     -41.775  57.996 -51.983  1.00  0.00     0.137 C 
BRANCH  18  19
HETATM   19  N   UNL     1     -41.379  56.599 -52.101  1.00  0.00    -0.356 N 
HETATM   20  C   UNL     1     -41.764  55.747 -53.109  1.00  0.00     0.251 C 
HETATM   21  O   UNL     1     -42.648  56.017 -53.923  1.00  0.00    -0.268 OA
HETATM   22  H   UNL     1     -40.719  56.264 -51.408  1.00  0.00     0.162 HD
BRANCH  20  23
HETATM   23  C   UNL     1     -41.106  54.410 -53.107  1.00  0.00     0.032 A 
HETATM   24  C   UNL     1     -41.067  53.673 -54.294  1.00  0.00     0.020 A 
HETATM   25  C   UNL     1     -40.495  52.397 -54.301  1.00  0.00     0.038 A 
HETATM   26  C   UNL     1     -39.949  51.850 -53.137  1.00  0.00     0.068 A 
HETATM   27  C   UNL     1     -39.959  52.599 -51.960  1.00  0.00     0.038 A 
HETATM   28  C   UNL     1     -40.532  53.877 -51.946  1.00  0.00     0.020 A 
BRANCH  26  29
HETATM   29  O   UNL     1     -39.438  50.591 -53.282  1.00  0.00    -0.356 OA
HETATM   30  C   UNL     1     -39.714  49.915 -54.504  1.00  0.00     0.210 C 
ENDBRANCH  26  29
ENDBRANCH  20  23
ENDBRANCH  18  19
ENDBRANCH  17  18
ENDBRANCH   1  17
TORSDOF 6
ENDMDL
