MODEL 1
REMARK VINA RESULT:      -8.8      0.000      0.000
REMARK  9 active torsions:
REMARK  status: ('A' for Active; 'I' for Inactive)
REMARK    1  A    between atoms: C_2  and  O_3 
REMARK    2  A    between atoms: O_3  and  C_4 
REMARK    3  A    between atoms: C_5  and  N_6 
REMARK       I    between atoms: N_6  and  C_7 
REMARK    4  A    between atoms: C_7  and  C_8 
REMARK    5  A    between atoms: C_11  and  N_12 
REMARK    6  A    between atoms: C_17  and  N_18 
REMARK       I    between atoms: N_18  and  C_19 
REMARK    7  A    between atoms: C_19  and  C_20 
REMARK    8  A    between atoms: C_23  and  N_24 
REMARK    9  A    between atoms: C_29  and  C_30 
REMARK       I    between atoms: C_30  and  N_31 
ROOT
HETATM    1  C   UNL     1     -43.491  57.130 -57.310  1.00  0.00     0.111 A 
HETATM    2  C   UNL     1     -43.120  57.557 -56.019  1.00  0.00     0.071 A 
HETATM    3  C   UNL     1     -42.620  56.631 -55.093  1.00  0.00     0.062 A 
HETATM    4  C   UNL     1     -42.464  55.288 -55.458  1.00  0.00     0.038 A 
HETATM    5  C   UNL     1     -42.827  54.880 -56.749  1.00  0.00     0.049 A 
HETATM    6  C   UNL     1     -43.306  55.797 -57.692  1.00  0.00     0.069 A 
ENDROOT
BRANCH   2   7
HETATM    7  N   UNL     1     -43.197  58.951 -55.770  1.00  0.00    -0.320 N 
HETATM    8  C   UNL     1     -42.188  59.766 -55.316  1.00  0.00     0.256 C 
HETATM    9  O   UNL     1     -41.778  60.686 -56.021  1.00  0.00    -0.267 OA
HETATM   10  H   UNL     1     -43.790  59.415 -56.453  1.00  0.00     0.169 HD
BRANCH   8  11
HETATM   11  C   UNL     1     -41.787  59.689 -53.879  1.00  0.00     0.032 A 
HETATM   12  C   UNL     1     -42.652  60.234 -52.922  1.00  0.00     0.019 A 
HETATM   13  C   UNL     1     -42.425  60.027 -51.557  1.00  0.00     0.024 A 
HETATM   14  C   UNL     1     -41.309  59.312 -51.119  1.00  0.00     0.005 A 
HETATM   15  C   UNL     1     -40.464  58.742 -52.076  1.00  0.00     0.024 A 
HETATM   16  C   UNL     1     -40.688  58.940 -53.444  1.00  0.00     0.019 A 
BRANCH  14  17
HETATM   17  N   UNL     1     -41.184  58.960 -49.771  1.00  0.00    -0.303 NA
HETATM   18  H   UNL     1     -41.930  58.361 -49.432  1.00  0.00     0.124 HD
HETATM   19  H   UNL     1     -41.010  59.747 -49.153  1.00  0.00     0.124 HD
ENDBRANCH  14  17
ENDBRANCH   8  11
ENDBRANCH   2   7
BRANCH   1  20
HETATM   20  O   UNL     1     -43.977  58.083 -58.178  1.00  0.00    -0.348 OA
BRANCH  20  21
HETATM   21  C   UNL     1     -45.416  58.114 -58.185  1.00  0.00     0.171 C 
HETATM   22  C   UNL     1     -45.942  57.959 -59.600  1.00  0.00     0.034 C 
ENDBRANCH  20  21
ENDBRANCH   1  20
BRANCH   6  23
HETATM   23  C   UNL     1     -43.529  55.283 -59.068  1.00  0.00     0.252 C 
HETATM   24  N   UNL     1     -44.538  54.382 -59.249  1.00  0.00    -0.366 N 
HETATM   25  H   UNL     1     -45.128  54.067 -58.488  1.00  0.00     0.159 HD
HETATM   26  H   UNL     1     -44.737  54.065 -60.188  1.00  0.00     0.159 HD
HETATM   27  O   UNL     1     -42.865  55.689 -60.015  1.00  0.00    -0.268 OA
ENDBRANCH   6  23
BRANCH   4  28
HETATM   28  N   UNL     1     -41.881  54.293 -54.642  1.00  0.00    -0.323 N 
HETATM   29  C   UNL     1     -40.557  53.900 -54.596  1.00  0.00     0.256 C 
HETATM   30  O   UNL     1     -39.619  54.480 -55.128  1.00  0.00    -0.267 OA
HETATM   31  H   UNL     1     -42.527  53.795 -54.043  1.00  0.00     0.169 HD
BRANCH  29  32
HETATM   32  C   UNL     1     -40.283  52.654 -53.806  1.00  0.00     0.032 A 
HETATM   33  C   UNL     1     -40.148  51.394 -54.404  1.00  0.00     0.019 A 
HETATM   34  C   UNL     1     -39.874  50.266 -53.620  1.00  0.00     0.024 A 
HETATM   35  C   UNL     1     -39.750  50.367 -52.234  1.00  0.00     0.005 A 
HETATM   36  C   UNL     1     -39.800  51.637 -51.653  1.00  0.00     0.024 A 
HETATM   37  C   UNL     1     -40.083  52.769 -52.426  1.00  0.00     0.019 A 
BRANCH  35  38
HETATM   38  N   UNL     1     -39.341  49.262 -51.481  1.00  0.00    -0.303 NA
HETATM   39  H   UNL     1     -38.843  48.557 -52.016  1.00  0.00     0.124 HD
HETATM   40  H   UNL     1     -40.073  48.860 -50.904  1.00  0.00     0.124 HD
ENDBRANCH  35  38
ENDBRANCH  29  32
ENDBRANCH   4  28
TORSDOF 9
ENDMDL
MODEL 2
REMARK VINA RESULT:      -8.6      2.544      6.936
REMARK  9 active torsions:
REMARK  status: ('A' for Active; 'I' for Inactive)
REMARK    1  A    between atoms: C_2  and  O_3 
REMARK    2  A    between atoms: O_3  and  C_4 
REMARK    3  A    between atoms: C_5  and  N_6 
REMARK       I    between atoms: N_6  and  C_7 
REMARK    4  A    between atoms: C_7  and  C_8 
REMARK    5  A    between atoms: C_11  and  N_12 
REMARK    6  A    between atoms: C_17  and  N_18 
REMARK       I    between atoms: N_18  and  C_19 
REMARK    7  A    between atoms: C_19  and  C_20 
REMARK    8  A    between atoms: C_23  and  N_24 
REMARK    9  A    between atoms: C_29  and  C_30 
REMARK       I    between atoms: C_30  and  N_31 
ROOT
HETATM    1  C   UNL     1     -41.680  53.556 -52.826  1.00  0.00     0.111 A 
HETATM    2  C   UNL     1     -42.584  54.635 -52.903  1.00  0.00     0.071 A 
HETATM    3  C   UNL     1     -43.097  55.030 -54.146  1.00  0.00     0.062 A 
HETATM    4  C   UNL     1     -42.734  54.336 -55.307  1.00  0.00     0.038 A 
HETATM    5  C   UNL     1     -41.843  53.258 -55.213  1.00  0.00     0.049 A 
HETATM    6  C   UNL     1     -41.340  52.837 -53.976  1.00  0.00     0.069 A 
ENDROOT
BRANCH   2   7
HETATM    7  N   UNL     1     -42.992  55.205 -51.670  1.00  0.00    -0.320 N 
HETATM    8  C   UNL     1     -43.291  56.524 -51.428  1.00  0.00     0.256 C 
HETATM    9  O   UNL     1     -44.426  56.842 -51.078  1.00  0.00    -0.267 OA
HETATM   10  H   UNL     1     -43.597  54.572 -51.154  1.00  0.00     0.169 HD
BRANCH   8  11
HETATM   11  C   UNL     1     -42.175  57.514 -51.339  1.00  0.00     0.032 A 
HETATM   12  C   UNL     1     -41.319  57.445 -50.233  1.00  0.00     0.019 A 
HETATM   13  C   UNL     1     -40.153  58.216 -50.186  1.00  0.00     0.024 A 
HETATM   14  C   UNL     1     -39.841  59.103 -51.219  1.00  0.00     0.005 A 
HETATM   15  C   UNL     1     -40.680  59.147 -52.336  1.00  0.00     0.024 A 
HETATM   16  C   UNL     1     -41.847  58.374 -52.392  1.00  0.00     0.019 A 
BRANCH  14  17
HETATM   17  N   UNL     1     -38.594  59.736 -51.250  1.00  0.00    -0.303 NA
HETATM   18  H   UNL     1     -38.611  60.692 -50.910  1.00  0.00     0.124 HD
HETATM   19  H   UNL     1     -38.110  59.651 -52.138  1.00  0.00     0.124 HD
ENDBRANCH  14  17
ENDBRANCH   8  11
ENDBRANCH   2   7
BRANCH   1  20
HETATM   20  O   UNL     1     -41.208  53.212 -51.577  1.00  0.00    -0.348 OA
BRANCH  20  21
HETATM   21  C   UNL     1     -40.125  54.065 -51.164  1.00  0.00     0.171 C 
HETATM   22  C   UNL     1     -39.969  54.028 -49.655  1.00  0.00     0.034 C 
ENDBRANCH  20  21
ENDBRANCH   1  20
BRANCH   6  23
HETATM   23  C   UNL     1     -40.516  51.602 -53.977  1.00  0.00     0.252 C 
HETATM   24  N   UNL     1     -39.290  51.660 -53.379  1.00  0.00    -0.366 N 
HETATM   25  H   UNL     1     -38.940  52.503 -52.940  1.00  0.00     0.159 HD
HETATM   26  H   UNL     1     -38.741  50.813 -53.323  1.00  0.00     0.159 HD
HETATM   27  O   UNL     1     -40.938  50.554 -54.453  1.00  0.00    -0.268 OA
ENDBRANCH   6  23
BRANCH   4  28
HETATM   28  N   UNL     1     -43.263  54.583 -56.594  1.00  0.00    -0.323 N 
HETATM   29  C   UNL     1     -43.131  55.726 -57.361  1.00  0.00     0.256 C 
HETATM   30  O   UNL     1     -42.372  56.658 -57.133  1.00  0.00    -0.267 OA
HETATM   31  H   UNL     1     -43.828  53.838 -56.977  1.00  0.00     0.169 HD
BRANCH  29  32
HETATM   32  C   UNL     1     -44.005  55.785 -58.579  1.00  0.00     0.032 A 
HETATM   33  C   UNL     1     -44.192  54.686 -59.430  1.00  0.00     0.019 A 
HETATM   34  C   UNL     1     -45.035  54.791 -60.544  1.00  0.00     0.024 A 
HETATM   35  C   UNL     1     -45.687  55.988 -60.841  1.00  0.00     0.005 A 
HETATM   36  C   UNL     1     -45.566  57.052 -59.943  1.00  0.00     0.024 A 
HETATM   37  C   UNL     1     -44.719  56.961 -58.833  1.00  0.00     0.019 A 
BRANCH  35  38
HETATM   38  N   UNL     1     -46.630  56.039 -61.872  1.00  0.00    -0.303 NA
HETATM   39  H   UNL     1     -46.334  55.578 -62.728  1.00  0.00     0.124 HD
HETATM   40  H   UNL     1     -47.005  56.966 -62.046  1.00  0.00     0.124 HD
ENDBRANCH  35  38
ENDBRANCH  29  32
ENDBRANCH   4  28
TORSDOF 9
ENDMDL
MODEL 3
REMARK VINA RESULT:      -8.5      1.488      2.081
REMARK  9 active torsions:
REMARK  status: ('A' for Active; 'I' for Inactive)
REMARK    1  A    between atoms: C_2  and  O_3 
REMARK    2  A    between atoms: O_3  and  C_4 
REMARK    3  A    between atoms: C_5  and  N_6 
REMARK       I    between atoms: N_6  and  C_7 
REMARK    4  A    between atoms: C_7  and  C_8 
REMARK    5  A    between atoms: C_11  and  N_12 
REMARK    6  A    between atoms: C_17  and  N_18 
REMARK       I    between atoms: N_18  and  C_19 
REMARK    7  A    between atoms: C_19  and  C_20 
REMARK    8  A    between atoms: C_23  and  N_24 
REMARK    9  A    between atoms: C_29  and  C_30 
REMARK       I    between atoms: C_30  and  N_31 
ROOT
HETATM    1  C   UNL     1     -43.699  57.158 -57.292  1.00  0.00     0.111 A 
HETATM    2  C   UNL     1     -43.424  57.567 -55.972  1.00  0.00     0.071 A 
HETATM    3  C   UNL     1     -42.883  56.655 -55.055  1.00  0.00     0.062 A 
HETATM    4  C   UNL     1     -42.591  55.345 -55.458  1.00  0.00     0.038 A 
HETATM    5  C   UNL     1     -42.860  54.956 -56.777  1.00  0.00     0.049 A 
HETATM    6  C   UNL     1     -43.378  55.863 -57.710  1.00  0.00     0.069 A 
ENDROOT
BRANCH   2   7
HETATM    7  N   UNL     1     -43.636  58.938 -55.679  1.00  0.00    -0.320 N 
HETATM    8  C   UNL     1     -43.298  59.599 -54.523  1.00  0.00     0.256 C 
HETATM    9  O   UNL     1     -42.481  60.518 -54.558  1.00  0.00    -0.267 OA
HETATM   10  H   UNL     1     -43.506  59.516 -56.506  1.00  0.00     0.169 HD
BRANCH   8  11
HETATM   11  C   UNL     1     -44.115  59.371 -53.294  1.00  0.00     0.032 A 
HETATM   12  C   UNL     1     -43.559  58.600 -52.265  1.00  0.00     0.019 A 
HETATM   13  C   UNL     1     -44.195  58.507 -51.022  1.00  0.00     0.024 A 
HETATM   14  C   UNL     1     -45.417  59.144 -50.796  1.00  0.00     0.005 A 
HETATM   15  C   UNL     1     -45.954  59.938 -51.813  1.00  0.00     0.024 A 
HETATM   16  C   UNL     1     -45.321  60.040 -53.058  1.00  0.00     0.019 A 
BRANCH  14  17
HETATM   17  N   UNL     1     -45.955  59.193 -49.506  1.00  0.00    -0.303 NA
HETATM   18  H   UNL     1     -45.873  58.320 -48.993  1.00  0.00     0.124 HD
HETATM   19  H   UNL     1     -46.894  59.577 -49.464  1.00  0.00     0.124 HD
ENDBRANCH  14  17
ENDBRANCH   8  11
ENDBRANCH   2   7
BRANCH   1  20
HETATM   20  O   UNL     1     -44.230  58.097 -58.149  1.00  0.00    -0.348 OA
BRANCH  20  21
HETATM   21  C   UNL     1     -45.661  57.981 -58.246  1.00  0.00     0.171 C 
HETATM   22  C   UNL     1     -46.095  57.968 -59.701  1.00  0.00     0.034 C 
ENDBRANCH  20  21
ENDBRANCH   1  20
BRANCH   6  23
HETATM   23  C   UNL     1     -43.494  55.383 -59.112  1.00  0.00     0.252 C 
HETATM   24  N   UNL     1     -44.523  54.536 -59.407  1.00  0.00    -0.366 N 
HETATM   25  H   UNL     1     -45.196  54.238 -58.711  1.00  0.00     0.159 HD
HETATM   26  H   UNL     1     -44.647  54.245 -60.367  1.00  0.00     0.159 HD
HETATM   27  O   UNL     1     -42.725  55.772 -59.983  1.00  0.00    -0.268 OA
ENDBRANCH   6  23
BRANCH   4  28
HETATM   28  N   UNL     1     -41.957  54.375 -54.650  1.00  0.00    -0.323 N 
HETATM   29  C   UNL     1     -40.612  54.060 -54.599  1.00  0.00     0.256 C 
HETATM   30  O   UNL     1     -39.706  54.700 -55.116  1.00  0.00    -0.267 OA
HETATM   31  H   UNL     1     -42.577  53.833 -54.063  1.00  0.00     0.169 HD
BRANCH  29  32
HETATM   32  C   UNL     1     -40.272  52.822 -53.822  1.00  0.00     0.032 A 
HETATM   33  C   UNL     1     -40.131  52.820 -52.427  1.00  0.00     0.019 A 
HETATM   34  C   UNL     1     -39.832  51.631 -51.749  1.00  0.00     0.024 A 
HETATM   35  C   UNL     1     -39.649  50.435 -52.444  1.00  0.00     0.005 A 
HETATM   36  C   UNL     1     -39.876  50.425 -53.823  1.00  0.00     0.024 A 
HETATM   37  C   UNL     1     -40.165  51.609 -54.510  1.00  0.00     0.019 A 
BRANCH  35  38
HETATM   38  N   UNL     1     -39.488  49.234 -51.746  1.00  0.00    -0.303 NA
HETATM   39  H   UNL     1     -39.196  48.453 -52.326  1.00  0.00     0.124 HD
HETATM   40  H   UNL     1     -40.270  48.996 -51.145  1.00  0.00     0.124 HD
ENDBRANCH  35  38
ENDBRANCH  29  32
ENDBRANCH   4  28
TORSDOF 9
ENDMDL
MODEL 4
REMARK VINA RESULT:      -8.4      2.015      5.516
REMARK  9 active torsions:
REMARK  status: ('A' for Active; 'I' for Inactive)
REMARK    1  A    between atoms: C_2  and  O_3 
REMARK    2  A    between atoms: O_3  and  C_4 
REMARK    3  A    between atoms: C_5  and  N_6 
REMARK       I    between atoms: N_6  and  C_7 
REMARK    4  A    between atoms: C_7  and  C_8 
REMARK    5  A    between atoms: C_11  and  N_12 
REMARK    6  A    between atoms: C_17  and  N_18 
REMARK       I    between atoms: N_18  and  C_19 
REMARK    7  A    between atoms: C_19  and  C_20 
REMARK    8  A    between atoms: C_23  and  N_24 
REMARK    9  A    between atoms: C_29  and  C_30 
REMARK       I    between atoms: C_30  and  N_31 
ROOT
HETATM    1  C   UNL     1     -42.808  59.050 -53.022  1.00  0.00     0.111 A 
HETATM    2  C   UNL     1     -43.182  58.151 -54.042  1.00  0.00     0.071 A 
HETATM    3  C   UNL     1     -42.629  56.863 -54.076  1.00  0.00     0.062 A 
HETATM    4  C   UNL     1     -41.727  56.461 -53.083  1.00  0.00     0.038 A 
HETATM    5  C   UNL     1     -41.373  57.362 -52.069  1.00  0.00     0.049 A 
HETATM    6  C   UNL     1     -41.935  58.643 -52.009  1.00  0.00     0.069 A 
ENDROOT
BRANCH   2   7
HETATM    7  N   UNL     1     -44.188  58.595 -54.936  1.00  0.00    -0.320 N 
HETATM    8  C   UNL     1     -44.755  57.881 -55.964  1.00  0.00     0.256 C 
HETATM    9  O   UNL     1     -45.957  57.622 -55.942  1.00  0.00    -0.267 OA
HETATM   10  H   UNL     1     -44.863  59.193 -54.464  1.00  0.00     0.169 HD
BRANCH   8  11
HETATM   11  C   UNL     1     -43.964  57.657 -57.211  1.00  0.00     0.032 A 
HETATM   12  C   UNL     1     -43.064  58.654 -57.610  1.00  0.00     0.019 A 
HETATM   13  C   UNL     1     -42.165  58.424 -58.656  1.00  0.00     0.024 A 
HETATM   14  C   UNL     1     -42.175  57.214 -59.354  1.00  0.00     0.005 A 
HETATM   15  C   UNL     1     -43.051  56.209 -58.934  1.00  0.00     0.024 A 
HETATM   16  C   UNL     1     -43.951  56.430 -57.884  1.00  0.00     0.019 A 
BRANCH  14  17
HETATM   17  N   UNL     1     -41.163  56.925 -60.275  1.00  0.00    -0.303 NA
HETATM   18  H   UNL     1     -40.320  57.475 -60.144  1.00  0.00     0.124 HD
HETATM   19  H   UNL     1     -41.473  56.920 -61.242  1.00  0.00     0.124 HD
ENDBRANCH  14  17
ENDBRANCH   8  11
ENDBRANCH   2   7
BRANCH   1  20
HETATM   20  O   UNL     1     -43.384  60.302 -53.039  1.00  0.00    -0.348 OA
BRANCH  20  21
HETATM   21  C   UNL     1     -42.570  61.253 -53.749  1.00  0.00     0.171 C 
HETATM   22  C   UNL     1     -43.413  62.035 -54.740  1.00  0.00     0.034 C 
ENDBRANCH  20  21
ENDBRANCH   1  20
BRANCH   6  23
HETATM   23  C   UNL     1     -41.596  59.464 -50.817  1.00  0.00     0.252 C 
HETATM   24  N   UNL     1     -42.628  60.031 -50.127  1.00  0.00    -0.366 N 
HETATM   25  H   UNL     1     -43.596  59.903 -50.397  1.00  0.00     0.159 HD
HETATM   26  H   UNL     1     -42.418  60.546 -49.283  1.00  0.00     0.159 HD
HETATM   27  O   UNL     1     -40.437  59.589 -50.439  1.00  0.00    -0.268 OA
ENDBRANCH   6  23
BRANCH   4  28
HETATM   28  N   UNL     1     -41.185  55.162 -52.963  1.00  0.00    -0.323 N 
HETATM   29  C   UNL     1     -40.527  54.424 -53.929  1.00  0.00     0.256 C 
HETATM   30  O   UNL     1     -40.133  54.846 -55.009  1.00  0.00    -0.267 OA
HETATM   31  H   UNL     1     -41.328  54.717 -52.067  1.00  0.00     0.169 HD
BRANCH  29  32
HETATM   32  C   UNL     1     -40.281  52.985 -53.582  1.00  0.00     0.032 A 
HETATM   33  C   UNL     1     -40.293  51.963 -54.541  1.00  0.00     0.019 A 
HETATM   34  C   UNL     1     -40.038  50.638 -54.165  1.00  0.00     0.024 A 
HETATM   35  C   UNL     1     -39.788  50.305 -52.833  1.00  0.00     0.005 A 
HETATM   36  C   UNL     1     -39.692  51.338 -51.896  1.00  0.00     0.024 A 
HETATM   37  C   UNL     1     -39.955  52.664 -52.260  1.00  0.00     0.019 A 
BRANCH  35  38
HETATM   38  N   UNL     1     -39.401  49.006 -52.494  1.00  0.00    -0.303 NA
HETATM   39  H   UNL     1     -39.572  48.761 -51.523  1.00  0.00     0.124 HD
HETATM   40  H   UNL     1     -38.460  48.762 -52.790  1.00  0.00     0.124 HD
ENDBRANCH  35  38
ENDBRANCH  29  32
ENDBRANCH   4  28
TORSDOF 9
ENDMDL
MODEL 5
REMARK VINA RESULT:      -8.4      2.399      5.375
REMARK  9 active torsions:
REMARK  status: ('A' for Active; 'I' for Inactive)
REMARK    1  A    between atoms: C_2  and  O_3 
REMARK    2  A    between atoms: O_3  and  C_4 
REMARK    3  A    between atoms: C_5  and  N_6 
REMARK       I    between atoms: N_6  and  C_7 
REMARK    4  A    between atoms: C_7  and  C_8 
REMARK    5  A    between atoms: C_11  and  N_12 
REMARK    6  A    between atoms: C_17  and  N_18 
REMARK       I    between atoms: N_18  and  C_19 
REMARK    7  A    between atoms: C_19  and  C_20 
REMARK    8  A    between atoms: C_23  and  N_24 
REMARK    9  A    between atoms: C_29  and  C_30 
REMARK       I    between atoms: C_30  and  N_31 
ROOT
HETATM    1  C   UNL     1     -43.023  58.833 -52.890  1.00  0.00     0.111 A 
HETATM    2  C   UNL     1     -42.048  58.642 -53.890  1.00  0.00     0.071 A 
HETATM    3  C   UNL     1     -41.337  57.435 -53.951  1.00  0.00     0.062 A 
HETATM    4  C   UNL     1     -41.614  56.411 -53.036  1.00  0.00     0.038 A 
HETATM    5  C   UNL     1     -42.593  56.612 -52.055  1.00  0.00     0.049 A 
HETATM    6  C   UNL     1     -43.328  57.803 -51.996  1.00  0.00     0.069 A 
ENDROOT
BRANCH   2   7
HETATM    7  N   UNL     1     -41.914  59.679 -54.847  1.00  0.00    -0.320 N 
HETATM    8  C   UNL     1     -42.740  59.929 -55.917  1.00  0.00     0.256 C 
HETATM    9  O   UNL     1     -43.360  60.989 -55.979  1.00  0.00    -0.267 OA
HETATM   10  H   UNL     1     -41.569  60.534 -54.419  1.00  0.00     0.169 HD
BRANCH   8  11
HETATM   11  C   UNL     1     -42.671  59.030 -57.108  1.00  0.00     0.032 A 
HETATM   12  C   UNL     1     -41.976  59.483 -58.237  1.00  0.00     0.019 A 
HETATM   13  C   UNL     1     -41.718  58.620 -59.307  1.00  0.00     0.024 A 
HETATM   14  C   UNL     1     -42.185  57.304 -59.293  1.00  0.00     0.005 A 
HETATM   15  C   UNL     1     -42.851  56.845 -58.152  1.00  0.00     0.024 A 
HETATM   16  C   UNL     1     -43.109  57.702 -57.074  1.00  0.00     0.019 A 
BRANCH  14  17
HETATM   17  N   UNL     1     -41.775  56.401 -60.279  1.00  0.00    -0.303 NA
HETATM   18  H   UNL     1     -40.883  55.958 -60.084  1.00  0.00     0.124 HD
HETATM   19  H   UNL     1     -41.823  56.771 -61.223  1.00  0.00     0.124 HD
ENDBRANCH  14  17
ENDBRANCH   8  11
ENDBRANCH   2   7
BRANCH   1  20
HETATM   20  O   UNL     1     -43.690  60.039 -52.878  1.00  0.00    -0.348 OA
BRANCH  20  21
HETATM   21  C   UNL     1     -42.922  61.066 -52.226  1.00  0.00     0.171 C 
HETATM   22  C   UNL     1     -43.304  62.434 -52.762  1.00  0.00     0.034 C 
ENDBRANCH  20  21
ENDBRANCH   1  20
BRANCH   6  23
HETATM   23  C   UNL     1     -44.434  57.855 -51.005  1.00  0.00     0.252 C 
HETATM   24  N   UNL     1     -44.688  59.054 -50.405  1.00  0.00    -0.366 N 
HETATM   25  H   UNL     1     -44.157  59.891 -50.617  1.00  0.00     0.159 HD
HETATM   26  H   UNL     1     -45.472  59.119 -49.770  1.00  0.00     0.159 HD
HETATM   27  O   UNL     1     -45.126  56.871 -50.771  1.00  0.00    -0.268 OA
ENDBRANCH   6  23
BRANCH   4  28
HETATM   28  N   UNL     1     -41.031  55.124 -53.065  1.00  0.00    -0.323 N 
HETATM   29  C   UNL     1     -41.293  54.092 -53.947  1.00  0.00     0.256 C 
HETATM   30  O   UNL     1     -41.949  54.179 -54.977  1.00  0.00    -0.267 OA
HETATM   31  H   UNL     1     -40.362  54.938 -52.330  1.00  0.00     0.169 HD
BRANCH  29  32
HETATM   32  C   UNL     1     -40.695  52.766 -53.579  1.00  0.00     0.032 A 
HETATM   33  C   UNL     1     -40.156  52.505 -52.312  1.00  0.00     0.019 A 
HETATM   34  C   UNL     1     -39.627  51.242 -52.016  1.00  0.00     0.024 A 
HETATM   35  C   UNL     1     -39.608  50.229 -52.975  1.00  0.00     0.005 A 
HETATM   36  C   UNL     1     -40.224  50.466 -54.206  1.00  0.00     0.024 A 
HETATM   37  C   UNL     1     -40.746  51.728 -54.515  1.00  0.00     0.019 A 
BRANCH  35  38
HETATM   38  N   UNL     1     -39.205  48.937 -52.624  1.00  0.00    -0.303 NA
HETATM   39  H   UNL     1     -38.240  48.723 -52.861  1.00  0.00     0.124 HD
HETATM   40  H   UNL     1     -39.844  48.207 -52.925  1.00  0.00     0.124 HD
ENDBRANCH  35  38
ENDBRANCH  29  32
ENDBRANCH   4  28
TORSDOF 9
ENDMDL
MODEL 6
REMARK VINA RESULT:      -8.1      2.617      6.999
REMARK  9 active torsions:
REMARK  status: ('A' for Active; 'I' for Inactive)
REMARK    1  A    between atoms: C_2  and  O_3 
REMARK    2  A    between atoms: O_3  and  C_4 
REMARK    3  A    between atoms: C_5  and  N_6 
REMARK       I    between atoms: N_6  and  C_7 
REMARK    4  A    between atoms: C_7  and  C_8 
REMARK    5  A    between atoms: C_11  and  N_12 
REMARK    6  A    between atoms: C_17  and  N_18 
REMARK       I    between atoms: N_18  and  C_19 
REMARK    7  A    between atoms: C_19  and  C_20 
REMARK    8  A    between atoms: C_23  and  N_24 
REMARK    9  A    between atoms: C_29  and  C_30 
REMARK       I    between atoms: C_30  and  N_31 
ROOT
HETATM    1  C   UNL     1     -41.604  53.738 -52.637  1.00  0.00     0.111 A 
HETATM    2  C   UNL     1     -42.487  54.832 -52.737  1.00  0.00     0.071 A 
HETATM    3  C   UNL     1     -42.999  55.205 -53.988  1.00  0.00     0.062 A 
HETATM    4  C   UNL     1     -42.655  54.476 -55.133  1.00  0.00     0.038 A 
HETATM    5  C   UNL     1     -41.784  53.383 -55.016  1.00  0.00     0.049 A 
HETATM    6  C   UNL     1     -41.284  52.985 -53.770  1.00  0.00     0.069 A 
ENDROOT
BRANCH   2   7
HETATM    7  N   UNL     1     -42.878  55.441 -51.518  1.00  0.00    -0.320 N 
HETATM    8  C   UNL     1     -43.846  56.402 -51.346  1.00  0.00     0.256 C 
HETATM    9  O   UNL     1     -44.837  56.159 -50.661  1.00  0.00    -0.267 OA
HETATM   10  H   UNL     1     -42.856  54.774 -50.750  1.00  0.00     0.169 HD
BRANCH   8  11
HETATM   11  C   UNL     1     -43.555  57.804 -51.773  1.00  0.00     0.032 A 
HETATM   12  C   UNL     1     -42.285  58.327 -51.501  1.00  0.00     0.019 A 
HETATM   13  C   UNL     1     -41.892  59.558 -52.037  1.00  0.00     0.024 A 
HETATM   14  C   UNL     1     -42.773  60.310 -52.818  1.00  0.00     0.005 A 
HETATM   15  C   UNL     1     -44.028  59.772 -53.115  1.00  0.00     0.024 A 
HETATM   16  C   UNL     1     -44.427  58.538 -52.585  1.00  0.00     0.019 A 
BRANCH  14  17
HETATM   17  N   UNL     1     -42.317  61.447 -53.493  1.00  0.00    -0.303 NA
HETATM   18  H   UNL     1     -41.378  61.731 -53.232  1.00  0.00     0.124 HD
HETATM   19  H   UNL     1     -42.971  62.224 -53.482  1.00  0.00     0.124 HD
ENDBRANCH  14  17
ENDBRANCH   8  11
ENDBRANCH   2   7
BRANCH   1  20
HETATM   20  O   UNL     1     -41.133  53.417 -51.383  1.00  0.00    -0.348 OA
BRANCH  20  21
HETATM   21  C   UNL     1     -40.034  54.261 -50.994  1.00  0.00     0.171 C 
HETATM   22  C   UNL     1     -39.964  54.376 -49.482  1.00  0.00     0.034 C 
ENDBRANCH  20  21
ENDBRANCH   1  20
BRANCH   6  23
HETATM   23  C   UNL     1     -40.483  51.733 -53.744  1.00  0.00     0.252 C 
HETATM   24  N   UNL     1     -39.384  51.704 -52.934  1.00  0.00    -0.366 N 
HETATM   25  H   UNL     1     -39.111  52.493 -52.361  1.00  0.00     0.159 HD
HETATM   26  H   UNL     1     -38.861  50.842 -52.863  1.00  0.00     0.159 HD
HETATM   27  O   UNL     1     -40.822  50.746 -54.386  1.00  0.00    -0.268 OA
ENDBRANCH   6  23
BRANCH   4  28
HETATM   28  N   UNL     1     -43.185  54.701 -56.423  1.00  0.00    -0.323 N 
HETATM   29  C   UNL     1     -43.055  55.830 -57.209  1.00  0.00     0.256 C 
HETATM   30  O   UNL     1     -42.296  56.768 -56.998  1.00  0.00    -0.267 OA
HETATM   31  H   UNL     1     -43.750  53.949 -56.793  1.00  0.00     0.169 HD
BRANCH  29  32
HETATM   32  C   UNL     1     -43.930  55.868 -58.427  1.00  0.00     0.032 A 
HETATM   33  C   UNL     1     -44.079  54.770 -59.286  1.00  0.00     0.019 A 
HETATM   34  C   UNL     1     -44.924  54.854 -60.400  1.00  0.00     0.024 A 
HETATM   35  C   UNL     1     -45.618  56.030 -60.689  1.00  0.00     0.005 A 
HETATM   36  C   UNL     1     -45.533  57.091 -59.783  1.00  0.00     0.024 A 
HETATM   37  C   UNL     1     -44.684  57.021 -58.673  1.00  0.00     0.019 A 
BRANCH  35  38
HETATM   38  N   UNL     1     -46.561  56.055 -61.720  1.00  0.00    -0.303 NA
HETATM   39  H   UNL     1     -46.607  55.198 -62.262  1.00  0.00     0.124 HD
HETATM   40  H   UNL     1     -46.508  56.880 -62.310  1.00  0.00     0.124 HD
ENDBRANCH  35  38
ENDBRANCH  29  32
ENDBRANCH   4  28
TORSDOF 9
ENDMDL
MODEL 7
REMARK VINA RESULT:      -8.1      2.553      7.241
REMARK  9 active torsions:
REMARK  status: ('A' for Active; 'I' for Inactive)
REMARK    1  A    between atoms: C_2  and  O_3 
REMARK    2  A    between atoms: O_3  and  C_4 
REMARK    3  A    between atoms: C_5  and  N_6 
REMARK       I    between atoms: N_6  and  C_7 
REMARK    4  A    between atoms: C_7  and  C_8 
REMARK    5  A    between atoms: C_11  and  N_12 
REMARK    6  A    between atoms: C_17  and  N_18 
REMARK       I    between atoms: N_18  and  C_19 
REMARK    7  A    between atoms: C_19  and  C_20 
REMARK    8  A    between atoms: C_23  and  N_24 
REMARK    9  A    between atoms: C_29  and  C_30 
REMARK       I    between atoms: C_30  and  N_31 
ROOT
HETATM    1  C   UNL     1     -39.968  52.623 -52.538  1.00  0.00     0.111 A 
HETATM    2  C   UNL     1     -40.395  53.946 -52.305  1.00  0.00     0.071 A 
HETATM    3  C   UNL     1     -40.904  54.713 -53.362  1.00  0.00     0.062 A 
HETATM    4  C   UNL     1     -41.011  54.158 -54.644  1.00  0.00     0.038 A 
HETATM    5  C   UNL     1     -40.592  52.838 -54.858  1.00  0.00     0.049 A 
HETATM    6  C   UNL     1     -40.104  52.051 -53.807  1.00  0.00     0.069 A 
ENDROOT
BRANCH   2   7
HETATM    7  N   UNL     1     -40.365  54.390 -50.959  1.00  0.00    -0.320 N 
HETATM    8  C   UNL     1     -41.425  54.850 -50.216  1.00  0.00     0.256 C 
HETATM    9  O   UNL     1     -41.778  54.241 -49.208  1.00  0.00    -0.267 OA
HETATM   10  H   UNL     1     -39.715  53.839 -50.404  1.00  0.00     0.169 HD
BRANCH   8  11
HETATM   11  C   UNL     1     -41.962  56.217 -50.492  1.00  0.00     0.032 A 
HETATM   12  C   UNL     1     -41.072  57.297 -50.448  1.00  0.00     0.019 A 
HETATM   13  C   UNL     1     -41.472  58.567 -50.878  1.00  0.00     0.024 A 
HETATM   14  C   UNL     1     -42.778  58.793 -51.317  1.00  0.00     0.005 A 
HETATM   15  C   UNL     1     -43.655  57.707 -51.391  1.00  0.00     0.024 A 
HETATM   16  C   UNL     1     -43.261  56.432 -50.966  1.00  0.00     0.019 A 
BRANCH  14  17
HETATM   17  N   UNL     1     -43.120  60.014 -51.909  1.00  0.00    -0.303 NA
HETATM   18  H   UNL     1     -42.688  60.819 -51.465  1.00  0.00     0.124 HD
HETATM   19  H   UNL     1     -44.117  60.140 -52.050  1.00  0.00     0.124 HD
ENDBRANCH  14  17
ENDBRANCH   8  11
ENDBRANCH   2   7
BRANCH   1  20
HETATM   20  O   UNL     1     -39.478  51.916 -51.462  1.00  0.00    -0.348 OA
BRANCH  20  21
HETATM   21  C   UNL     1     -40.487  51.078 -50.870  1.00  0.00     0.171 C 
HETATM   22  C   UNL     1     -39.919  49.707 -50.554  1.00  0.00     0.034 C 
ENDBRANCH  20  21
ENDBRANCH   1  20
BRANCH   6  23
HETATM   23  C   UNL     1     -39.820  50.627 -54.118  1.00  0.00     0.252 C 
HETATM   24  N   UNL     1     -40.850  49.866 -54.592  1.00  0.00    -0.366 N 
HETATM   25  H   UNL     1     -41.779  50.242 -54.740  1.00  0.00     0.159 HD
HETATM   26  H   UNL     1     -40.658  48.910 -54.860  1.00  0.00     0.159 HD
HETATM   27  O   UNL     1     -38.692  50.162 -54.000  1.00  0.00    -0.268 OA
ENDBRANCH   6  23
BRANCH   4  28
HETATM   28  N   UNL     1     -41.595  54.804 -55.756  1.00  0.00    -0.323 N 
HETATM   29  C   UNL     1     -42.516  55.834 -55.753  1.00  0.00     0.256 C 
HETATM   30  O   UNL     1     -42.849  56.495 -54.777  1.00  0.00    -0.267 OA
HETATM   31  H   UNL     1     -41.320  54.440 -56.658  1.00  0.00     0.169 HD
BRANCH  29  32
HETATM   32  C   UNL     1     -43.134  56.148 -57.084  1.00  0.00     0.032 A 
HETATM   33  C   UNL     1     -43.100  55.254 -58.163  1.00  0.00     0.019 A 
HETATM   34  C   UNL     1     -43.709  55.590 -59.379  1.00  0.00     0.024 A 
HETATM   35  C   UNL     1     -44.342  56.822 -59.548  1.00  0.00     0.005 A 
HETATM   36  C   UNL     1     -44.448  57.673 -58.445  1.00  0.00     0.024 A 
HETATM   37  C   UNL     1     -43.834  57.350 -57.229  1.00  0.00     0.019 A 
BRANCH  35  38
HETATM   38  N   UNL     1     -45.062  57.087 -60.716  1.00  0.00    -0.303 NA
HETATM   39  H   UNL     1     -44.549  57.625 -61.408  1.00  0.00     0.124 HD
HETATM   40  H   UNL     1     -45.993  57.460 -60.554  1.00  0.00     0.124 HD
ENDBRANCH  35  38
ENDBRANCH  29  32
ENDBRANCH   4  28
TORSDOF 9
ENDMDL
MODEL 8
REMARK VINA RESULT:      -7.6      1.699      2.060
REMARK  9 active torsions:
REMARK  status: ('A' for Active; 'I' for Inactive)
REMARK    1  A    between atoms: C_2  and  O_3 
REMARK    2  A    between atoms: O_3  and  C_4 
REMARK    3  A    between atoms: C_5  and  N_6 
REMARK       I    between atoms: N_6  and  C_7 
REMARK    4  A    between atoms: C_7  and  C_8 
REMARK    5  A    between atoms: C_11  and  N_12 
REMARK    6  A    between atoms: C_17  and  N_18 
REMARK       I    between atoms: N_18  and  C_19 
REMARK    7  A    between atoms: C_19  and  C_20 
REMARK    8  A    between atoms: C_23  and  N_24 
REMARK    9  A    between atoms: C_29  and  C_30 
REMARK       I    between atoms: C_30  and  N_31 
ROOT
HETATM    1  C   UNL     1     -43.720  57.918 -57.916  1.00  0.00     0.111 A 
HETATM    2  C   UNL     1     -43.917  58.157 -56.541  1.00  0.00     0.071 A 
HETATM    3  C   UNL     1     -43.500  57.207 -55.598  1.00  0.00     0.062 A 
HETATM    4  C   UNL     1     -42.865  56.032 -56.021  1.00  0.00     0.038 A 
HETATM    5  C   UNL     1     -42.666  55.813 -57.391  1.00  0.00     0.049 A 
HETATM    6  C   UNL     1     -43.056  56.763 -58.342  1.00  0.00     0.069 A 
ENDROOT
BRANCH   2   7
HETATM    7  N   UNL     1     -44.457  59.421 -56.192  1.00  0.00    -0.320 N 
HETATM    8  C   UNL     1     -43.851  60.402 -55.445  1.00  0.00     0.256 C 
HETATM    9  O   UNL     1     -43.608  61.496 -55.950  1.00  0.00    -0.267 OA
HETATM   10  H   UNL     1     -45.017  59.804 -56.950  1.00  0.00     0.169 HD
BRANCH   8  11
HETATM   11  C   UNL     1     -43.736  60.217 -53.967  1.00  0.00     0.032 A 
HETATM   12  C   UNL     1     -42.457  60.226 -53.398  1.00  0.00     0.019 A 
HETATM   13  C   UNL     1     -42.295  60.245 -52.008  1.00  0.00     0.024 A 
HETATM   14  C   UNL     1     -43.404  60.212 -51.160  1.00  0.00     0.005 A 
HETATM   15  C   UNL     1     -44.681  60.236 -51.730  1.00  0.00     0.024 A 
HETATM   16  C   UNL     1     -44.850  60.221 -53.120  1.00  0.00     0.019 A 
BRANCH  14  17
HETATM   17  N   UNL     1     -43.243  60.409 -49.785  1.00  0.00    -0.303 NA
HETATM   18  H   UNL     1     -44.117  60.535 -49.284  1.00  0.00     0.124 HD
HETATM   19  H   UNL     1     -42.557  61.118 -49.546  1.00  0.00     0.124 HD
ENDBRANCH  14  17
ENDBRANCH   8  11
ENDBRANCH   2   7
BRANCH   1  20
HETATM   20  O   UNL     1     -44.150  58.887 -58.796  1.00  0.00    -0.348 OA
BRANCH  20  21
HETATM   21  C   UNL     1     -43.102  59.821 -59.114  1.00  0.00     0.171 C 
HETATM   22  C   UNL     1     -43.686  61.191 -59.408  1.00  0.00     0.034 C 
ENDBRANCH  20  21
ENDBRANCH   1  20
BRANCH   6  23
HETATM   23  C   UNL     1     -42.673  56.491 -59.752  1.00  0.00     0.252 C 
HETATM   24  N   UNL     1     -41.377  56.727 -60.111  1.00  0.00    -0.366 N 
HETATM   25  H   UNL     1     -40.685  57.068 -59.454  1.00  0.00     0.159 HD
HETATM   26  H   UNL     1     -41.088  56.494 -61.051  1.00  0.00     0.159 HD
HETATM   27  O   UNL     1     -43.476  56.026 -60.552  1.00  0.00    -0.268 OA
ENDBRANCH   6  23
BRANCH   4  28
HETATM   28  N   UNL     1     -42.319  55.056 -55.158  1.00  0.00    -0.323 N 
HETATM   29  C   UNL     1     -41.185  55.154 -54.373  1.00  0.00     0.256 C 
HETATM   30  O   UNL     1     -40.556  56.180 -54.148  1.00  0.00    -0.267 OA
HETATM   31  H   UNL     1     -42.809  54.172 -55.144  1.00  0.00     0.169 HD
BRANCH  29  32
HETATM   32  C   UNL     1     -40.722  53.870 -53.751  1.00  0.00     0.032 A 
HETATM   33  C   UNL     1     -40.370  52.745 -54.510  1.00  0.00     0.019 A 
HETATM   34  C   UNL     1     -39.926  51.577 -53.878  1.00  0.00     0.024 A 
HETATM   35  C   UNL     1     -39.842  51.500 -52.487  1.00  0.00     0.005 A 
HETATM   36  C   UNL     1     -40.110  52.651 -51.740  1.00  0.00     0.024 A 
HETATM   37  C   UNL     1     -40.565  53.820 -52.362  1.00  0.00     0.019 A 
BRANCH  35  38
HETATM   38  N   UNL     1     -39.268  50.381 -51.877  1.00  0.00    -0.303 NA
HETATM   39  H   UNL     1     -38.548  49.928 -52.433  1.00  0.00     0.124 HD
HETATM   40  H   UNL     1     -39.943  49.717 -51.510  1.00  0.00     0.124 HD
ENDBRANCH  35  38
ENDBRANCH  29  32
ENDBRANCH   4  28
TORSDOF 9
ENDMDL
MODEL 9
REMARK VINA RESULT:      -7.6     15.539     18.716
REMARK  9 active torsions:
REMARK  status: ('A' for Active; 'I' for Inactive)
REMARK    1  A    between atoms: C_2  and  O_3 
REMARK    2  A    between atoms: O_3  and  C_4 
REMARK    3  A    between atoms: C_5  and  N_6 
REMARK       I    between atoms: N_6  and  C_7 
REMARK    4  A    between atoms: C_7  and  C_8 
REMARK    5  A    between atoms: C_11  and  N_12 
REMARK    6  A    between atoms: C_17  and  N_18 
REMARK       I    between atoms: N_18  and  C_19 
REMARK    7  A    between atoms: C_19  and  C_20 
REMARK    8  A    between atoms: C_23  and  N_24 
REMARK    9  A    between atoms: C_29  and  C_30 
REMARK       I    between atoms: C_30  and  N_31 
ROOT
HETATM    1  C   UNL     1     -35.733  41.617 -53.606  1.00  0.00     0.111 A 
HETATM    2  C   UNL     1     -35.805  41.663 -55.013  1.00  0.00     0.071 A 
HETATM    3  C   UNL     1     -34.738  41.182 -55.785  1.00  0.00     0.062 A 
HETATM    4  C   UNL     1     -33.612  40.633 -55.159  1.00  0.00     0.038 A 
HETATM    5  C   UNL     1     -33.558  40.584 -53.760  1.00  0.00     0.049 A 
HETATM    6  C   UNL     1     -34.626  41.039 -52.976  1.00  0.00     0.069 A 
ENDROOT
BRANCH   2   7
HETATM    7  N   UNL     1     -37.027  42.122 -55.566  1.00  0.00    -0.320 N 
HETATM    8  C   UNL     1     -37.961  41.376 -56.244  1.00  0.00     0.256 C 
HETATM    9  O   UNL     1     -39.095  41.250 -55.788  1.00  0.00    -0.267 OA
HETATM   10  H   UNL     1     -37.456  42.831 -54.976  1.00  0.00     0.169 HD
BRANCH   8  11
HETATM   11  C   UNL     1     -37.666  40.950 -57.646  1.00  0.00     0.032 A 
HETATM   12  C   UNL     1     -37.998  39.643 -58.022  1.00  0.00     0.019 A 
HETATM   13  C   UNL     1     -37.920  39.246 -59.361  1.00  0.00     0.024 A 
HETATM   14  C   UNL     1     -37.468  40.130 -60.343  1.00  0.00     0.005 A 
HETATM   15  C   UNL     1     -37.169  41.444 -59.971  1.00  0.00     0.024 A 
HETATM   16  C   UNL     1     -37.248  41.850 -58.632  1.00  0.00     0.019 A 
BRANCH  14  17
HETATM   17  N   UNL     1     -37.561  39.786 -61.696  1.00  0.00    -0.303 NA
HETATM   18  H   UNL     1     -37.949  40.519 -62.280  1.00  0.00     0.124 HD
HETATM   19  H   UNL     1     -37.999  38.886 -61.864  1.00  0.00     0.124 HD
ENDBRANCH  14  17
ENDBRANCH   8  11
ENDBRANCH   2   7
BRANCH   1  20
HETATM   20  O   UNL     1     -36.811  42.103 -52.899  1.00  0.00    -0.348 OA
BRANCH  20  21
HETATM   21  C   UNL     1     -37.637  41.041 -52.390  1.00  0.00     0.171 C 
HETATM   22  C   UNL     1     -39.105  41.411 -52.504  1.00  0.00     0.034 C 
ENDBRANCH  20  21
ENDBRANCH   1  20
BRANCH   6  23
HETATM   23  C   UNL     1     -34.521  40.812 -51.511  1.00  0.00     0.252 C 
HETATM   24  N   UNL     1     -34.495  41.912 -50.703  1.00  0.00    -0.366 N 
HETATM   25  H   UNL     1     -34.550  42.855 -51.068  1.00  0.00     0.159 HD
HETATM   26  H   UNL     1     -34.480  41.773 -49.702  1.00  0.00     0.159 HD
HETATM   27  O   UNL     1     -34.508  39.681 -51.041  1.00  0.00    -0.268 OA
ENDBRANCH   6  23
BRANCH   4  28
HETATM   28  N   UNL     1     -32.526  40.033 -55.835  1.00  0.00    -0.323 N 
HETATM   29  C   UNL     1     -32.436  38.741 -56.319  1.00  0.00     0.256 C 
HETATM   30  O   UNL     1     -33.360  37.943 -56.408  1.00  0.00    -0.267 OA
HETATM   31  H   UNL     1     -31.712  40.621 -55.948  1.00  0.00     0.169 HD
BRANCH  29  32
HETATM   32  C   UNL     1     -31.070  38.321 -56.775  1.00  0.00     0.032 A 
HETATM   33  C   UNL     1     -30.846  37.684 -58.004  1.00  0.00     0.019 A 
HETATM   34  C   UNL     1     -29.546  37.330 -58.390  1.00  0.00     0.024 A 
HETATM   35  C   UNL     1     -28.456  37.583 -57.557  1.00  0.00     0.005 A 
HETATM   36  C   UNL     1     -28.673  38.295 -56.374  1.00  0.00     0.024 A 
HETATM   37  C   UNL     1     -29.969  38.644 -55.975  1.00  0.00     0.019 A 
BRANCH  35  38
HETATM   38  N   UNL     1     -27.155  37.351 -58.012  1.00  0.00    -0.303 NA
HETATM   39  H   UNL     1     -26.618  36.715 -57.430  1.00  0.00     0.124 HD
HETATM   40  H   UNL     1     -26.637  38.195 -58.237  1.00  0.00     0.124 HD
ENDBRANCH  35  38
ENDBRANCH  29  32
ENDBRANCH   4  28
TORSDOF 9
ENDMDL
MODEL 10
REMARK VINA RESULT:      -7.0      2.487      4.307
REMARK  9 active torsions:
REMARK  status: ('A' for Active; 'I' for Inactive)
REMARK    1  A    between atoms: C_2  and  O_3 
REMARK    2  A    between atoms: O_3  and  C_4 
REMARK    3  A    between atoms: C_5  and  N_6 
REMARK       I    between atoms: N_6  and  C_7 
REMARK    4  A    between atoms: C_7  and  C_8 
REMARK    5  A    between atoms: C_11  and  N_12 
REMARK    6  A    between atoms: C_17  and  N_18 
REMARK       I    between atoms: N_18  and  C_19 
REMARK    7  A    between atoms: C_19  and  C_20 
REMARK    8  A    between atoms: C_23  and  N_24 
REMARK    9  A    between atoms: C_29  and  C_30 
REMARK       I    between atoms: C_30  and  N_31 
ROOT
HETATM    1  C   UNL     1     -43.538  57.338 -57.661  1.00  0.00     0.111 A 
HETATM    2  C   UNL     1     -43.447  57.614 -56.282  1.00  0.00     0.071 A 
HETATM    3  C   UNL     1     -43.010  56.619 -55.396  1.00  0.00     0.062 A 
HETATM    4  C   UNL     1     -42.638  55.360 -55.885  1.00  0.00     0.038 A 
HETATM    5  C   UNL     1     -42.724  55.104 -57.260  1.00  0.00     0.049 A 
HETATM    6  C   UNL     1     -43.137  56.094 -58.159  1.00  0.00     0.069 A 
ENDROOT
BRANCH   2   7
HETATM    7  N   UNL     1     -43.727  58.947 -55.886  1.00  0.00    -0.320 N 
HETATM    8  C   UNL     1     -44.950  59.466 -55.534  1.00  0.00     0.256 C 
HETATM    9  O   UNL     1     -45.129  59.898 -54.398  1.00  0.00    -0.267 OA
HETATM   10  H   UNL     1     -42.969  59.332 -55.327  1.00  0.00     0.169 HD
BRANCH   8  11
HETATM   11  C   UNL     1     -45.954  59.738 -56.606  1.00  0.00     0.032 A 
HETATM   12  C   UNL     1     -45.893  60.969 -57.272  1.00  0.00     0.019 A 
HETATM   13  C   UNL     1     -46.681  61.207 -58.403  1.00  0.00     0.024 A 
HETATM   14  C   UNL     1     -47.575  60.240 -58.866  1.00  0.00     0.005 A 
HETATM   15  C   UNL     1     -47.612  59.000 -58.220  1.00  0.00     0.024 A 
HETATM   16  C   UNL     1     -46.823  58.754 -57.089  1.00  0.00     0.019 A 
BRANCH  14  17
HETATM   17  N   UNL     1     -48.226  60.413 -60.092  1.00  0.00    -0.303 NA
HETATM   18  H   UNL     1     -48.656  59.567 -60.452  1.00  0.00     0.124 HD
HETATM   19  H   UNL     1     -47.666  60.889 -60.793  1.00  0.00     0.124 HD
ENDBRANCH  14  17
ENDBRANCH   8  11
ENDBRANCH   2   7
BRANCH   1  20
HETATM   20  O   UNL     1     -43.975  58.354 -58.484  1.00  0.00    -0.348 OA
BRANCH  20  21
HETATM   21  C   UNL     1     -42.890  59.199 -58.908  1.00  0.00     0.171 C 
HETATM   22  C   UNL     1     -43.174  59.774 -60.283  1.00  0.00     0.034 C 
ENDBRANCH  20  21
ENDBRANCH   1  20
BRANCH   6  23
HETATM   23  C   UNL     1     -43.058  55.758 -59.604  1.00  0.00     0.252 C 
HETATM   24  N   UNL     1     -44.079  55.026 -60.138  1.00  0.00    -0.366 N 
HETATM   25  H   UNL     1     -44.872  54.719 -59.588  1.00  0.00     0.159 HD
HETATM   26  H   UNL     1     -44.067  54.836 -61.131  1.00  0.00     0.159 HD
HETATM   27  O   UNL     1     -42.137  56.163 -60.303  1.00  0.00    -0.268 OA
ENDBRANCH   6  23
BRANCH   4  28
HETATM   28  N   UNL     1     -42.093  54.320 -55.100  1.00  0.00    -0.323 N 
HETATM   29  C   UNL     1     -40.893  54.312 -54.414  1.00  0.00     0.256 C 
HETATM   30  O   UNL     1     -40.175  55.283 -54.216  1.00  0.00    -0.267 OA
HETATM   31  H   UNL     1     -42.644  53.472 -55.066  1.00  0.00     0.169 HD
BRANCH  29  32
HETATM   32  C   UNL     1     -40.473  52.979 -53.869  1.00  0.00     0.032 A 
HETATM   33  C   UNL     1     -40.138  52.784 -52.522  1.00  0.00     0.019 A 
HETATM   34  C   UNL     1     -39.771  51.513 -52.062  1.00  0.00     0.024 A 
HETATM   35  C   UNL     1     -39.712  50.423 -52.932  1.00  0.00     0.005 A 
HETATM   36  C   UNL     1     -40.130  50.604 -54.253  1.00  0.00     0.024 A 
HETATM   37  C   UNL     1     -40.489  51.872 -54.725  1.00  0.00     0.019 A 
BRANCH  35  38
HETATM   38  N   UNL     1     -39.479  49.138 -52.435  1.00  0.00    -0.303 NA
HETATM   39  H   UNL     1     -38.577  49.024 -51.982  1.00  0.00     0.124 HD
HETATM   40  H   UNL     1     -39.672  48.395 -53.100  1.00  0.00     0.124 HD
ENDBRANCH  35  38
ENDBRANCH  29  32
ENDBRANCH   4  28
TORSDOF 9
ENDMDL
