MODEL 1
REMARK VINA RESULT:      -7.0      0.000      0.000
REMARK  5 active torsions:
REMARK  status: ('A' for Active; 'I' for Inactive)
REMARK    1  A    between atoms: C_7  and  O_8 
REMARK    2  A    between atoms: O_8  and  C_9 
REMARK    3  A    between atoms: C_12  and  N_13 
REMARK    4  A    between atoms: N_13  and  C_16 
REMARK    5  A    between atoms: C_16  and  C_17 
ROOT
HETATM    1  C   UNL     1     -39.723  51.296 -51.736  1.00  0.00     0.028 A 
HETATM    2  C   UNL     1     -39.932  51.451 -53.103  1.00  0.00     0.062 A 
HETATM    3  C   UNL     1     -39.795  50.357 -54.010  1.00  0.00     0.101 C 
HETATM    4  N   UNL     1     -39.689  49.483 -54.764  1.00  0.00    -0.191 NA
HETATM    5  C   UNL     1     -40.282  52.713 -53.571  1.00  0.00     0.142 A 
HETATM    6  N   UNL     1     -40.436  53.811 -52.785  1.00  0.00    -0.236 NA
HETATM    7  C   UNL     1     -40.219  53.623 -51.462  1.00  0.00     0.164 A 
HETATM    8  C   UNL     1     -39.869  52.401 -50.901  1.00  0.00     0.059 A 
ENDROOT
BRANCH   7   9
HETATM    9  O   UNL     1     -40.339  54.663 -50.573  1.00  0.00    -0.329 OA
BRANCH   9  10
HETATM   10  C   UNL     1     -41.531  55.446 -50.544  1.00  0.00     0.130 C 
HETATM   11  C   UNL     1     -42.817  54.613 -50.629  1.00  0.00     0.034 C 
HETATM   12  C   UNL     1     -44.060  55.492 -50.495  1.00  0.00     0.035 C 
HETATM   13  C   UNL     1     -44.064  56.681 -51.459  1.00  0.00     0.186 C 
HETATM   14  C   UNL     1     -42.772  57.500 -51.349  1.00  0.00     0.035 C 
HETATM   15  C   UNL     1     -41.509  56.653 -51.493  1.00  0.00     0.034 C 
BRANCH  13  16
HETATM   16  N   UNL     1     -44.222  56.211 -52.866  1.00  0.00    -0.066 N 
HETATM   17  H   UNL     1     -43.347  55.768 -53.202  1.00  0.00     0.278 HD
HETATM   18  H   UNL     1     -44.914  55.455 -52.964  1.00  0.00     0.278 HD
BRANCH  16  19
HETATM   19  C   UNL     1     -44.506  57.263 -53.899  1.00  0.00     0.292 C 
BRANCH  19  20
HETATM   20  C   UNL     1     -43.883  56.864 -55.198  1.00  0.00     0.067 A 
HETATM   21  N   UNL     1     -43.203  55.646 -55.230  1.00  0.00    -0.256 NA
HETATM   22  C   UNL     1     -42.701  55.460 -56.437  1.00  0.00     0.166 A 
HETATM   23  S   UNL     1     -42.999  56.706 -57.576  1.00  0.00    -0.092 SA
HETATM   24  C   UNL     1     -43.870  57.576 -56.381  1.00  0.00     0.080 A 
ENDBRANCH  19  20
ENDBRANCH  16  19
ENDBRANCH  13  16
ENDBRANCH   9  10
ENDBRANCH   7   9
TORSDOF 5
ENDMDL
MODEL 2
REMARK VINA RESULT:      -6.8      3.384      4.582
REMARK  5 active torsions:
REMARK  status: ('A' for Active; 'I' for Inactive)
REMARK    1  A    between atoms: C_7  and  O_8 
REMARK    2  A    between atoms: O_8  and  C_9 
REMARK    3  A    between atoms: C_12  and  N_13 
REMARK    4  A    between atoms: N_13  and  C_16 
REMARK    5  A    between atoms: C_16  and  C_17 
ROOT
HETATM    1  C   UNL     1     -40.607  52.709 -54.054  1.00  0.00     0.028 A 
HETATM    2  C   UNL     1     -40.030  51.630 -53.390  1.00  0.00     0.062 A 
HETATM    3  C   UNL     1     -39.704  50.419 -54.072  1.00  0.00     0.101 C 
HETATM    4  N   UNL     1     -39.431  49.426 -54.605  1.00  0.00    -0.191 NA
HETATM    5  C   UNL     1     -39.774  51.762 -52.029  1.00  0.00     0.142 A 
HETATM    6  N   UNL     1     -40.050  52.875 -51.298  1.00  0.00    -0.236 NA
HETATM    7  C   UNL     1     -40.615  53.900 -51.976  1.00  0.00     0.164 A 
HETATM    8  C   UNL     1     -40.904  53.863 -53.335  1.00  0.00     0.059 A 
ENDROOT
BRANCH   7   9
HETATM    9  O   UNL     1     -40.943  55.072 -51.339  1.00  0.00    -0.329 OA
BRANCH   9  10
HETATM   10  C   UNL     1     -41.721  56.059 -52.012  1.00  0.00     0.130 C 
HETATM   11  C   UNL     1     -41.171  57.484 -51.864  1.00  0.00     0.034 C 
HETATM   12  C   UNL     1     -41.986  58.484 -52.683  1.00  0.00     0.035 C 
HETATM   13  C   UNL     1     -43.491  58.403 -52.409  1.00  0.00     0.186 C 
HETATM   14  C   UNL     1     -44.016  56.972 -52.571  1.00  0.00     0.035 C 
HETATM   15  C   UNL     1     -43.231  55.947 -51.753  1.00  0.00     0.034 C 
BRANCH  13  16
HETATM   16  N   UNL     1     -43.796  58.880 -51.030  1.00  0.00    -0.066 N 
HETATM   17  H   UNL     1     -43.360  58.257 -50.325  1.00  0.00     0.278 HD
HETATM   18  H   UNL     1     -43.376  59.795 -50.816  1.00  0.00     0.278 HD
BRANCH  16  19
HETATM   19  C   UNL     1     -45.243  58.907 -50.632  1.00  0.00     0.292 C 
BRANCH  19  20
HETATM   20  C   UNL     1     -45.640  60.308 -50.297  1.00  0.00     0.067 A 
HETATM   21  N   UNL     1     -45.801  60.620 -48.946  1.00  0.00    -0.256 NA
HETATM   22  C   UNL     1     -46.168  61.882 -48.832  1.00  0.00     0.166 A 
HETATM   23  S   UNL     1     -46.348  62.750 -50.299  1.00  0.00    -0.092 SA
HETATM   24  C   UNL     1     -45.901  61.343 -51.173  1.00  0.00     0.080 A 
ENDBRANCH  19  20
ENDBRANCH  16  19
ENDBRANCH  13  16
ENDBRANCH   9  10
ENDBRANCH   7   9
TORSDOF 5
ENDMDL
MODEL 3
REMARK VINA RESULT:      -6.8      2.315      3.221
REMARK  5 active torsions:
REMARK  status: ('A' for Active; 'I' for Inactive)
REMARK    1  A    between atoms: C_7  and  O_8 
REMARK    2  A    between atoms: O_8  and  C_9 
REMARK    3  A    between atoms: C_12  and  N_13 
REMARK    4  A    between atoms: N_13  and  C_16 
REMARK    5  A    between atoms: C_16  and  C_17 
ROOT
HETATM    1  C   UNL     1     -40.215  52.872 -54.604  1.00  0.00     0.028 A 
HETATM    2  C   UNL     1     -40.061  51.889 -53.630  1.00  0.00     0.062 A 
HETATM    3  C   UNL     1     -39.731  50.543 -53.971  1.00  0.00     0.101 C 
HETATM    4  N   UNL     1     -39.463  49.444 -54.224  1.00  0.00    -0.191 NA
HETATM    5  C   UNL     1     -40.238  52.255 -52.300  1.00  0.00     0.142 A 
HETATM    6  N   UNL     1     -40.552  53.510 -51.881  1.00  0.00    -0.236 NA
HETATM    7  C   UNL     1     -40.699  54.436 -52.857  1.00  0.00     0.164 A 
HETATM    8  C   UNL     1     -40.539  54.167 -54.211  1.00  0.00     0.059 A 
ENDROOT
BRANCH   7   9
HETATM    9  O   UNL     1     -41.022  55.736 -52.552  1.00  0.00    -0.329 OA
BRANCH   9  10
HETATM   10  C   UNL     1     -42.065  56.400 -53.264  1.00  0.00     0.130 C 
HETATM   11  C   UNL     1     -43.250  55.489 -53.613  1.00  0.00     0.034 C 
HETATM   12  C   UNL     1     -44.376  56.273 -54.285  1.00  0.00     0.035 C 
HETATM   13  C   UNL     1     -43.901  57.103 -55.481  1.00  0.00     0.186 C 
HETATM   14  C   UNL     1     -42.723  58.009 -55.105  1.00  0.00     0.035 C 
HETATM   15  C   UNL     1     -41.572  57.254 -54.441  1.00  0.00     0.034 C 
BRANCH  13  16
HETATM   16  N   UNL     1     -43.490  56.213 -56.604  1.00  0.00    -0.066 N 
HETATM   17  H   UNL     1     -42.578  55.764 -56.397  1.00  0.00     0.278 HD
HETATM   18  H   UNL     1     -44.118  55.407 -56.731  1.00  0.00     0.278 HD
BRANCH  16  19
HETATM   19  C   UNL     1     -43.268  56.868 -57.937  1.00  0.00     0.292 C 
BRANCH  19  20
HETATM   20  C   UNL     1     -44.253  56.331 -58.924  1.00  0.00     0.067 A 
HETATM   21  N   UNL     1     -44.010  55.054 -59.435  1.00  0.00    -0.256 NA
HETATM   22  C   UNL     1     -44.958  54.747 -60.301  1.00  0.00     0.166 A 
HETATM   23  S   UNL     1     -46.162  55.940 -60.557  1.00  0.00    -0.092 SA
HETATM   24  C   UNL     1     -45.374  56.962 -59.426  1.00  0.00     0.080 A 
ENDBRANCH  19  20
ENDBRANCH  16  19
ENDBRANCH  13  16
ENDBRANCH   9  10
ENDBRANCH   7   9
TORSDOF 5
ENDMDL
MODEL 4
REMARK VINA RESULT:      -6.6     14.451     16.880
REMARK  5 active torsions:
REMARK  status: ('A' for Active; 'I' for Inactive)
REMARK    1  A    between atoms: C_7  and  O_8 
REMARK    2  A    between atoms: O_8  and  C_9 
REMARK    3  A    between atoms: C_12  and  N_13 
REMARK    4  A    between atoms: N_13  and  C_16 
REMARK    5  A    between atoms: C_16  and  C_17 
ROOT
HETATM    1  C   UNL     1     -35.369  42.311 -56.921  1.00  0.00     0.028 A 
HETATM    2  C   UNL     1     -36.620  41.870 -57.341  1.00  0.00     0.062 A 
HETATM    3  C   UNL     1     -36.909  41.642 -58.721  1.00  0.00     0.101 C 
HETATM    4  N   UNL     1     -37.165  41.450 -59.835  1.00  0.00    -0.191 NA
HETATM    5  C   UNL     1     -37.595  41.655 -56.374  1.00  0.00     0.142 A 
HETATM    6  N   UNL     1     -37.413  41.845 -55.039  1.00  0.00    -0.236 NA
HETATM    7  C   UNL     1     -36.185  42.278 -54.670  1.00  0.00     0.164 A 
HETATM    8  C   UNL     1     -35.148  42.518 -55.562  1.00  0.00     0.059 A 
ENDROOT
BRANCH   7   9
HETATM    9  O   UNL     1     -35.888  42.511 -53.349  1.00  0.00    -0.329 OA
BRANCH   9  10
HETATM   10  C   UNL     1     -35.409  41.450 -52.525  1.00  0.00     0.130 C 
HETATM   11  C   UNL     1     -34.321  41.882 -51.533  1.00  0.00     0.034 C 
HETATM   12  C   UNL     1     -33.916  40.732 -50.613  1.00  0.00     0.035 C 
HETATM   13  C   UNL     1     -33.544  39.455 -51.373  1.00  0.00     0.186 C 
HETATM   14  C   UNL     1     -34.649  39.041 -52.352  1.00  0.00     0.035 C 
HETATM   15  C   UNL     1     -35.069  40.166 -53.297  1.00  0.00     0.034 C 
BRANCH  13  16
HETATM   16  N   UNL     1     -32.274  39.650 -52.130  1.00  0.00    -0.066 N 
HETATM   17  H   UNL     1     -32.398  40.363 -52.872  1.00  0.00     0.278 HD
HETATM   18  H   UNL     1     -31.518  40.048 -51.555  1.00  0.00     0.278 HD
BRANCH  16  19
HETATM   19  C   UNL     1     -31.742  38.457 -52.870  1.00  0.00     0.292 C 
BRANCH  19  20
HETATM   20  C   UNL     1     -31.790  38.723 -54.340  1.00  0.00     0.067 A 
HETATM   21  N   UNL     1     -31.685  40.053 -54.750  1.00  0.00    -0.256 NA
HETATM   22  C   UNL     1     -31.766  40.109 -56.066  1.00  0.00     0.166 A 
HETATM   23  S   UNL     1     -31.977  38.611 -56.873  1.00  0.00    -0.092 SA
HETATM   24  C   UNL     1     -31.959  37.805 -55.358  1.00  0.00     0.080 A 
ENDBRANCH  19  20
ENDBRANCH  16  19
ENDBRANCH  13  16
ENDBRANCH   9  10
ENDBRANCH   7   9
TORSDOF 5
ENDMDL
MODEL 5
REMARK VINA RESULT:      -6.5      3.687      4.860
REMARK  5 active torsions:
REMARK  status: ('A' for Active; 'I' for Inactive)
REMARK    1  A    between atoms: C_7  and  O_8 
REMARK    2  A    between atoms: O_8  and  C_9 
REMARK    3  A    between atoms: C_12  and  N_13 
REMARK    4  A    between atoms: N_13  and  C_16 
REMARK    5  A    between atoms: C_16  and  C_17 
ROOT
HETATM    1  C   UNL     1     -39.612  51.780 -52.037  1.00  0.00     0.028 A 
HETATM    2  C   UNL     1     -40.079  51.629 -53.340  1.00  0.00     0.062 A 
HETATM    3  C   UNL     1     -39.811  50.451 -54.100  1.00  0.00     0.101 C 
HETATM    4  N   UNL     1     -39.606  49.503 -54.735  1.00  0.00    -0.191 NA
HETATM    5  C   UNL     1     -40.822  52.668 -53.891  1.00  0.00     0.142 A 
HETATM    6  N   UNL     1     -41.127  53.825 -53.245  1.00  0.00    -0.236 NA
HETATM    7  C   UNL     1     -40.652  53.937 -51.983  1.00  0.00     0.164 A 
HETATM    8  C   UNL     1     -39.905  52.954 -51.348  1.00  0.00     0.059 A 
ENDROOT
BRANCH   7   9
HETATM    9  O   UNL     1     -40.893  55.065 -51.237  1.00  0.00    -0.329 OA
BRANCH   9  10
HETATM   10  C   UNL     1     -41.824  56.042 -51.696  1.00  0.00     0.130 C 
HETATM   11  C   UNL     1     -41.171  57.366 -52.117  1.00  0.00     0.034 C 
HETATM   12  C   UNL     1     -42.201  58.337 -52.691  1.00  0.00     0.035 C 
HETATM   13  C   UNL     1     -43.411  58.544 -51.775  1.00  0.00     0.186 C 
HETATM   14  C   UNL     1     -44.048  57.208 -51.375  1.00  0.00     0.035 C 
HETATM   15  C   UNL     1     -43.047  56.216 -50.784  1.00  0.00     0.034 C 
BRANCH  13  16
HETATM   16  N   UNL     1     -43.011  59.279 -50.541  1.00  0.00    -0.066 N 
HETATM   17  H   UNL     1     -43.816  59.369 -49.894  1.00  0.00     0.278 HD
HETATM   18  H   UNL     1     -42.318  58.770 -49.974  1.00  0.00     0.278 HD
BRANCH  16  19
HETATM   19  C   UNL     1     -42.542  60.694 -50.722  1.00  0.00     0.292 C 
BRANCH  19  20
HETATM   20  C   UNL     1     -43.479  61.621 -50.017  1.00  0.00     0.067 A 
HETATM   21  N   UNL     1     -43.226  62.989 -50.130  1.00  0.00    -0.256 NA
HETATM   22  C   UNL     1     -44.129  63.656 -49.435  1.00  0.00     0.166 A 
HETATM   23  S   UNL     1     -45.301  62.709 -48.618  1.00  0.00    -0.092 SA
HETATM   24  C   UNL     1     -44.562  61.286 -49.229  1.00  0.00     0.080 A 
ENDBRANCH  19  20
ENDBRANCH  16  19
ENDBRANCH  13  16
ENDBRANCH   9  10
ENDBRANCH   7   9
TORSDOF 5
ENDMDL
MODEL 6
REMARK VINA RESULT:      -6.5     14.629     17.500
REMARK  5 active torsions:
REMARK  status: ('A' for Active; 'I' for Inactive)
REMARK    1  A    between atoms: C_7  and  O_8 
REMARK    2  A    between atoms: O_8  and  C_9 
REMARK    3  A    between atoms: C_12  and  N_13 
REMARK    4  A    between atoms: N_13  and  C_16 
REMARK    5  A    between atoms: C_16  and  C_17 
ROOT
HETATM    1  C   UNL     1     -41.402  37.800 -61.098  1.00  0.00     0.028 A 
HETATM    2  C   UNL     1     -41.246  37.565 -62.460  1.00  0.00     0.062 A 
HETATM    3  C   UNL     1     -42.352  37.209 -63.290  1.00  0.00     0.101 C 
HETATM    4  N   UNL     1     -43.236  36.920 -63.983  1.00  0.00    -0.191 NA
HETATM    5  C   UNL     1     -39.971  37.685 -63.002  1.00  0.00     0.142 A 
HETATM    6  N   UNL     1     -38.860  38.019 -62.292  1.00  0.00    -0.236 NA
HETATM    7  C   UNL     1     -39.050  38.234 -60.970  1.00  0.00     0.164 A 
HETATM    8  C   UNL     1     -40.285  38.141 -60.340  1.00  0.00     0.059 A 
ENDROOT
BRANCH   7   9
HETATM    9  O   UNL     1     -37.998  38.571 -60.152  1.00  0.00    -0.329 OA
BRANCH   9  10
HETATM   10  C   UNL     1     -38.041  39.775 -59.390  1.00  0.00     0.130 C 
HETATM   11  C   UNL     1     -37.080  40.859 -59.896  1.00  0.00     0.034 C 
HETATM   12  C   UNL     1     -37.238  42.158 -59.107  1.00  0.00     0.035 C 
HETATM   13  C   UNL     1     -37.151  41.956 -57.591  1.00  0.00     0.186 C 
HETATM   14  C   UNL     1     -38.125  40.873 -57.111  1.00  0.00     0.035 C 
HETATM   15  C   UNL     1     -37.984  39.556 -57.872  1.00  0.00     0.034 C 
BRANCH  13  16
HETATM   16  N   UNL     1     -35.765  41.571 -57.196  1.00  0.00    -0.066 N 
HETATM   17  H   UNL     1     -35.746  40.600 -56.834  1.00  0.00     0.278 HD
HETATM   18  H   UNL     1     -35.114  41.531 -57.992  1.00  0.00     0.278 HD
BRANCH  16  19
HETATM   19  C   UNL     1     -35.133  42.372 -56.094  1.00  0.00     0.292 C 
BRANCH  19  20
HETATM   20  C   UNL     1     -35.454  41.745 -54.777  1.00  0.00     0.067 A 
HETATM   21  N   UNL     1     -35.782  42.602 -53.725  1.00  0.00    -0.256 NA
HETATM   22  C   UNL     1     -36.015  41.889 -52.640  1.00  0.00     0.166 A 
HETATM   23  S   UNL     1     -35.851  40.190 -52.805  1.00  0.00    -0.092 SA
HETATM   24  C   UNL     1     -35.436  40.402 -54.456  1.00  0.00     0.080 A 
ENDBRANCH  19  20
ENDBRANCH  16  19
ENDBRANCH  13  16
ENDBRANCH   9  10
ENDBRANCH   7   9
TORSDOF 5
ENDMDL
MODEL 7
REMARK VINA RESULT:      -6.4      3.036      4.849
REMARK  5 active torsions:
REMARK  status: ('A' for Active; 'I' for Inactive)
REMARK    1  A    between atoms: C_7  and  O_8 
REMARK    2  A    between atoms: O_8  and  C_9 
REMARK    3  A    between atoms: C_12  and  N_13 
REMARK    4  A    between atoms: N_13  and  C_16 
REMARK    5  A    between atoms: C_16  and  C_17 
ROOT
HETATM    1  C   UNL     1     -40.448  53.796 -51.434  1.00  0.00     0.028 A 
HETATM    2  C   UNL     1     -41.370  53.939 -50.401  1.00  0.00     0.062 A 
HETATM    3  C   UNL     1     -40.962  53.982 -49.033  1.00  0.00     0.101 C 
HETATM    4  N   UNL     1     -40.654  54.020 -47.917  1.00  0.00    -0.191 NA
HETATM    5  C   UNL     1     -42.716  54.041 -50.737  1.00  0.00     0.142 A 
HETATM    6  N   UNL     1     -43.197  54.011 -52.009  1.00  0.00    -0.236 NA
HETATM    7  C   UNL     1     -42.272  53.865 -52.984  1.00  0.00     0.164 A 
HETATM    8  C   UNL     1     -40.907  53.759 -52.747  1.00  0.00     0.059 A 
ENDROOT
BRANCH   7   9
HETATM    9  O   UNL     1     -42.642  53.815 -54.306  1.00  0.00    -0.329 OA
BRANCH   9  10
HETATM   10  C   UNL     1     -43.171  54.974 -54.946  1.00  0.00     0.130 C 
HETATM   11  C   UNL     1     -42.408  55.381 -56.214  1.00  0.00     0.034 C 
HETATM   12  C   UNL     1     -43.075  56.566 -56.910  1.00  0.00     0.035 C 
HETATM   13  C   UNL     1     -43.330  57.750 -55.972  1.00  0.00     0.186 C 
HETATM   14  C   UNL     1     -44.099  57.319 -54.718  1.00  0.00     0.035 C 
HETATM   15  C   UNL     1     -43.451  56.142 -53.989  1.00  0.00     0.034 C 
BRANCH  13  16
HETATM   16  N   UNL     1     -42.040  58.375 -55.560  1.00  0.00    -0.066 N 
HETATM   17  H   UNL     1     -41.554  57.781 -54.863  1.00  0.00     0.278 HD
HETATM   18  H   UNL     1     -41.356  58.433 -56.327  1.00  0.00     0.278 HD
BRANCH  16  19
HETATM   19  C   UNL     1     -42.126  59.714 -54.886  1.00  0.00     0.292 C 
BRANCH  19  20
HETATM   20  C   UNL     1     -41.598  59.604 -53.493  1.00  0.00     0.067 A 
HETATM   21  N   UNL     1     -40.325  59.052 -53.335  1.00  0.00    -0.256 NA
HETATM   22  C   UNL     1     -40.026  59.010 -52.051  1.00  0.00     0.166 A 
HETATM   23  S   UNL     1     -41.222  59.606 -50.978  1.00  0.00    -0.092 SA
HETATM   24  C   UNL     1     -42.234  59.956 -52.319  1.00  0.00     0.080 A 
ENDBRANCH  19  20
ENDBRANCH  16  19
ENDBRANCH  13  16
ENDBRANCH   9  10
ENDBRANCH   7   9
TORSDOF 5
ENDMDL
MODEL 8
REMARK VINA RESULT:      -6.4      2.990      3.895
REMARK  5 active torsions:
REMARK  status: ('A' for Active; 'I' for Inactive)
REMARK    1  A    between atoms: C_7  and  O_8 
REMARK    2  A    between atoms: O_8  and  C_9 
REMARK    3  A    between atoms: C_12  and  N_13 
REMARK    4  A    between atoms: N_13  and  C_16 
REMARK    5  A    between atoms: C_16  and  C_17 
ROOT
HETATM    1  C   UNL     1     -41.041  52.369 -54.146  1.00  0.00     0.028 A 
HETATM    2  C   UNL     1     -40.168  51.587 -53.397  1.00  0.00     0.062 A 
HETATM    3  C   UNL     1     -39.586  50.396 -53.928  1.00  0.00     0.101 C 
HETATM    4  N   UNL     1     -39.102  49.426 -54.339  1.00  0.00    -0.191 NA
HETATM    5  C   UNL     1     -39.871  51.997 -52.102  1.00  0.00     0.142 A 
HETATM    6  N   UNL     1     -40.375  53.114 -51.512  1.00  0.00    -0.236 NA
HETATM    7  C   UNL     1     -41.224  53.846 -52.269  1.00  0.00     0.164 A 
HETATM    8  C   UNL     1     -41.578  53.519 -53.572  1.00  0.00     0.059 A 
ENDROOT
BRANCH   7   9
HETATM    9  O   UNL     1     -41.800  54.992 -51.776  1.00  0.00    -0.329 OA
BRANCH   9  10
HETATM   10  C   UNL     1     -41.131  56.244 -51.909  1.00  0.00     0.130 C 
HETATM   11  C   UNL     1     -40.985  57.009 -50.587  1.00  0.00     0.034 C 
HETATM   12  C   UNL     1     -40.177  58.293 -50.772  1.00  0.00     0.035 C 
HETATM   13  C   UNL     1     -40.701  59.176 -51.908  1.00  0.00     0.186 C 
HETATM   14  C   UNL     1     -40.830  58.390 -53.218  1.00  0.00     0.035 C 
HETATM   15  C   UNL     1     -41.645  57.106 -53.071  1.00  0.00     0.034 C 
BRANCH  13  16
HETATM   16  N   UNL     1     -42.031  59.749 -51.552  1.00  0.00    -0.066 N 
HETATM   17  H   UNL     1     -42.725  58.993 -51.406  1.00  0.00     0.278 HD
HETATM   18  H   UNL     1     -42.031  60.237 -50.645  1.00  0.00     0.278 HD
BRANCH  16  19
HETATM   19  C   UNL     1     -42.680  60.633 -52.577  1.00  0.00     0.292 C 
BRANCH  19  20
HETATM   20  C   UNL     1     -44.150  60.696 -52.319  1.00  0.00     0.067 A 
HETATM   21  N   UNL     1     -44.700  59.695 -51.517  1.00  0.00    -0.256 NA
HETATM   22  C   UNL     1     -46.001  59.890 -51.410  1.00  0.00     0.166 A 
HETATM   23  S   UNL     1     -46.632  61.245 -52.249  1.00  0.00    -0.092 SA
HETATM   24  C   UNL     1     -45.053  61.619 -52.809  1.00  0.00     0.080 A 
ENDBRANCH  19  20
ENDBRANCH  16  19
ENDBRANCH  13  16
ENDBRANCH   9  10
ENDBRANCH   7   9
TORSDOF 5
ENDMDL
MODEL 9
REMARK VINA RESULT:      -6.3     14.579     16.924
REMARK  5 active torsions:
REMARK  status: ('A' for Active; 'I' for Inactive)
REMARK    1  A    between atoms: C_7  and  O_8 
REMARK    2  A    between atoms: O_8  and  C_9 
REMARK    3  A    between atoms: C_12  and  N_13 
REMARK    4  A    between atoms: N_13  and  C_16 
REMARK    5  A    between atoms: C_16  and  C_17 
ROOT
HETATM    1  C   UNL     1     -38.332  40.161 -58.128  1.00  0.00     0.028 A 
HETATM    2  C   UNL     1     -37.404  40.467 -59.118  1.00  0.00     0.062 A 
HETATM    3  C   UNL     1     -37.469  39.873 -60.415  1.00  0.00     0.101 C 
HETATM    4  N   UNL     1     -37.503  39.403 -61.474  1.00  0.00    -0.191 NA
HETATM    5  C   UNL     1     -36.397  41.376 -58.811  1.00  0.00     0.142 A 
HETATM    6  N   UNL     1     -36.255  41.992 -57.607  1.00  0.00    -0.236 NA
HETATM    7  C   UNL     1     -37.174  41.666 -56.668  1.00  0.00     0.164 A 
HETATM    8  C   UNL     1     -38.216  40.772 -56.882  1.00  0.00     0.059 A 
ENDROOT
BRANCH   7   9
HETATM    9  O   UNL     1     -37.126  42.221 -55.413  1.00  0.00    -0.329 OA
BRANCH   9  10
HETATM   10  C   UNL     1     -36.557  41.489 -54.328  1.00  0.00     0.130 C 
HETATM   11  C   UNL     1     -35.880  42.376 -53.274  1.00  0.00     0.034 C 
HETATM   12  C   UNL     1     -35.377  41.551 -52.091  1.00  0.00     0.035 C 
HETATM   13  C   UNL     1     -34.503  40.366 -52.512  1.00  0.00     0.186 C 
HETATM   14  C   UNL     1     -35.204  39.493 -53.559  1.00  0.00     0.035 C 
HETATM   15  C   UNL     1     -35.709  40.286 -54.764  1.00  0.00     0.034 C 
BRANCH  13  16
HETATM   16  N   UNL     1     -33.207  40.847 -53.070  1.00  0.00    -0.066 N 
HETATM   17  H   UNL     1     -33.306  41.073 -54.078  1.00  0.00     0.278 HD
HETATM   18  H   UNL     1     -32.899  41.742 -52.665  1.00  0.00     0.278 HD
BRANCH  16  19
HETATM   19  C   UNL     1     -32.058  39.880 -53.036  1.00  0.00     0.292 C 
BRANCH  19  20
HETATM   20  C   UNL     1     -31.646  39.549 -54.433  1.00  0.00     0.067 A 
HETATM   21  N   UNL     1     -31.974  40.470 -55.430  1.00  0.00    -0.256 NA
HETATM   22  C   UNL     1     -31.557  40.015 -56.596  1.00  0.00     0.166 A 
HETATM   23  S   UNL     1     -30.773  38.490 -56.574  1.00  0.00    -0.092 SA
HETATM   24  C   UNL     1     -30.997  38.413 -54.874  1.00  0.00     0.080 A 
ENDBRANCH  19  20
ENDBRANCH  16  19
ENDBRANCH  13  16
ENDBRANCH   9  10
ENDBRANCH   7   9
TORSDOF 5
ENDMDL
MODEL 10
REMARK VINA RESULT:      -6.3      3.266      5.121
REMARK  5 active torsions:
REMARK  status: ('A' for Active; 'I' for Inactive)
REMARK    1  A    between atoms: C_7  and  O_8 
REMARK    2  A    between atoms: O_8  and  C_9 
REMARK    3  A    between atoms: C_12  and  N_13 
REMARK    4  A    between atoms: N_13  and  C_16 
REMARK    5  A    between atoms: C_16  and  C_17 
ROOT
HETATM    1  C   UNL     1     -40.878  53.869 -51.364  1.00  0.00     0.028 A 
HETATM    2  C   UNL     1     -41.556  54.175 -50.188  1.00  0.00     0.062 A 
HETATM    3  C   UNL     1     -40.926  54.071 -48.912  1.00  0.00     0.101 C 
HETATM    4  N   UNL     1     -40.434  53.994 -47.865  1.00  0.00    -0.191 NA
HETATM    5  C   UNL     1     -42.880  54.590 -50.287  1.00  0.00     0.142 A 
HETATM    6  N   UNL     1     -43.562  54.719 -51.456  1.00  0.00    -0.236 NA
HETATM    7  C   UNL     1     -42.872  54.408 -52.577  1.00  0.00     0.164 A 
HETATM    8  C   UNL     1     -41.547  53.988 -52.580  1.00  0.00     0.059 A 
ENDROOT
BRANCH   7   9
HETATM    9  O   UNL     1     -43.461  54.494 -53.815  1.00  0.00    -0.329 OA
BRANCH   9  10
HETATM   10  C   UNL     1     -43.292  55.668 -54.607  1.00  0.00     0.130 C 
HETATM   11  C   UNL     1     -44.492  56.624 -54.555  1.00  0.00     0.034 C 
HETATM   12  C   UNL     1     -44.217  57.906 -55.340  1.00  0.00     0.035 C 
HETATM   13  C   UNL     1     -43.735  57.645 -56.770  1.00  0.00     0.186 C 
HETATM   14  C   UNL     1     -42.533  56.693 -56.794  1.00  0.00     0.035 C 
HETATM   15  C   UNL     1     -42.779  55.394 -56.029  1.00  0.00     0.034 C 
BRANCH  13  16
HETATM   16  N   UNL     1     -44.834  57.060 -57.592  1.00  0.00    -0.066 N 
HETATM   17  H   UNL     1     -45.099  56.125 -57.232  1.00  0.00     0.278 HD
HETATM   18  H   UNL     1     -45.715  57.589 -57.524  1.00  0.00     0.278 HD
BRANCH  16  19
HETATM   19  C   UNL     1     -44.531  56.810 -59.041  1.00  0.00     0.292 C 
BRANCH  19  20
HETATM   20  C   UNL     1     -45.741  57.117 -59.862  1.00  0.00     0.067 A 
HETATM   21  N   UNL     1     -46.489  56.033 -60.326  1.00  0.00    -0.256 NA
HETATM   22  C   UNL     1     -47.502  56.480 -61.043  1.00  0.00     0.166 A 
HETATM   23  S   UNL     1     -47.614  58.183 -61.211  1.00  0.00    -0.092 SA
HETATM   24  C   UNL     1     -46.203  58.359 -60.251  1.00  0.00     0.080 A 
ENDBRANCH  19  20
ENDBRANCH  16  19
ENDBRANCH  13  16
ENDBRANCH   9  10
ENDBRANCH   7   9
TORSDOF 5
ENDMDL
