MODEL 1
REMARK VINA RESULT:      -8.6      0.000      0.000
REMARK  2 active torsions:
REMARK  status: ('A' for Active; 'I' for Inactive)
REMARK    1  A    between atoms: C_9  and  C_10 
REMARK       I    between atoms: C_10  and  N_11 
REMARK    2  A    between atoms: N_11  and  N_12 
ROOT
HETATM    1  C   UNL     1     -42.518  56.265 -53.478  1.00  0.00     0.291 C 
HETATM    2  N   UNL     1     -41.716  56.759 -54.482  1.00  0.00    -0.251 N 
HETATM    3  O   UNL     1     -43.737  56.408 -53.429  1.00  0.00    -0.264 OA
HETATM    4  H   UNL     1     -40.707  56.684 -54.399  1.00  0.00     0.191 HD
ENDROOT
BRANCH   2   5
HETATM    5  N   UNL     1     -42.264  57.412 -55.565  1.00  0.00    -0.167 N 
HETATM    6  C   UNL     1     -42.109  58.757 -55.767  1.00  0.00     0.345 C 
HETATM    7  O   UNL     1     -41.600  59.578 -55.021  1.00  0.00    -0.245 OA
HETATM    8  N   UNL     1     -42.573  59.050 -57.034  1.00  0.00    -0.323 N 
HETATM    9  C   UNL     1     -42.948  57.856 -57.771  1.00  0.00     0.117 C 
HETATM   10  H   UNL     1     -42.505  59.988 -57.407  1.00  0.00     0.165 HD
HETATM   11  C   UNL     1     -42.065  57.648 -59.008  1.00  0.00     0.041 C 
HETATM   12  C   UNL     1     -44.440  57.863 -58.116  1.00  0.00     0.041 C 
HETATM   13  C   UNL     1     -42.627  56.769 -56.724  1.00  0.00     0.275 C 
HETATM   14  C   UNL     1     -42.403  58.623 -60.132  1.00  0.00     0.003 C 
HETATM   15  C   UNL     1     -43.889  58.593 -60.475  1.00  0.00     0.000 C 
HETATM   16  C   UNL     1     -44.760  58.842 -59.246  1.00  0.00     0.003 C 
HETATM   17  O   UNL     1     -42.645  55.563 -56.937  1.00  0.00    -0.268 OA
ENDBRANCH   2   5
BRANCH   1  18
HETATM   18  C   UNL     1     -41.743  55.539 -52.461  1.00  0.00     0.158 A 
HETATM   19  C   UNL     1     -41.141  54.253 -52.586  1.00  0.00     0.029 A 
HETATM   20  C   UNL     1     -41.040  53.274 -53.593  1.00  0.00     0.023 A 
HETATM   21  C   UNL     1     -40.517  54.025 -51.365  1.00  0.00     0.063 A 
HETATM   22  C   UNL     1     -40.309  52.100 -53.347  1.00  0.00    -0.061 A 
HETATM   23  C   UNL     1     -40.172  51.052 -54.413  1.00  0.00     0.048 C 
HETATM   24  C   UNL     1     -39.705  51.906 -52.098  1.00  0.00     0.009 A 
HETATM   25  C   UNL     1     -39.797  52.862 -51.081  1.00  0.00     0.032 A 
HETATM   26  N   UNL     1     -40.776  55.138 -50.615  1.00  0.00    -0.277 N 
HETATM   27  H   UNL     1     -40.478  55.317 -49.663  1.00  0.00     0.189 HD
HETATM   28  N   UNL     1     -41.493  56.085 -51.249  1.00  0.00    -0.168 NA
ENDBRANCH   1  18
TORSDOF 2
ENDMDL
MODEL 2
REMARK VINA RESULT:      -8.4      1.331      2.376
REMARK  2 active torsions:
REMARK  status: ('A' for Active; 'I' for Inactive)
REMARK    1  A    between atoms: C_9  and  C_10 
REMARK       I    between atoms: C_10  and  N_11 
REMARK    2  A    between atoms: N_11  and  N_12 
ROOT
HETATM    1  C   UNL     1     -42.779  56.450 -53.362  1.00  0.00     0.291 C 
HETATM    2  N   UNL     1     -41.859  56.374 -54.382  1.00  0.00    -0.251 N 
HETATM    3  O   UNL     1     -43.986  56.612 -53.525  1.00  0.00    -0.264 OA
HETATM    4  H   UNL     1     -40.868  56.338 -54.161  1.00  0.00     0.191 HD
ENDROOT
BRANCH   2   5
HETATM    5  N   UNL     1     -42.262  56.413 -55.700  1.00  0.00    -0.167 N 
HETATM    6  C   UNL     1     -42.860  55.348 -56.317  1.00  0.00     0.345 C 
HETATM    7  O   UNL     1     -43.023  54.219 -55.882  1.00  0.00    -0.245 OA
HETATM    8  N   UNL     1     -43.339  55.781 -57.537  1.00  0.00    -0.323 N 
HETATM    9  C   UNL     1     -43.172  57.213 -57.716  1.00  0.00     0.117 C 
HETATM   10  H   UNL     1     -43.864  55.159 -58.139  1.00  0.00     0.165 HD
HETATM   11  C   UNL     1     -44.520  57.934 -57.829  1.00  0.00     0.041 C 
HETATM   12  C   UNL     1     -42.247  57.519 -58.897  1.00  0.00     0.041 C 
HETATM   13  C   UNL     1     -42.502  57.585 -56.377  1.00  0.00     0.275 C 
HETATM   14  C   UNL     1     -45.193  57.699 -59.179  1.00  0.00     0.003 C 
HETATM   15  C   UNL     1     -44.260  58.036 -60.338  1.00  0.00     0.000 C 
HETATM   16  C   UNL     1     -42.937  57.282 -60.240  1.00  0.00     0.003 C 
HETATM   17  O   UNL     1     -42.291  58.729 -55.992  1.00  0.00    -0.268 OA
ENDBRANCH   2   5
BRANCH   1  18
HETATM   18  C   UNL     1     -42.149  56.311 -52.040  1.00  0.00     0.158 A 
HETATM   19  C   UNL     1     -41.405  55.200 -51.548  1.00  0.00     0.029 A 
HETATM   20  C   UNL     1     -41.008  53.944 -52.046  1.00  0.00     0.023 A 
HETATM   21  C   UNL     1     -41.013  55.566 -50.266  1.00  0.00     0.063 A 
HETATM   22  C   UNL     1     -40.223  53.098 -51.246  1.00  0.00    -0.061 A 
HETATM   23  C   UNL     1     -39.771  51.763 -51.765  1.00  0.00     0.048 C 
HETATM   24  C   UNL     1     -39.859  53.502 -49.954  1.00  0.00     0.009 A 
HETATM   25  C   UNL     1     -40.248  54.742 -49.436  1.00  0.00     0.032 A 
HETATM   26  N   UNL     1     -41.528  56.818 -50.075  1.00  0.00    -0.277 N 
HETATM   27  H   UNL     1     -41.443  57.395 -49.246  1.00  0.00     0.189 HD
HETATM   28  N   UNL     1     -42.200  57.312 -51.132  1.00  0.00    -0.168 NA
ENDBRANCH   1  18
TORSDOF 2
ENDMDL
MODEL 3
REMARK VINA RESULT:      -8.3      1.677      2.081
REMARK  2 active torsions:
REMARK  status: ('A' for Active; 'I' for Inactive)
REMARK    1  A    between atoms: C_9  and  C_10 
REMARK       I    between atoms: C_10  and  N_11 
REMARK    2  A    between atoms: N_11  and  N_12 
ROOT
HETATM    1  C   UNL     1     -40.885  55.290 -53.453  1.00  0.00     0.291 C 
HETATM    2  N   UNL     1     -41.839  56.209 -53.079  1.00  0.00    -0.251 N 
HETATM    3  O   UNL     1     -40.298  55.299 -54.532  1.00  0.00    -0.264 OA
HETATM    4  H   UNL     1     -42.349  56.076 -52.210  1.00  0.00     0.191 HD
ENDROOT
BRANCH   2   5
HETATM    5  N   UNL     1     -42.158  57.270 -53.900  1.00  0.00    -0.167 N 
HETATM    6  C   UNL     1     -41.403  58.410 -53.951  1.00  0.00     0.345 C 
HETATM    7  O   UNL     1     -40.455  58.720 -53.247  1.00  0.00    -0.245 OA
HETATM    8  N   UNL     1     -41.851  59.165 -55.017  1.00  0.00    -0.323 N 
HETATM    9  C   UNL     1     -42.863  58.471 -55.795  1.00  0.00     0.117 C 
HETATM   10  H   UNL     1     -41.394  60.033 -55.266  1.00  0.00     0.165 HD
HETATM   11  C   UNL     1     -42.387  58.187 -57.224  1.00  0.00     0.041 C 
HETATM   12  C   UNL     1     -44.197  59.222 -55.763  1.00  0.00     0.041 C 
HETATM   13  C   UNL     1     -42.956  57.145 -55.011  1.00  0.00     0.275 C 
HETATM   14  C   UNL     1     -42.375  59.442 -58.093  1.00  0.00     0.003 C 
HETATM   15  C   UNL     1     -43.722  60.158 -58.065  1.00  0.00     0.000 C 
HETATM   16  C   UNL     1     -44.168  60.474 -56.641  1.00  0.00     0.003 C 
HETATM   17  O   UNL     1     -43.587  56.159 -55.373  1.00  0.00    -0.268 OA
ENDBRANCH   2   5
BRANCH   1  18
HETATM   18  C   UNL     1     -40.643  54.289 -52.404  1.00  0.00     0.158 A 
HETATM   19  C   UNL     1     -40.316  52.913 -52.579  1.00  0.00     0.029 A 
HETATM   20  C   UNL     1     -40.108  52.051 -53.674  1.00  0.00     0.023 A 
HETATM   21  C   UNL     1     -40.173  52.407 -51.292  1.00  0.00     0.063 A 
HETATM   22  C   UNL     1     -39.756  50.711 -53.442  1.00  0.00    -0.061 A 
HETATM   23  C   UNL     1     -39.510  49.780 -54.595  1.00  0.00     0.048 C 
HETATM   24  C   UNL     1     -39.634  50.240 -52.129  1.00  0.00     0.009 A 
HETATM   25  C   UNL     1     -39.842  51.077 -51.027  1.00  0.00     0.032 A 
HETATM   26  N   UNL     1     -40.418  53.465 -50.461  1.00  0.00    -0.277 N 
HETATM   27  H   UNL     1     -40.407  53.461 -49.447  1.00  0.00     0.189 HD
HETATM   28  N   UNL     1     -40.682  54.623 -51.094  1.00  0.00    -0.168 NA
ENDBRANCH   1  18
TORSDOF 2
ENDMDL
MODEL 4
REMARK VINA RESULT:      -8.2      1.172      2.150
REMARK  2 active torsions:
REMARK  status: ('A' for Active; 'I' for Inactive)
REMARK    1  A    between atoms: C_9  and  C_10 
REMARK       I    between atoms: C_10  and  N_11 
REMARK    2  A    between atoms: N_11  and  N_12 
ROOT
HETATM    1  C   UNL     1     -42.555  55.385 -54.116  1.00  0.00     0.291 C 
HETATM    2  N   UNL     1     -41.804  55.656 -55.237  1.00  0.00    -0.251 N 
HETATM    3  O   UNL     1     -43.762  55.595 -54.021  1.00  0.00    -0.264 OA
HETATM    4  H   UNL     1     -40.795  55.545 -55.203  1.00  0.00     0.191 HD
ENDROOT
BRANCH   2   5
HETATM    5  N   UNL     1     -42.398  56.139 -56.384  1.00  0.00    -0.167 N 
HETATM    6  C   UNL     1     -43.215  55.369 -57.167  1.00  0.00     0.345 C 
HETATM    7  O   UNL     1     -43.453  54.177 -57.066  1.00  0.00    -0.245 OA
HETATM    8  N   UNL     1     -43.818  56.200 -58.091  1.00  0.00    -0.323 N 
HETATM    9  C   UNL     1     -43.498  57.599 -57.864  1.00  0.00     0.117 C 
HETATM   10  H   UNL     1     -44.504  55.840 -58.742  1.00  0.00     0.165 HD
HETATM   11  C   UNL     1     -44.744  58.417 -57.503  1.00  0.00     0.041 C 
HETATM   12  C   UNL     1     -42.735  58.193 -59.050  1.00  0.00     0.041 C 
HETATM   13  C   UNL     1     -42.587  57.479 -56.624  1.00  0.00     0.275 C 
HETATM   14  C   UNL     1     -45.642  58.670 -58.711  1.00  0.00     0.003 C 
HETATM   15  C   UNL     1     -44.864  59.285 -59.870  1.00  0.00     0.000 C 
HETATM   16  C   UNL     1     -43.649  58.443 -60.250  1.00  0.00     0.003 C 
HETATM   17  O   UNL     1     -42.175  58.424 -55.962  1.00  0.00    -0.268 OA
ENDBRANCH   2   5
BRANCH   1  18
HETATM   18  C   UNL     1     -41.743  54.807 -53.035  1.00  0.00     0.158 A 
HETATM   19  C   UNL     1     -41.047  53.563 -53.045  1.00  0.00     0.029 A 
HETATM   20  C   UNL     1     -40.861  52.512 -53.964  1.00  0.00     0.023 A 
HETATM   21  C   UNL     1     -40.423  53.487 -51.805  1.00  0.00     0.063 A 
HETATM   22  C   UNL     1     -40.049  51.421 -53.613  1.00  0.00    -0.061 A 
HETATM   23  C   UNL     1     -39.821  50.299 -54.585  1.00  0.00     0.048 C 
HETATM   24  C   UNL     1     -39.449  51.378 -52.348  1.00  0.00     0.009 A 
HETATM   25  C   UNL     1     -39.625  52.409 -51.417  1.00  0.00     0.032 A 
HETATM   26  N   UNL     1     -40.773  54.637 -51.155  1.00  0.00    -0.277 N 
HETATM   27  H   UNL     1     -40.501  54.918 -50.220  1.00  0.00     0.189 HD
HETATM   28  N   UNL     1     -41.549  55.471 -51.873  1.00  0.00    -0.168 NA
ENDBRANCH   1  18
TORSDOF 2
ENDMDL
MODEL 5
REMARK VINA RESULT:      -8.0      3.984      6.089
REMARK  2 active torsions:
REMARK  status: ('A' for Active; 'I' for Inactive)
REMARK    1  A    between atoms: C_9  and  C_10 
REMARK       I    between atoms: C_10  and  N_11 
REMARK    2  A    between atoms: N_11  and  N_12 
ROOT
HETATM    1  C   UNL     1     -43.809  56.922 -53.967  1.00  0.00     0.291 C 
HETATM    2  N   UNL     1     -43.257  57.517 -52.856  1.00  0.00    -0.251 N 
HETATM    3  O   UNL     1     -44.971  57.079 -54.334  1.00  0.00    -0.264 OA
HETATM    4  H   UNL     1     -42.318  57.260 -52.565  1.00  0.00     0.191 HD
ENDROOT
BRANCH   2   5
HETATM    5  N   UNL     1     -43.985  58.407 -52.097  1.00  0.00    -0.167 N 
HETATM    6  C   UNL     1     -44.735  58.013 -51.022  1.00  0.00     0.345 C 
HETATM    7  O   UNL     1     -44.972  56.878 -50.643  1.00  0.00    -0.245 OA
HETATM    8  N   UNL     1     -45.145  59.150 -50.354  1.00  0.00    -0.323 N 
HETATM    9  C   UNL     1     -44.564  60.357 -50.916  1.00  0.00     0.117 C 
HETATM   10  H   UNL     1     -45.675  59.084 -49.495  1.00  0.00     0.165 HD
HETATM   11  C   UNL     1     -43.644  61.065 -49.914  1.00  0.00     0.041 C 
HETATM   12  C   UNL     1     -45.646  61.287 -51.471  1.00  0.00     0.041 C 
HETATM   13  C   UNL     1     -43.715  59.754 -52.055  1.00  0.00     0.275 C 
HETATM   14  C   UNL     1     -44.424  61.781 -48.815  1.00  0.00     0.003 C 
HETATM   15  C   UNL     1     -45.478  62.720 -49.393  1.00  0.00     0.000 C 
HETATM   16  C   UNL     1     -46.415  61.998 -50.357  1.00  0.00     0.003 C 
HETATM   17  O   UNL     1     -42.912  60.379 -52.737  1.00  0.00    -0.268 OA
ENDBRANCH   2   5
BRANCH   1  18
HETATM   18  C   UNL     1     -42.841  56.071 -54.675  1.00  0.00     0.158 A 
HETATM   19  C   UNL     1     -42.001  55.064 -54.116  1.00  0.00     0.029 A 
HETATM   20  C   UNL     1     -41.778  54.527 -52.833  1.00  0.00     0.023 A 
HETATM   21  C   UNL     1     -41.294  54.543 -55.193  1.00  0.00     0.063 A 
HETATM   22  C   UNL     1     -40.857  53.480 -52.673  1.00  0.00    -0.061 A 
HETATM   23  C   UNL     1     -40.617  52.879 -51.317  1.00  0.00     0.048 C 
HETATM   24  C   UNL     1     -40.156  52.992 -53.783  1.00  0.00     0.009 A 
HETATM   25  C   UNL     1     -40.358  53.515 -55.066  1.00  0.00     0.032 A 
HETATM   26  N   UNL     1     -41.730  55.244 -56.283  1.00  0.00    -0.277 N 
HETATM   27  H   UNL     1     -41.424  55.133 -57.244  1.00  0.00     0.189 HD
HETATM   28  N   UNL     1     -42.681  56.158 -56.016  1.00  0.00    -0.168 NA
ENDBRANCH   1  18
TORSDOF 2
ENDMDL
MODEL 6
REMARK VINA RESULT:      -8.0      3.903      4.856
REMARK  2 active torsions:
REMARK  status: ('A' for Active; 'I' for Inactive)
REMARK    1  A    between atoms: C_9  and  C_10 
REMARK       I    between atoms: C_10  and  N_11 
REMARK    2  A    between atoms: N_11  and  N_12 
ROOT
HETATM    1  C   UNL     1     -41.322  55.191 -51.985  1.00  0.00     0.291 C 
HETATM    2  N   UNL     1     -41.953  56.090 -51.157  1.00  0.00    -0.251 N 
HETATM    3  O   UNL     1     -41.141  55.362 -53.188  1.00  0.00    -0.264 OA
HETATM    4  H   UNL     1     -42.150  55.832 -50.195  1.00  0.00     0.191 HD
ENDROOT
BRANCH   2   5
HETATM    5  N   UNL     1     -42.380  57.311 -51.636  1.00  0.00    -0.167 N 
HETATM    6  C   UNL     1     -43.705  57.607 -51.812  1.00  0.00     0.345 C 
HETATM    7  O   UNL     1     -44.666  56.864 -51.701  1.00  0.00    -0.245 OA
HETATM    8  N   UNL     1     -43.802  58.959 -52.079  1.00  0.00    -0.323 N 
HETATM    9  C   UNL     1     -42.521  59.635 -51.965  1.00  0.00     0.117 C 
HETATM   10  H   UNL     1     -44.705  59.401 -52.194  1.00  0.00     0.165 HD
HETATM   11  C   UNL     1     -42.521  60.669 -50.833  1.00  0.00     0.041 C 
HETATM   12  C   UNL     1     -42.093  60.238 -53.306  1.00  0.00     0.041 C 
HETATM   13  C   UNL     1     -41.613  58.449 -51.577  1.00  0.00     0.275 C 
HETATM   14  C   UNL     1     -43.314  61.923 -51.194  1.00  0.00     0.003 C 
HETATM   15  C   UNL     1     -42.851  62.520 -52.519  1.00  0.00     0.000 C 
HETATM   16  C   UNL     1     -42.894  61.495 -53.649  1.00  0.00     0.003 C 
HETATM   17  O   UNL     1     -40.443  58.547 -51.226  1.00  0.00    -0.268 OA
ENDBRANCH   2   5
BRANCH   1  18
HETATM   18  C   UNL     1     -40.880  53.990 -51.260  1.00  0.00     0.158 A 
HETATM   19  C   UNL     1     -40.471  52.744 -51.817  1.00  0.00     0.029 A 
HETATM   20  C   UNL     1     -40.329  52.209 -53.112  1.00  0.00     0.023 A 
HETATM   21  C   UNL     1     -40.137  51.951 -50.725  1.00  0.00     0.063 A 
HETATM   22  C   UNL     1     -39.849  50.899 -53.271  1.00  0.00    -0.061 A 
HETATM   23  C   UNL     1     -39.670  50.316 -54.644  1.00  0.00     0.048 C 
HETATM   24  C   UNL     1     -39.535  50.130 -52.142  1.00  0.00     0.009 A 
HETATM   25  C   UNL     1     -39.675  50.639 -50.846  1.00  0.00     0.032 A 
HETATM   26  N   UNL     1     -40.363  52.736 -49.628  1.00  0.00    -0.277 N 
HETATM   27  H   UNL     1     -40.230  52.481 -48.656  1.00  0.00     0.189 HD
HETATM   28  N   UNL     1     -40.788  53.981 -49.910  1.00  0.00    -0.168 NA
ENDBRANCH   1  18
TORSDOF 2
ENDMDL
MODEL 7
REMARK VINA RESULT:      -7.7     15.384     17.830
REMARK  2 active torsions:
REMARK  status: ('A' for Active; 'I' for Inactive)
REMARK    1  A    between atoms: C_9  and  C_10 
REMARK       I    between atoms: C_10  and  N_11 
REMARK    2  A    between atoms: N_11  and  N_12 
ROOT
HETATM    1  C   UNL     1     -34.544  39.827 -51.853  1.00  0.00     0.291 C 
HETATM    2  N   UNL     1     -34.348  40.737 -52.866  1.00  0.00    -0.251 N 
HETATM    3  O   UNL     1     -35.553  39.138 -51.724  1.00  0.00    -0.264 OA
HETATM    4  H   UNL     1     -33.529  41.338 -52.847  1.00  0.00     0.191 HD
ENDROOT
BRANCH   2   5
HETATM    5  N   UNL     1     -35.281  40.888 -53.870  1.00  0.00    -0.167 N 
HETATM    6  C   UNL     1     -36.220  41.883 -53.855  1.00  0.00     0.345 C 
HETATM    7  O   UNL     1     -36.460  42.681 -52.964  1.00  0.00    -0.245 OA
HETATM    8  N   UNL     1     -36.839  41.897 -55.090  1.00  0.00    -0.323 N 
HETATM    9  C   UNL     1     -36.228  40.964 -56.021  1.00  0.00     0.117 C 
HETATM   10  H   UNL     1     -37.538  42.594 -55.312  1.00  0.00     0.165 HD
HETATM   11  C   UNL     1     -35.596  41.685 -57.218  1.00  0.00     0.041 C 
HETATM   12  C   UNL     1     -37.220  39.881 -56.452  1.00  0.00     0.041 C 
HETATM   13  C   UNL     1     -35.113  40.372 -55.133  1.00  0.00     0.275 C 
HETATM   14  C   UNL     1     -36.642  42.204 -58.201  1.00  0.00     0.003 C 
HETATM   15  C   UNL     1     -37.602  41.101 -58.635  1.00  0.00     0.000 C 
HETATM   16  C   UNL     1     -38.258  40.417 -57.439  1.00  0.00     0.003 C 
HETATM   17  O   UNL     1     -34.223  39.629 -55.526  1.00  0.00    -0.268 OA
ENDBRANCH   2   5
BRANCH   1  18
HETATM   18  C   UNL     1     -33.398  39.770 -50.933  1.00  0.00     0.158 A 
HETATM   19  C   UNL     1     -33.363  39.198 -49.628  1.00  0.00     0.029 A 
HETATM   20  C   UNL     1     -34.276  38.534 -48.786  1.00  0.00     0.023 A 
HETATM   21  C   UNL     1     -32.058  39.384 -49.187  1.00  0.00     0.063 A 
HETATM   22  C   UNL     1     -33.849  38.070 -47.531  1.00  0.00    -0.061 A 
HETATM   23  C   UNL     1     -34.800  37.342 -46.626  1.00  0.00     0.048 C 
HETATM   24  C   UNL     1     -32.527  38.288 -47.121  1.00  0.00     0.009 A 
HETATM   25  C   UNL     1     -31.605  38.951 -47.938  1.00  0.00     0.032 A 
HETATM   26  N   UNL     1     -31.421  40.031 -50.208  1.00  0.00    -0.277 N 
HETATM   27  H   UNL     1     -30.453  40.332 -50.233  1.00  0.00     0.189 HD
HETATM   28  N   UNL     1     -32.189  40.261 -51.289  1.00  0.00    -0.168 NA
ENDBRANCH   1  18
TORSDOF 2
ENDMDL
MODEL 8
REMARK VINA RESULT:      -7.7     15.605     17.101
REMARK  2 active torsions:
REMARK  status: ('A' for Active; 'I' for Inactive)
REMARK    1  A    between atoms: C_9  and  C_10 
REMARK       I    between atoms: C_10  and  N_11 
REMARK    2  A    between atoms: N_11  and  N_12 
ROOT
HETATM    1  C   UNL     1     -37.245  41.188 -56.323  1.00  0.00     0.291 C 
HETATM    2  N   UNL     1     -36.447  41.048 -57.435  1.00  0.00    -0.251 N 
HETATM    3  O   UNL     1     -38.454  40.969 -56.304  1.00  0.00    -0.264 OA
HETATM    4  H   UNL     1     -35.475  41.343 -57.394  1.00  0.00     0.191 HD
ENDROOT
BRANCH   2   5
HETATM    5  N   UNL     1     -36.965  40.575 -58.621  1.00  0.00    -0.167 N 
HETATM    6  C   UNL     1     -37.237  41.395 -59.682  1.00  0.00     0.345 C 
HETATM    7  O   UNL     1     -37.186  42.613 -59.727  1.00  0.00    -0.245 OA
HETATM    8  N   UNL     1     -37.522  40.595 -60.771  1.00  0.00    -0.323 N 
HETATM    9  C   UNL     1     -37.326  39.185 -60.483  1.00  0.00     0.117 C 
HETATM   10  H   UNL     1     -37.704  41.001 -61.680  1.00  0.00     0.165 HD
HETATM   11  C   UNL     1     -36.206  38.579 -61.338  1.00  0.00     0.041 C 
HETATM   12  C   UNL     1     -38.638  38.406 -60.606  1.00  0.00     0.041 C 
HETATM   13  C   UNL     1     -36.863  39.262 -59.013  1.00  0.00     0.275 C 
HETATM   14  C   UNL     1     -36.632  38.371 -62.789  1.00  0.00     0.003 C 
HETATM   15  C   UNL     1     -37.928  37.571 -62.886  1.00  0.00     0.000 C 
HETATM   16  C   UNL     1     -39.048  38.204 -62.065  1.00  0.00     0.003 C 
HETATM   17  O   UNL     1     -36.433  38.317 -58.363  1.00  0.00    -0.268 OA
ENDBRANCH   2   5
BRANCH   1  18
HETATM   18  C   UNL     1     -36.481  41.631 -55.147  1.00  0.00     0.158 A 
HETATM   19  C   UNL     1     -36.576  41.135 -53.814  1.00  0.00     0.029 A 
HETATM   20  C   UNL     1     -37.330  40.147 -53.151  1.00  0.00     0.023 A 
HETATM   21  C   UNL     1     -35.641  41.863 -53.089  1.00  0.00     0.063 A 
HETATM   22  C   UNL     1     -37.116  39.916 -51.783  1.00  0.00    -0.061 A 
HETATM   23  C   UNL     1     -37.894  38.853 -51.060  1.00  0.00     0.048 C 
HETATM   24  C   UNL     1     -36.171  40.681 -51.086  1.00  0.00     0.009 A 
HETATM   25  C   UNL     1     -35.416  41.672 -51.724  1.00  0.00     0.032 A 
HETATM   26  N   UNL     1     -35.071  42.717 -53.991  1.00  0.00    -0.277 N 
HETATM   27  H   UNL     1     -34.347  43.404 -53.811  1.00  0.00     0.189 HD
HETATM   28  N   UNL     1     -35.533  42.591 -55.249  1.00  0.00    -0.168 NA
ENDBRANCH   1  18
TORSDOF 2
ENDMDL
MODEL 9
REMARK VINA RESULT:      -7.7      1.672      2.353
REMARK  2 active torsions:
REMARK  status: ('A' for Active; 'I' for Inactive)
REMARK    1  A    between atoms: C_9  and  C_10 
REMARK       I    between atoms: C_10  and  N_11 
REMARK    2  A    between atoms: N_11  and  N_12 
ROOT
HETATM    1  C   UNL     1     -42.314  55.518 -54.753  1.00  0.00     0.291 C 
HETATM    2  N   UNL     1     -41.747  56.071 -55.878  1.00  0.00    -0.251 N 
HETATM    3  O   UNL     1     -43.405  55.845 -54.293  1.00  0.00    -0.264 OA
HETATM    4  H   UNL     1     -40.798  55.816 -56.137  1.00  0.00     0.191 HD
ENDROOT
BRANCH   2   5
HETATM    5  N   UNL     1     -42.425  57.014 -56.620  1.00  0.00    -0.167 N 
HETATM    6  C   UNL     1     -42.292  58.358 -56.396  1.00  0.00     0.345 C 
HETATM    7  O   UNL     1     -41.690  58.916 -55.493  1.00  0.00    -0.245 OA
HETATM    8  N   UNL     1     -42.912  59.022 -57.436  1.00  0.00    -0.323 N 
HETATM    9  C   UNL     1     -43.382  58.112 -58.466  1.00  0.00     0.117 C 
HETATM   10  H   UNL     1     -42.889  60.032 -57.494  1.00  0.00     0.165 HD
HETATM   11  C   UNL     1     -42.663  58.343 -59.801  1.00  0.00     0.041 C 
HETATM   12  C   UNL     1     -44.905  58.173 -58.607  1.00  0.00     0.041 C 
HETATM   13  C   UNL     1     -42.934  56.761 -57.870  1.00  0.00     0.275 C 
HETATM   14  C   UNL     1     -43.138  59.612 -60.504  1.00  0.00     0.003 C 
HETATM   15  C   UNL     1     -44.656  59.637 -60.655  1.00  0.00     0.000 C 
HETATM   16  C   UNL     1     -45.363  59.449 -59.315  1.00  0.00     0.003 C 
HETATM   17  O   UNL     1     -42.983  55.685 -58.456  1.00  0.00    -0.268 OA
ENDBRANCH   2   5
BRANCH   1  18
HETATM   18  C   UNL     1     -41.459  54.480 -54.157  1.00  0.00     0.158 A 
HETATM   19  C   UNL     1     -41.125  54.317 -52.781  1.00  0.00     0.029 A 
HETATM   20  C   UNL     1     -41.433  54.982 -51.578  1.00  0.00     0.023 A 
HETATM   21  C   UNL     1     -40.314  53.190 -52.736  1.00  0.00     0.063 A 
HETATM   22  C   UNL     1     -40.922  54.489 -50.366  1.00  0.00    -0.061 A 
HETATM   23  C   UNL     1     -41.253  55.170 -49.068  1.00  0.00     0.048 C 
HETATM   24  C   UNL     1     -40.097  53.356 -50.366  1.00  0.00     0.009 A 
HETATM   25  C   UNL     1     -39.774  52.685 -51.551  1.00  0.00     0.032 A 
HETATM   26  N   UNL     1     -40.211  52.769 -54.032  1.00  0.00    -0.277 N 
HETATM   27  H   UNL     1     -39.688  51.970 -54.376  1.00  0.00     0.189 HD
HETATM   28  N   UNL     1     -40.908  53.506 -54.916  1.00  0.00    -0.168 NA
ENDBRANCH   1  18
TORSDOF 2
ENDMDL
MODEL 10
REMARK VINA RESULT:      -7.6     16.063     18.677
REMARK  2 active torsions:
REMARK  status: ('A' for Active; 'I' for Inactive)
REMARK    1  A    between atoms: C_9  and  C_10 
REMARK       I    between atoms: C_10  and  N_11 
REMARK    2  A    between atoms: N_11  and  N_12 
ROOT
HETATM    1  C   UNL     1     -36.122  40.657 -55.275  1.00  0.00     0.291 C 
HETATM    2  N   UNL     1     -34.881  41.068 -54.844  1.00  0.00    -0.251 N 
HETATM    3  O   UNL     1     -36.952  40.094 -54.565  1.00  0.00    -0.264 OA
HETATM    4  H   UNL     1     -34.216  41.438 -55.517  1.00  0.00     0.191 HD
ENDROOT
BRANCH   2   5
HETATM    5  N   UNL     1     -34.508  40.924 -53.525  1.00  0.00    -0.167 N 
HETATM    6  C   UNL     1     -35.025  41.705 -52.527  1.00  0.00     0.345 C 
HETATM    7  O   UNL     1     -35.760  42.674 -52.630  1.00  0.00    -0.245 OA
HETATM    8  N   UNL     1     -34.628  41.164 -51.320  1.00  0.00    -0.323 N 
HETATM    9  C   UNL     1     -33.918  39.908 -51.488  1.00  0.00     0.117 C 
HETATM   10  H   UNL     1     -34.943  41.561 -50.444  1.00  0.00     0.165 HD
HETATM   11  C   UNL     1     -34.677  38.735 -50.856  1.00  0.00     0.041 C 
HETATM   12  C   UNL     1     -32.478  40.012 -50.978  1.00  0.00     0.041 C 
HETATM   13  C   UNL     1     -33.952  39.771 -53.025  1.00  0.00     0.275 C 
HETATM   14  C   UNL     1     -34.593  38.744 -49.332  1.00  0.00     0.003 C 
HETATM   15  C   UNL     1     -33.148  38.822 -48.848  1.00  0.00     0.000 C 
HETATM   16  C   UNL     1     -32.412  40.016 -49.450  1.00  0.00     0.003 C 
HETATM   17  O   UNL     1     -33.595  38.780 -53.649  1.00  0.00    -0.268 OA
ENDBRANCH   2   5
BRANCH   1  18
HETATM   18  C   UNL     1     -36.346  40.973 -56.693  1.00  0.00     0.158 A 
HETATM   19  C   UNL     1     -36.999  40.163 -57.668  1.00  0.00     0.029 A 
HETATM   20  C   UNL     1     -37.624  38.901 -57.685  1.00  0.00     0.023 A 
HETATM   21  C   UNL     1     -36.968  40.911 -58.839  1.00  0.00     0.063 A 
HETATM   22  C   UNL     1     -38.204  38.432 -58.874  1.00  0.00    -0.061 A 
HETATM   23  C   UNL     1     -38.893  37.097 -58.910  1.00  0.00     0.048 C 
HETATM   24  C   UNL     1     -38.140  39.213 -60.036  1.00  0.00     0.009 A 
HETATM   25  C   UNL     1     -37.519  40.467 -60.043  1.00  0.00     0.032 A 
HETATM   26  N   UNL     1     -36.322  42.070 -58.510  1.00  0.00    -0.277 N 
HETATM   27  H   UNL     1     -36.115  42.850 -59.123  1.00  0.00     0.189 HD
HETATM   28  N   UNL     1     -35.953  42.156 -57.218  1.00  0.00    -0.168 NA
ENDBRANCH   1  18
TORSDOF 2
ENDMDL
