MODEL 1
REMARK VINA RESULT:      -7.5      0.000      0.000
REMARK  7 active torsions:
REMARK  status: ('A' for Active; 'I' for Inactive)
REMARK    1  A    between atoms: C_10  and  C_11 
REMARK       I    between atoms: C_11  and  N_12 
REMARK    2  A    between atoms: N_12  and  C_13 
REMARK    3  A    between atoms: C_13  and  C_14 
REMARK    4  A    between atoms: C_14  and  O_15 
REMARK    5  A    between atoms: C_14  and  C_16 
REMARK    6  A    between atoms: C_16  and  O_17 
REMARK    7  A    between atoms: O_17  and  C_18 
ROOT
HETATM    1  C   UNL     1     -41.539  58.680 -53.896  1.00  0.00     0.257 C 
HETATM    2  N   UNL     1     -42.348  58.038 -52.992  1.00  0.00    -0.354 N 
HETATM    3  O   UNL     1     -40.470  59.197 -53.581  1.00  0.00    -0.267 OA
HETATM    4  H   UNL     1     -43.273  57.751 -53.309  1.00  0.00     0.162 HD
ENDROOT
BRANCH   2   5
HETATM    5  C   UNL     1     -42.052  57.940 -51.576  1.00  0.00     0.156 C 
BRANCH   5   6
HETATM    6  C   UNL     1     -42.504  56.618 -50.942  1.00  0.00     0.160 C 
BRANCH   6   7
HETATM    7  O   UNL     1     -41.690  56.332 -49.794  1.00  0.00    -0.392 OA
HETATM    8  H   UNL     1     -42.061  56.867 -49.066  1.00  0.00     0.210 HD
ENDBRANCH   6   7
BRANCH   6   9
HETATM    9  C   UNL     1     -42.475  55.436 -51.919  1.00  0.00     0.209 C 
BRANCH   9  10
HETATM   10  O   UNL     1     -41.124  55.310 -52.391  1.00  0.00    -0.349 OA
BRANCH  10  11
HETATM   11  C   UNL     1     -40.695  54.047 -52.697  1.00  0.00     0.069 A 
HETATM   12  C   UNL     1     -40.783  53.713 -54.051  1.00  0.00     0.038 A 
HETATM   13  C   UNL     1     -40.372  52.457 -54.503  1.00  0.00     0.026 A 
HETATM   14  C   UNL     1     -39.860  51.534 -53.596  1.00  0.00     0.034 A 
HETATM   15 CL   UNL     1     -39.345  49.987 -54.145  1.00  0.00    -0.084 Cl
HETATM   16  C   UNL     1     -39.761  51.859 -52.244  1.00  0.00     0.026 A 
HETATM   17  C   UNL     1     -40.180  53.116 -51.793  1.00  0.00     0.038 A 
ENDBRANCH  10  11
ENDBRANCH   9  10
ENDBRANCH   6   9
ENDBRANCH   5   6
ENDBRANCH   2   5
BRANCH   1  18
HETATM   18  C   UNL     1     -42.048  58.728 -55.252  1.00  0.00     0.098 A 
HETATM   19  C   UNL     1     -42.433  57.679 -56.069  1.00  0.00     0.167 A 
HETATM   20  N   UNL     1     -42.842  58.253 -57.278  1.00  0.00    -0.226 N 
HETATM   21  N   UNL     1     -42.459  56.321 -55.867  1.00  0.00    -0.240 NA
HETATM   22  C   UNL     1     -43.285  57.456 -58.327  1.00  0.00     0.128 A 
HETATM   23  N   UNL     1     -42.740  59.603 -57.255  1.00  0.00    -0.178 NA
HETATM   24  C   UNL     1     -43.330  56.120 -58.200  1.00  0.00    -0.027 A 
HETATM   25  C   UNL     1     -43.773  55.147 -59.233  1.00  0.00     0.051 C 
HETATM   26  C   UNL     1     -42.880  55.606 -56.869  1.00  0.00     0.127 A 
HETATM   27  C   UNL     1     -42.262  59.876 -56.040  1.00  0.00     0.160 A 
ENDBRANCH   1  18
TORSDOF 7
ENDMDL
MODEL 2
REMARK VINA RESULT:      -7.5      3.378      6.787
REMARK  7 active torsions:
REMARK  status: ('A' for Active; 'I' for Inactive)
REMARK    1  A    between atoms: C_10  and  C_11 
REMARK       I    between atoms: C_11  and  N_12 
REMARK    2  A    between atoms: N_12  and  C_13 
REMARK    3  A    between atoms: C_13  and  C_14 
REMARK    4  A    between atoms: C_14  and  O_15 
REMARK    5  A    between atoms: C_14  and  C_16 
REMARK    6  A    between atoms: C_16  and  O_17 
REMARK    7  A    between atoms: O_17  and  C_18 
ROOT
HETATM    1  C   UNL     1     -41.711  55.830 -51.799  1.00  0.00     0.257 C 
HETATM    2  N   UNL     1     -42.927  55.687 -52.421  1.00  0.00    -0.354 N 
HETATM    3  O   UNL     1     -41.257  56.923 -51.471  1.00  0.00    -0.267 OA
HETATM    4  H   UNL     1     -43.170  54.762 -52.772  1.00  0.00     0.162 HD
ENDROOT
BRANCH   2   5
HETATM    5  C   UNL     1     -43.776  56.801 -52.791  1.00  0.00     0.156 C 
BRANCH   5   6
HETATM    6  C   UNL     1     -44.160  56.818 -54.276  1.00  0.00     0.160 C 
BRANCH   6   7
HETATM    7  O   UNL     1     -45.289  55.955 -54.491  1.00  0.00    -0.392 OA
HETATM    8  H   UNL     1     -45.741  55.891 -53.628  1.00  0.00     0.210 HD
ENDBRANCH   6   7
BRANCH   6   9
HETATM    9  C   UNL     1     -43.006  56.421 -55.205  1.00  0.00     0.209 C 
BRANCH   9  10
HETATM   10  O   UNL     1     -42.994  57.363 -56.290  1.00  0.00    -0.349 OA
BRANCH  10  11
HETATM   11  C   UNL     1     -43.579  56.962 -57.459  1.00  0.00     0.069 A 
HETATM   12  C   UNL     1     -43.080  55.765 -57.981  1.00  0.00     0.038 A 
HETATM   13  C   UNL     1     -43.594  55.236 -59.167  1.00  0.00     0.026 A 
HETATM   14  C   UNL     1     -44.619  55.904 -59.830  1.00  0.00     0.034 A 
HETATM   15 CL   UNL     1     -45.262  55.256 -61.288  1.00  0.00    -0.084 Cl
HETATM   16  C   UNL     1     -45.129  57.095 -59.316  1.00  0.00     0.026 A 
HETATM   17  C   UNL     1     -44.608  57.626 -58.131  1.00  0.00     0.038 A 
ENDBRANCH  10  11
ENDBRANCH   9  10
ENDBRANCH   6   9
ENDBRANCH   5   6
ENDBRANCH   2   5
BRANCH   1  18
HETATM   18  C   UNL     1     -40.985  54.596 -51.578  1.00  0.00     0.098 A 
HETATM   19  C   UNL     1     -40.748  53.560 -52.465  1.00  0.00     0.167 A 
HETATM   20  N   UNL     1     -40.007  52.603 -51.762  1.00  0.00    -0.226 N 
HETATM   21  N   UNL     1     -41.104  53.378 -53.778  1.00  0.00    -0.240 NA
HETATM   22  C   UNL     1     -39.612  51.421 -52.378  1.00  0.00     0.128 A 
HETATM   23  N   UNL     1     -39.763  52.990 -50.488  1.00  0.00    -0.178 NA
HETATM   24  C   UNL     1     -39.932  51.176 -53.659  1.00  0.00    -0.027 A 
HETATM   25  C   UNL     1     -39.584  49.960 -54.440  1.00  0.00     0.051 C 
HETATM   26  C   UNL     1     -40.717  52.262 -54.322  1.00  0.00     0.127 A 
HETATM   27  C   UNL     1     -40.354  54.182 -50.387  1.00  0.00     0.160 A 
ENDBRANCH   1  18
TORSDOF 7
ENDMDL
MODEL 3
REMARK VINA RESULT:      -7.5      1.685      2.004
REMARK  7 active torsions:
REMARK  status: ('A' for Active; 'I' for Inactive)
REMARK    1  A    between atoms: C_10  and  C_11 
REMARK       I    between atoms: C_11  and  N_12 
REMARK    2  A    between atoms: N_12  and  C_13 
REMARK    3  A    between atoms: C_13  and  C_14 
REMARK    4  A    between atoms: C_14  and  O_15 
REMARK    5  A    between atoms: C_14  and  C_16 
REMARK    6  A    between atoms: C_16  and  O_17 
REMARK    7  A    between atoms: O_17  and  C_18 
ROOT
HETATM    1  C   UNL     1     -44.091  57.783 -52.899  1.00  0.00     0.257 C 
HETATM    2  N   UNL     1     -44.002  56.474 -52.495  1.00  0.00    -0.354 N 
HETATM    3  O   UNL     1     -43.959  58.727 -52.126  1.00  0.00    -0.267 OA
HETATM    4  H   UNL     1     -44.250  55.754 -53.173  1.00  0.00     0.162 HD
ENDROOT
BRANCH   2   5
HETATM    5  C   UNL     1     -43.787  56.070 -51.120  1.00  0.00     0.156 C 
BRANCH   5   6
HETATM    6  C   UNL     1     -42.316  56.110 -50.688  1.00  0.00     0.160 C 
BRANCH   6   7
HETATM    7  O   UNL     1     -41.983  57.433 -50.237  1.00  0.00    -0.392 OA
HETATM    8  H   UNL     1     -42.452  57.550 -49.389  1.00  0.00     0.210 HD
ENDBRANCH   6   7
BRANCH   6   9
HETATM    9  C   UNL     1     -41.347  55.668 -51.792  1.00  0.00     0.209 C 
BRANCH   9  10
HETATM   10  O   UNL     1     -40.611  54.544 -51.283  1.00  0.00    -0.349 OA
BRANCH  10  11
HETATM   11  C   UNL     1     -40.398  53.506 -52.148  1.00  0.00     0.069 A 
HETATM   12  C   UNL     1     -39.793  52.383 -51.576  1.00  0.00     0.038 A 
HETATM   13  C   UNL     1     -39.524  51.249 -52.344  1.00  0.00     0.026 A 
HETATM   14  C   UNL     1     -39.873  51.234 -53.692  1.00  0.00     0.034 A 
HETATM   15 CL   UNL     1     -39.552  49.838 -54.645  1.00  0.00    -0.084 Cl
HETATM   16  C   UNL     1     -40.483  52.344 -54.272  1.00  0.00     0.026 A 
HETATM   17  C   UNL     1     -40.745  53.482 -53.501  1.00  0.00     0.038 A 
ENDBRANCH  10  11
ENDBRANCH   9  10
ENDBRANCH   6   9
ENDBRANCH   5   6
ENDBRANCH   2   5
BRANCH   1  18
HETATM   18  C   UNL     1     -44.379  57.974 -54.307  1.00  0.00     0.098 A 
HETATM   19  C   UNL     1     -43.893  57.267 -55.393  1.00  0.00     0.167 A 
HETATM   20  N   UNL     1     -44.471  57.847 -56.528  1.00  0.00    -0.226 N 
HETATM   21  N   UNL     1     -43.025  56.207 -55.484  1.00  0.00    -0.240 NA
HETATM   22  C   UNL     1     -44.174  57.365 -57.799  1.00  0.00     0.128 A 
HETATM   23  N   UNL     1     -45.296  58.870 -56.208  1.00  0.00    -0.178 NA
HETATM   24  C   UNL     1     -43.328  56.335 -57.960  1.00  0.00    -0.027 A 
HETATM   25  C   UNL     1     -42.916  55.722 -59.250  1.00  0.00     0.051 C 
HETATM   26  C   UNL     1     -42.771  55.782 -56.687  1.00  0.00     0.127 A 
HETATM   27  C   UNL     1     -45.233  58.939 -54.876  1.00  0.00     0.160 A 
ENDBRANCH   1  18
TORSDOF 7
ENDMDL
MODEL 4
REMARK VINA RESULT:      -7.4      1.559      2.593
REMARK  7 active torsions:
REMARK  status: ('A' for Active; 'I' for Inactive)
REMARK    1  A    between atoms: C_10  and  C_11 
REMARK       I    between atoms: C_11  and  N_12 
REMARK    2  A    between atoms: N_12  and  C_13 
REMARK    3  A    between atoms: C_13  and  C_14 
REMARK    4  A    between atoms: C_14  and  O_15 
REMARK    5  A    between atoms: C_14  and  C_16 
REMARK    6  A    between atoms: C_16  and  O_17 
REMARK    7  A    between atoms: O_17  and  C_18 
ROOT
HETATM    1  C   UNL     1     -42.431  56.679 -54.074  1.00  0.00     0.257 C 
HETATM    2  N   UNL     1     -43.405  56.038 -53.348  1.00  0.00    -0.354 N 
HETATM    3  O   UNL     1     -41.519  57.311 -53.549  1.00  0.00    -0.267 OA
HETATM    4  H   UNL     1     -44.193  55.646 -53.861  1.00  0.00     0.162 HD
ENDROOT
BRANCH   2   5
HETATM    5  C   UNL     1     -43.484  56.074 -51.901  1.00  0.00     0.156 C 
BRANCH   5   6
HETATM    6  C   UNL     1     -43.408  54.690 -51.245  1.00  0.00     0.160 C 
BRANCH   6   7
HETATM    7  O   UNL     1     -44.482  54.545 -50.301  1.00  0.00    -0.392 OA
HETATM    8  H   UNL     1     -45.235  55.038 -50.679  1.00  0.00     0.210 HD
ENDBRANCH   6   7
BRANCH   6   9
HETATM    9  C   UNL     1     -42.062  54.416 -50.562  1.00  0.00     0.209 C 
BRANCH   9  10
HETATM   10  O   UNL     1     -41.035  54.660 -51.537  1.00  0.00    -0.349 OA
BRANCH  10  11
HETATM   11  C   UNL     1     -40.639  53.591 -52.292  1.00  0.00     0.069 A 
HETATM   12  C   UNL     1     -40.019  52.565 -51.572  1.00  0.00     0.038 A 
HETATM   13  C   UNL     1     -39.571  51.411 -52.218  1.00  0.00     0.026 A 
HETATM   14  C   UNL     1     -39.753  51.278 -53.592  1.00  0.00     0.034 A 
HETATM   15 CL   UNL     1     -39.210  49.857 -54.395  1.00  0.00    -0.084 Cl
HETATM   16  C   UNL     1     -40.375  52.291 -54.319  1.00  0.00     0.026 A 
HETATM   17  C   UNL     1     -40.817  53.449 -53.670  1.00  0.00     0.038 A 
ENDBRANCH  10  11
ENDBRANCH   9  10
ENDBRANCH   6   9
ENDBRANCH   5   6
ENDBRANCH   2   5
BRANCH   1  18
HETATM   18  C   UNL     1     -42.570  56.578 -55.513  1.00  0.00     0.098 A 
HETATM   19  C   UNL     1     -42.440  57.573 -56.467  1.00  0.00     0.167 A 
HETATM   20  N   UNL     1     -42.675  56.962 -57.704  1.00  0.00    -0.226 N 
HETATM   21  N   UNL     1     -42.148  58.910 -56.363  1.00  0.00    -0.240 NA
HETATM   22  C   UNL     1     -42.628  57.703 -58.880  1.00  0.00     0.128 A 
HETATM   23  N   UNL     1     -42.937  55.641 -57.573  1.00  0.00    -0.178 NA
HETATM   24  C   UNL     1     -42.354  59.017 -58.850  1.00  0.00    -0.027 A 
HETATM   25  C   UNL     1     -42.276  59.931 -60.020  1.00  0.00     0.051 C 
HETATM   26  C   UNL     1     -42.111  59.571 -57.483  1.00  0.00     0.127 A 
HETATM   27  C   UNL     1     -42.874  55.421 -56.258  1.00  0.00     0.160 A 
ENDBRANCH   1  18
TORSDOF 7
ENDMDL
MODEL 5
REMARK VINA RESULT:      -7.3      1.934      2.927
REMARK  7 active torsions:
REMARK  status: ('A' for Active; 'I' for Inactive)
REMARK    1  A    between atoms: C_10  and  C_11 
REMARK       I    between atoms: C_11  and  N_12 
REMARK    2  A    between atoms: N_12  and  C_13 
REMARK    3  A    between atoms: C_13  and  C_14 
REMARK    4  A    between atoms: C_14  and  O_15 
REMARK    5  A    between atoms: C_14  and  C_16 
REMARK    6  A    between atoms: C_16  and  O_17 
REMARK    7  A    between atoms: O_17  and  C_18 
ROOT
HETATM    1  C   UNL     1     -41.976  57.271 -50.998  1.00  0.00     0.257 C 
HETATM    2  N   UNL     1     -42.114  56.111 -50.276  1.00  0.00    -0.354 N 
HETATM    3  O   UNL     1     -41.144  58.130 -50.721  1.00  0.00    -0.267 OA
HETATM    4  H   UNL     1     -42.910  55.513 -50.494  1.00  0.00     0.162 HD
ENDROOT
BRANCH   2   5
HETATM    5  C   UNL     1     -41.329  55.799 -49.098  1.00  0.00     0.156 C 
BRANCH   5   6
HETATM    6  C   UNL     1     -41.046  54.301 -48.925  1.00  0.00     0.160 C 
BRANCH   6   7
HETATM    7  O   UNL     1     -40.714  54.030 -47.554  1.00  0.00    -0.392 OA
HETATM    8  H   UNL     1     -39.891  54.525 -47.378  1.00  0.00     0.210 HD
ENDBRANCH   6   7
BRANCH   6   9
HETATM    9  C   UNL     1     -39.939  53.781 -49.851  1.00  0.00     0.209 C 
BRANCH   9  10
HETATM   10  O   UNL     1     -40.317  54.123 -51.194  1.00  0.00    -0.349 OA
BRANCH  10  11
HETATM   11  C   UNL     1     -40.205  53.135 -52.134  1.00  0.00     0.069 A 
HETATM   12  C   UNL     1     -39.666  51.936 -51.659  1.00  0.00     0.038 A 
HETATM   13  C   UNL     1     -39.502  50.841 -52.511  1.00  0.00     0.026 A 
HETATM   14  C   UNL     1     -39.889  50.945 -53.844  1.00  0.00     0.034 A 
HETATM   15 CL   UNL     1     -39.697  49.599 -54.898  1.00  0.00    -0.084 Cl
HETATM   16  C   UNL     1     -40.434  52.133 -54.327  1.00  0.00     0.026 A 
HETATM   17  C   UNL     1     -40.590  53.230 -53.473  1.00  0.00     0.038 A 
ENDBRANCH  10  11
ENDBRANCH   9  10
ENDBRANCH   6   9
ENDBRANCH   5   6
ENDBRANCH   2   5
BRANCH   1  18
HETATM   18  C   UNL     1     -42.904  57.423 -52.100  1.00  0.00     0.098 A 
HETATM   19  C   UNL     1     -42.739  57.064 -53.427  1.00  0.00     0.167 A 
HETATM   20  N   UNL     1     -43.921  57.428 -54.082  1.00  0.00    -0.226 N 
HETATM   21  N   UNL     1     -41.694  56.473 -54.094  1.00  0.00    -0.240 NA
HETATM   22  C   UNL     1     -44.072  57.207 -55.447  1.00  0.00     0.128 A 
HETATM   23  N   UNL     1     -44.816  57.987 -53.234  1.00  0.00    -0.178 NA
HETATM   24  C   UNL     1     -43.087  56.638 -56.161  1.00  0.00    -0.027 A 
HETATM   25  C   UNL     1     -43.106  56.348 -57.618  1.00  0.00     0.051 C 
HETATM   26  C   UNL     1     -41.870  56.281 -55.368  1.00  0.00     0.127 A 
HETATM   27  C   UNL     1     -44.198  57.981 -52.052  1.00  0.00     0.160 A 
ENDBRANCH   1  18
TORSDOF 7
ENDMDL
MODEL 6
REMARK VINA RESULT:      -7.1      3.424      6.654
REMARK  7 active torsions:
REMARK  status: ('A' for Active; 'I' for Inactive)
REMARK    1  A    between atoms: C_10  and  C_11 
REMARK       I    between atoms: C_11  and  N_12 
REMARK    2  A    between atoms: N_12  and  C_13 
REMARK    3  A    between atoms: C_13  and  C_14 
REMARK    4  A    between atoms: C_14  and  O_15 
REMARK    5  A    between atoms: C_14  and  C_16 
REMARK    6  A    between atoms: C_16  and  O_17 
REMARK    7  A    between atoms: O_17  and  C_18 
ROOT
HETATM    1  C   UNL     1     -42.267  55.449 -51.913  1.00  0.00     0.257 C 
HETATM    2  N   UNL     1     -42.708  55.556 -53.209  1.00  0.00    -0.354 N 
HETATM    3  O   UNL     1     -42.593  56.240 -51.033  1.00  0.00    -0.267 OA
HETATM    4  H   UNL     1     -42.290  54.937 -53.901  1.00  0.00     0.162 HD
ENDROOT
BRANCH   2   5
HETATM    5  C   UNL     1     -43.561  56.628 -53.682  1.00  0.00     0.156 C 
BRANCH   5   6
HETATM    6  C   UNL     1     -42.964  57.423 -54.850  1.00  0.00     0.160 C 
BRANCH   6   7
HETATM    7  O   UNL     1     -42.082  56.578 -55.606  1.00  0.00    -0.392 OA
HETATM    8  H   UNL     1     -41.232  56.586 -55.125  1.00  0.00     0.210 HD
ENDBRANCH   6   7
BRANCH   6   9
HETATM    9  C   UNL     1     -42.229  58.694 -54.406  1.00  0.00     0.209 C 
BRANCH   9  10
HETATM   10  O   UNL     1     -42.572  58.922 -53.029  1.00  0.00    -0.349 OA
BRANCH  10  11
HETATM   11  C   UNL     1     -41.535  59.161 -52.169  1.00  0.00     0.069 A 
HETATM   12  C   UNL     1     -40.267  58.905 -52.698  1.00  0.00     0.038 A 
HETATM   13  C   UNL     1     -39.119  59.114 -51.931  1.00  0.00     0.026 A 
HETATM   14  C   UNL     1     -39.241  59.590 -50.628  1.00  0.00     0.034 A 
HETATM   15 CL   UNL     1     -37.832  59.855 -49.678  1.00  0.00    -0.084 Cl
HETATM   16  C   UNL     1     -40.500  59.855 -50.092  1.00  0.00     0.026 A 
HETATM   17  C   UNL     1     -41.649  59.638 -50.862  1.00  0.00     0.038 A 
ENDBRANCH  10  11
ENDBRANCH   9  10
ENDBRANCH   6   9
ENDBRANCH   5   6
ENDBRANCH   2   5
BRANCH   1  18
HETATM   18  C   UNL     1     -41.365  54.344 -51.660  1.00  0.00     0.098 A 
HETATM   19  C   UNL     1     -40.987  53.322 -52.515  1.00  0.00     0.167 A 
HETATM   20  N   UNL     1     -40.106  52.511 -51.790  1.00  0.00    -0.226 N 
HETATM   21  N   UNL     1     -41.327  53.040 -53.815  1.00  0.00    -0.240 NA
HETATM   22  C   UNL     1     -39.547  51.377 -52.370  1.00  0.00     0.128 A 
HETATM   23  N   UNL     1     -39.908  52.976 -50.535  1.00  0.00    -0.178 NA
HETATM   24  C   UNL     1     -39.842  51.040 -53.636  1.00  0.00    -0.027 A 
HETATM   25  C   UNL     1     -39.327  49.860 -54.380  1.00  0.00     0.051 C 
HETATM   26  C   UNL     1     -40.785  51.974 -54.325  1.00  0.00     0.127 A 
HETATM   27  C   UNL     1     -40.666  54.072 -50.467  1.00  0.00     0.160 A 
ENDBRANCH   1  18
TORSDOF 7
ENDMDL
MODEL 7
REMARK VINA RESULT:      -7.1      1.898      2.928
REMARK  7 active torsions:
REMARK  status: ('A' for Active; 'I' for Inactive)
REMARK    1  A    between atoms: C_10  and  C_11 
REMARK       I    between atoms: C_11  and  N_12 
REMARK    2  A    between atoms: N_12  and  C_13 
REMARK    3  A    between atoms: C_13  and  C_14 
REMARK    4  A    between atoms: C_14  and  O_15 
REMARK    5  A    between atoms: C_14  and  C_16 
REMARK    6  A    between atoms: C_16  and  O_17 
REMARK    7  A    between atoms: O_17  and  C_18 
ROOT
HETATM    1  C   UNL     1     -42.661  56.129 -51.991  1.00  0.00     0.257 C 
HETATM    2  N   UNL     1     -41.394  55.937 -51.501  1.00  0.00    -0.354 N 
HETATM    3  O   UNL     1     -43.600  56.483 -51.284  1.00  0.00    -0.267 OA
HETATM    4  H   UNL     1     -40.705  55.521 -52.127  1.00  0.00     0.162 HD
ENDROOT
BRANCH   2   5
HETATM    5  C   UNL     1     -41.040  56.089 -50.104  1.00  0.00     0.156 C 
BRANCH   5   6
HETATM    6  C   UNL     1     -41.575  54.965 -49.207  1.00  0.00     0.160 C 
BRANCH   6   7
HETATM    7  O   UNL     1     -40.891  54.991 -47.944  1.00  0.00    -0.392 OA
HETATM    8  H   UNL     1     -41.345  54.333 -47.383  1.00  0.00     0.210 HD
ENDBRANCH   6   7
BRANCH   6   9
HETATM    9  C   UNL     1     -41.461  53.574 -49.843  1.00  0.00     0.209 C 
BRANCH   9  10
HETATM   10  O   UNL     1     -40.192  53.519 -50.514  1.00  0.00    -0.349 OA
BRANCH  10  11
HETATM   11  C   UNL     1     -40.040  52.545 -51.462  1.00  0.00     0.069 A 
HETATM   12  C   UNL     1     -40.220  52.979 -52.778  1.00  0.00     0.038 A 
HETATM   13  C   UNL     1     -40.087  52.090 -53.847  1.00  0.00     0.026 A 
HETATM   14  C   UNL     1     -39.762  50.760 -53.597  1.00  0.00     0.034 A 
HETATM   15 CL   UNL     1     -39.589  49.659 -54.907  1.00  0.00    -0.084 Cl
HETATM   16  C   UNL     1     -39.572  50.317 -52.289  1.00  0.00     0.026 A 
HETATM   17  C   UNL     1     -39.713  51.209 -51.220  1.00  0.00     0.038 A 
ENDBRANCH  10  11
ENDBRANCH   9  10
ENDBRANCH   6   9
ENDBRANCH   5   6
ENDBRANCH   2   5
BRANCH   1  18
HETATM   18  C   UNL     1     -42.821  55.859 -53.406  1.00  0.00     0.098 A 
HETATM   19  C   UNL     1     -42.638  56.716 -54.477  1.00  0.00     0.167 A 
HETATM   20  N   UNL     1     -42.924  55.973 -55.628  1.00  0.00    -0.226 N 
HETATM   21  N   UNL     1     -42.262  58.035 -54.543  1.00  0.00    -0.240 NA
HETATM   22  C   UNL     1     -42.843  56.557 -56.888  1.00  0.00     0.128 A 
HETATM   23  N   UNL     1     -43.267  54.697 -55.332  1.00  0.00    -0.178 NA
HETATM   24  C   UNL     1     -42.486  57.844 -57.023  1.00  0.00    -0.027 A 
HETATM   25  C   UNL     1     -42.363  58.598 -58.298  1.00  0.00     0.051 C 
HETATM   26  C   UNL     1     -42.195  58.548 -55.736  1.00  0.00     0.127 A 
HETATM   27  C   UNL     1     -43.204  54.640 -54.001  1.00  0.00     0.160 A 
ENDBRANCH   1  18
TORSDOF 7
ENDMDL
MODEL 8
REMARK VINA RESULT:      -7.0      2.988      6.187
REMARK  7 active torsions:
REMARK  status: ('A' for Active; 'I' for Inactive)
REMARK    1  A    between atoms: C_10  and  C_11 
REMARK       I    between atoms: C_11  and  N_12 
REMARK    2  A    between atoms: N_12  and  C_13 
REMARK    3  A    between atoms: C_13  and  C_14 
REMARK    4  A    between atoms: C_14  and  O_15 
REMARK    5  A    between atoms: C_14  and  C_16 
REMARK    6  A    between atoms: C_16  and  O_17 
REMARK    7  A    between atoms: O_17  and  C_18 
ROOT
HETATM    1  C   UNL     1     -41.182  56.278 -53.116  1.00  0.00     0.257 C 
HETATM    2  N   UNL     1     -42.244  56.334 -52.248  1.00  0.00    -0.354 N 
HETATM    3  O   UNL     1     -40.629  57.283 -53.554  1.00  0.00    -0.267 OA
HETATM    4  H   UNL     1     -42.724  55.461 -52.035  1.00  0.00     0.162 HD
ENDROOT
BRANCH   2   5
HETATM    5  C   UNL     1     -42.847  57.572 -51.794  1.00  0.00     0.156 C 
BRANCH   5   6
HETATM    6  C   UNL     1     -44.343  57.683 -52.113  1.00  0.00     0.160 C 
BRANCH   6   7
HETATM    7  O   UNL     1     -45.086  56.803 -51.253  1.00  0.00    -0.392 OA
HETATM    8  H   UNL     1     -44.943  55.905 -51.607  1.00  0.00     0.210 HD
ENDBRANCH   6   7
BRANCH   6   9
HETATM    9  C   UNL     1     -44.673  57.390 -53.582  1.00  0.00     0.209 C 
BRANCH   9  10
HETATM   10  O   UNL     1     -43.795  58.199 -54.382  1.00  0.00    -0.349 OA
BRANCH  10  11
HETATM   11  C   UNL     1     -43.483  57.721 -55.625  1.00  0.00     0.069 A 
HETATM   12  C   UNL     1     -43.201  58.707 -56.575  1.00  0.00     0.038 A 
HETATM   13  C   UNL     1     -42.859  58.359 -57.884  1.00  0.00     0.026 A 
HETATM   14  C   UNL     1     -42.791  57.015 -58.242  1.00  0.00     0.034 A 
HETATM   15 CL   UNL     1     -42.366  56.577 -59.850  1.00  0.00    -0.084 Cl
HETATM   16  C   UNL     1     -43.064  56.023 -57.302  1.00  0.00     0.026 A 
HETATM   17  C   UNL     1     -43.413  56.376 -55.993  1.00  0.00     0.038 A 
ENDBRANCH  10  11
ENDBRANCH   9  10
ENDBRANCH   6   9
ENDBRANCH   5   6
ENDBRANCH   2   5
BRANCH   1  18
HETATM   18  C   UNL     1     -40.773  54.943 -53.502  1.00  0.00     0.098 A 
HETATM   19  C   UNL     1     -40.501  53.853 -52.692  1.00  0.00     0.167 A 
HETATM   20  N   UNL     1     -40.144  52.807 -53.550  1.00  0.00    -0.226 N 
HETATM   21  N   UNL     1     -40.531  53.693 -51.328  1.00  0.00    -0.240 NA
HETATM   22  C   UNL     1     -39.797  51.560 -53.041  1.00  0.00     0.128 A 
HETATM   23  N   UNL     1     -40.187  53.182 -54.850  1.00  0.00    -0.178 NA
HETATM   24  C   UNL     1     -39.800  51.337 -51.716  1.00  0.00    -0.027 A 
HETATM   25  C   UNL     1     -39.449  50.064 -51.034  1.00  0.00     0.051 C 
HETATM   26  C   UNL     1     -40.202  52.514 -50.888  1.00  0.00     0.127 A 
HETATM   27  C   UNL     1     -40.563  54.462 -54.810  1.00  0.00     0.160 A 
ENDBRANCH   1  18
TORSDOF 7
ENDMDL
MODEL 9
REMARK VINA RESULT:      -7.0      2.329      4.988
REMARK  7 active torsions:
REMARK  status: ('A' for Active; 'I' for Inactive)
REMARK    1  A    between atoms: C_10  and  C_11 
REMARK       I    between atoms: C_11  and  N_12 
REMARK    2  A    between atoms: N_12  and  C_13 
REMARK    3  A    between atoms: C_13  and  C_14 
REMARK    4  A    between atoms: C_14  and  O_15 
REMARK    5  A    between atoms: C_14  and  C_16 
REMARK    6  A    between atoms: C_16  and  O_17 
REMARK    7  A    between atoms: O_17  and  C_18 
ROOT
HETATM    1  C   UNL     1     -43.562  57.758 -54.186  1.00  0.00     0.257 C 
HETATM    2  N   UNL     1     -42.497  57.198 -54.847  1.00  0.00    -0.354 N 
HETATM    3  O   UNL     1     -44.709  57.717 -54.622  1.00  0.00    -0.267 OA
HETATM    4  H   UNL     1     -41.565  57.387 -54.482  1.00  0.00     0.162 HD
ENDROOT
BRANCH   2   5
HETATM    5  C   UNL     1     -42.604  56.542 -56.135  1.00  0.00     0.156 C 
BRANCH   5   6
HETATM    6  C   UNL     1     -42.437  55.019 -56.068  1.00  0.00     0.160 C 
BRANCH   6   7
HETATM    7  O   UNL     1     -43.538  54.445 -55.345  1.00  0.00    -0.392 OA
HETATM    8  H   UNL     1     -44.013  55.198 -54.946  1.00  0.00     0.210 HD
ENDBRANCH   6   7
BRANCH   6   9
HETATM    9  C   UNL     1     -41.106  54.582 -55.441  1.00  0.00     0.209 C 
BRANCH   9  10
HETATM   10  O   UNL     1     -41.250  54.704 -54.017  1.00  0.00    -0.349 OA
BRANCH  10  11
HETATM   11  C   UNL     1     -40.787  53.661 -53.262  1.00  0.00     0.069 A 
HETATM   12  C   UNL     1     -40.339  52.561 -53.998  1.00  0.00     0.038 A 
HETATM   13  C   UNL     1     -39.834  51.430 -53.353  1.00  0.00     0.026 A 
HETATM   14  C   UNL     1     -39.768  51.404 -51.962  1.00  0.00     0.034 A 
HETATM   15 CL   UNL     1     -39.141  50.018 -51.160  1.00  0.00    -0.084 Cl
HETATM   16  C   UNL     1     -40.205  52.498 -51.218  1.00  0.00     0.026 A 
HETATM   17  C   UNL     1     -40.717  53.628 -51.867  1.00  0.00     0.038 A 
ENDBRANCH  10  11
ENDBRANCH   9  10
ENDBRANCH   6   9
ENDBRANCH   5   6
ENDBRANCH   2   5
BRANCH   1  18
HETATM   18  C   UNL     1     -43.232  58.427 -52.944  1.00  0.00     0.098 A 
HETATM   19  C   UNL     1     -41.983  58.705 -52.416  1.00  0.00     0.167 A 
HETATM   20  N   UNL     1     -42.209  59.358 -51.199  1.00  0.00    -0.226 N 
HETATM   21  N   UNL     1     -40.715  58.450 -52.876  1.00  0.00    -0.240 NA
HETATM   22  C   UNL     1     -41.142  59.766 -50.405  1.00  0.00     0.128 A 
HETATM   23  N   UNL     1     -43.530  59.509 -50.944  1.00  0.00    -0.178 NA
HETATM   24  C   UNL     1     -39.876  59.544 -50.793  1.00  0.00    -0.027 A 
HETATM   25  C   UNL     1     -38.645  59.918 -50.050  1.00  0.00     0.051 C 
HETATM   26  C   UNL     1     -39.742  58.847 -52.110  1.00  0.00     0.127 A 
HETATM   27  C   UNL     1     -44.133  58.948 -51.994  1.00  0.00     0.160 A 
ENDBRANCH   1  18
TORSDOF 7
ENDMDL
MODEL 10
REMARK VINA RESULT:      -6.7      3.166      6.381
REMARK  7 active torsions:
REMARK  status: ('A' for Active; 'I' for Inactive)
REMARK    1  A    between atoms: C_10  and  C_11 
REMARK       I    between atoms: C_11  and  N_12 
REMARK    2  A    between atoms: N_12  and  C_13 
REMARK    3  A    between atoms: C_13  and  C_14 
REMARK    4  A    between atoms: C_14  and  O_15 
REMARK    5  A    between atoms: C_14  and  C_16 
REMARK    6  A    between atoms: C_16  and  O_17 
REMARK    7  A    between atoms: O_17  and  C_18 
ROOT
HETATM    1  C   UNL     1     -43.589  56.564 -52.909  1.00  0.00     0.257 C 
HETATM    2  N   UNL     1     -43.637  56.599 -54.281  1.00  0.00    -0.354 N 
HETATM    3  O   UNL     1     -44.339  57.231 -52.201  1.00  0.00    -0.267 OA
HETATM    4  H   UNL     1     -42.899  56.115 -54.790  1.00  0.00     0.162 HD
ENDROOT
BRANCH   2   5
HETATM    5  C   UNL     1     -44.538  57.449 -55.033  1.00  0.00     0.156 C 
BRANCH   5   6
HETATM    6  C   UNL     1     -43.823  58.506 -55.884  1.00  0.00     0.160 C 
BRANCH   6   7
HETATM    7  O   UNL     1     -44.335  58.469 -57.226  1.00  0.00    -0.392 OA
HETATM    8  H   UNL     1     -44.079  57.598 -57.584  1.00  0.00     0.210 HD
ENDBRANCH   6   7
BRANCH   6   9
HETATM    9  C   UNL     1     -42.297  58.345 -55.895  1.00  0.00     0.209 C 
BRANCH   9  10
HETATM   10  O   UNL     1     -41.743  59.542 -55.324  1.00  0.00    -0.349 OA
BRANCH  10  11
HETATM   11  C   UNL     1     -41.629  59.576 -53.961  1.00  0.00     0.069 A 
HETATM   12  C   UNL     1     -40.588  58.800 -53.442  1.00  0.00     0.038 A 
HETATM   13  C   UNL     1     -40.354  58.751 -52.067  1.00  0.00     0.026 A 
HETATM   14  C   UNL     1     -41.160  59.489 -51.205  1.00  0.00     0.034 A 
HETATM   15 CL   UNL     1     -40.875  59.439 -49.510  1.00  0.00    -0.084 Cl
HETATM   16  C   UNL     1     -42.197  60.272 -51.711  1.00  0.00     0.026 A 
HETATM   17  C   UNL     1     -42.433  60.315 -53.090  1.00  0.00     0.038 A 
ENDBRANCH  10  11
ENDBRANCH   9  10
ENDBRANCH   6   9
ENDBRANCH   5   6
ENDBRANCH   2   5
BRANCH   1  18
HETATM   18  C   UNL     1     -42.570  55.698 -52.352  1.00  0.00     0.098 A 
HETATM   19  C   UNL     1     -41.963  54.594 -52.925  1.00  0.00     0.167 A 
HETATM   20  N   UNL     1     -41.056  54.108 -51.977  1.00  0.00    -0.226 N 
HETATM   21  N   UNL     1     -42.121  53.993 -54.150  1.00  0.00    -0.240 NA
HETATM   22  C   UNL     1     -40.283  52.983 -52.246  1.00  0.00     0.128 A 
HETATM   23  N   UNL     1     -41.059  54.854 -50.847  1.00  0.00    -0.178 NA
HETATM   24  C   UNL     1     -40.392  52.344 -53.422  1.00  0.00    -0.027 A 
HETATM   25  C   UNL     1     -39.639  51.134 -53.843  1.00  0.00     0.051 C 
HETATM   26  C   UNL     1     -41.382  52.945 -54.368  1.00  0.00     0.127 A 
HETATM   27  C   UNL     1     -41.969  55.801 -51.081  1.00  0.00     0.160 A 
ENDBRANCH   1  18
TORSDOF 7
ENDMDL
