MODEL 1
REMARK VINA RESULT:      -9.3      0.000      0.000
REMARK  5 active torsions:
REMARK  status: ('A' for Active; 'I' for Inactive)
REMARK    1  A    between atoms: O_2  and  C_3 
REMARK    2  A    between atoms: C_5  and  O_6 
REMARK    3  A    between atoms: C_9  and  N_10 
REMARK       I    between atoms: N_10  and  C_11 
REMARK    4  A    between atoms: C_11  and  C_12 
REMARK    5  A    between atoms: C_20  and  C_21 
ROOT
HETATM    1  C   UNL     1     -42.067  55.744 -54.154  1.00  0.00     0.047 A 
HETATM    2  C   UNL     1     -41.801  56.511 -52.993  1.00  0.00     0.008 A 
HETATM    3  C   UNL     1     -41.223  55.809 -51.918  1.00  0.00     0.068 A 
HETATM    4  C   UNL     1     -40.990  56.476 -50.723  1.00  0.00     0.032 A 
HETATM    5  C   UNL     1     -41.277  57.832 -50.562  1.00  0.00     0.002 A 
HETATM    6  C   UNL     1     -41.789  58.553 -51.628  1.00  0.00     0.001 A 
HETATM    7  C   UNL     1     -42.037  57.904 -52.837  1.00  0.00     0.015 A 
HETATM    8  N   UNL     1     -40.866  54.518 -51.992  1.00  0.00    -0.248 NA
HETATM    9  C   UNL     1     -41.035  53.829 -53.147  1.00  0.00     0.068 A 
HETATM   10  C   UNL     1     -41.661  54.409 -54.235  1.00  0.00     0.050 A 
ENDROOT
BRANCH   1  11
HETATM   11  C   UNL     1     -42.771  56.270 -55.357  1.00  0.00     0.257 C 
HETATM   12  N   UNL     1     -41.981  56.434 -56.481  1.00  0.00    -0.323 N 
HETATM   13  H   UNL     1     -41.006  56.175 -56.402  1.00  0.00     0.169 HD
HETATM   14  O   UNL     1     -43.963  56.536 -55.253  1.00  0.00    -0.267 OA
BRANCH  12  15
HETATM   15  C   UNL     1     -42.403  56.845 -57.763  1.00  0.00     0.040 A 
HETATM   16  C   UNL     1     -43.055  56.007 -58.676  1.00  0.00     0.066 A 
HETATM   17  C   UNL     1     -43.444  56.492 -59.931  1.00  0.00     0.073 A 
HETATM   18  C   UNL     1     -43.121  57.797 -60.300  1.00  0.00     0.073 A 
HETATM   19  C   UNL     1     -42.449  58.618 -59.403  1.00  0.00     0.073 A 
HETATM   20  C   UNL     1     -42.132  58.169 -58.123  1.00  0.00     0.066 A 
BRANCH  17  21
HETATM   21  O   UNL     1     -44.121  55.776 -60.884  1.00  0.00    -0.356 OA
HETATM   22  C   UNL     1     -44.944  54.717 -60.404  1.00  0.00     0.210 C 
ENDBRANCH  17  21
BRANCH  19  23
HETATM   23  O   UNL     1     -42.136  59.903 -59.756  1.00  0.00    -0.356 OA
HETATM   24  C   UNL     1     -41.727  60.633 -58.597  1.00  0.00     0.210 C 
ENDBRANCH  19  23
ENDBRANCH  12  15
ENDBRANCH   1  11
BRANCH   9  25
HETATM   25  C   UNL     1     -40.500  52.450 -53.157  1.00  0.00    -0.007 A 
HETATM   26  C   UNL     1     -40.591  51.648 -54.310  1.00  0.00     0.014 A 
HETATM   27  C   UNL     1     -40.112  50.335 -54.330  1.00  0.00     0.001 A 
HETATM   28  C   UNL     1     -39.531  49.788 -53.190  1.00  0.00     0.000 A 
HETATM   29  C   UNL     1     -39.431  50.554 -52.033  1.00  0.00     0.001 A 
HETATM   30  C   UNL     1     -39.911  51.868 -52.016  1.00  0.00     0.014 A 
ENDBRANCH   9  25
TORSDOF 5
ENDMDL
MODEL 2
REMARK VINA RESULT:      -9.1      0.614      2.218
REMARK  5 active torsions:
REMARK  status: ('A' for Active; 'I' for Inactive)
REMARK    1  A    between atoms: O_2  and  C_3 
REMARK    2  A    between atoms: C_5  and  O_6 
REMARK    3  A    between atoms: C_9  and  N_10 
REMARK       I    between atoms: N_10  and  C_11 
REMARK    4  A    between atoms: C_11  and  C_12 
REMARK    5  A    between atoms: C_20  and  C_21 
ROOT
HETATM    1  C   UNL     1     -42.125  55.734 -54.102  1.00  0.00     0.047 A 
HETATM    2  C   UNL     1     -41.831  56.504 -52.949  1.00  0.00     0.008 A 
HETATM    3  C   UNL     1     -41.219  55.806 -51.891  1.00  0.00     0.068 A 
HETATM    4  C   UNL     1     -40.956  56.474 -50.704  1.00  0.00     0.032 A 
HETATM    5  C   UNL     1     -41.245  57.829 -50.535  1.00  0.00     0.002 A 
HETATM    6  C   UNL     1     -41.790  58.547 -51.587  1.00  0.00     0.001 A 
HETATM    7  C   UNL     1     -42.069  57.895 -52.788  1.00  0.00     0.015 A 
HETATM    8  N   UNL     1     -40.858  54.515 -51.974  1.00  0.00    -0.248 NA
HETATM    9  C   UNL     1     -41.056  53.825 -53.123  1.00  0.00     0.068 A 
HETATM   10  C   UNL     1     -41.715  54.401 -54.193  1.00  0.00     0.050 A 
ENDROOT
BRANCH   1  11
HETATM   11  C   UNL     1     -42.866  56.255 -55.285  1.00  0.00     0.257 C 
HETATM   12  N   UNL     1     -42.110  56.418 -56.432  1.00  0.00    -0.323 N 
HETATM   13  H   UNL     1     -41.131  56.161 -56.381  1.00  0.00     0.169 HD
HETATM   14  O   UNL     1     -44.054  56.518 -55.147  1.00  0.00    -0.267 OA
BRANCH  12  15
HETATM   15  C   UNL     1     -42.570  56.824 -57.703  1.00  0.00     0.040 A 
HETATM   16  C   UNL     1     -42.612  58.157 -58.129  1.00  0.00     0.066 A 
HETATM   17  C   UNL     1     -43.080  58.478 -59.408  1.00  0.00     0.073 A 
HETATM   18  C   UNL     1     -43.571  57.472 -60.239  1.00  0.00     0.073 A 
HETATM   19  C   UNL     1     -43.555  56.152 -59.803  1.00  0.00     0.073 A 
HETATM   20  C   UNL     1     -43.013  55.817 -58.565  1.00  0.00     0.066 A 
BRANCH  17  21
HETATM   21  O   UNL     1     -43.128  59.739 -59.944  1.00  0.00    -0.356 OA
HETATM   22  C   UNL     1     -43.959  59.901 -61.089  1.00  0.00     0.210 C 
ENDBRANCH  17  21
BRANCH  19  23
HETATM   23  O   UNL     1     -44.028  55.159 -60.617  1.00  0.00    -0.356 OA
HETATM   24  C   UNL     1     -45.389  55.427 -60.961  1.00  0.00     0.210 C 
ENDBRANCH  19  23
ENDBRANCH  12  15
ENDBRANCH   1  11
BRANCH   9  25
HETATM   25  C   UNL     1     -40.514  52.448 -53.147  1.00  0.00    -0.007 A 
HETATM   26  C   UNL     1     -40.591  51.662 -54.311  1.00  0.00     0.014 A 
HETATM   27  C   UNL     1     -40.106  50.351 -54.344  1.00  0.00     0.001 A 
HETATM   28  C   UNL     1     -39.532  49.792 -53.207  1.00  0.00     0.000 A 
HETATM   29  C   UNL     1     -39.446  50.543 -52.039  1.00  0.00     0.001 A 
HETATM   30  C   UNL     1     -39.933  51.854 -52.009  1.00  0.00     0.014 A 
ENDBRANCH   9  25
TORSDOF 5
ENDMDL
MODEL 3
REMARK VINA RESULT:      -8.4      2.756      7.981
REMARK  5 active torsions:
REMARK  status: ('A' for Active; 'I' for Inactive)
REMARK    1  A    between atoms: O_2  and  C_3 
REMARK    2  A    between atoms: C_5  and  O_6 
REMARK    3  A    between atoms: C_9  and  N_10 
REMARK       I    between atoms: N_10  and  C_11 
REMARK    4  A    between atoms: C_11  and  C_12 
REMARK    5  A    between atoms: C_20  and  C_21 
ROOT
HETATM    1  C   UNL     1     -41.744  56.274 -55.359  1.00  0.00     0.047 A 
HETATM    2  C   UNL     1     -41.901  57.621 -54.948  1.00  0.00     0.008 A 
HETATM    3  C   UNL     1     -42.627  58.446 -55.829  1.00  0.00     0.068 A 
HETATM    4  C   UNL     1     -42.770  59.793 -55.528  1.00  0.00     0.032 A 
HETATM    5  C   UNL     1     -42.249  60.353 -54.361  1.00  0.00     0.002 A 
HETATM    6  C   UNL     1     -41.585  59.544 -53.453  1.00  0.00     0.001 A 
HETATM    7  C   UNL     1     -41.423  58.188 -53.736  1.00  0.00     0.015 A 
HETATM    8  N   UNL     1     -43.207  57.991 -56.950  1.00  0.00    -0.248 NA
HETATM    9  C   UNL     1     -43.132  56.677 -57.271  1.00  0.00     0.068 A 
HETATM   10  C   UNL     1     -42.381  55.801 -56.510  1.00  0.00     0.050 A 
ENDROOT
BRANCH   1  11
HETATM   11  C   UNL     1     -40.922  55.270 -54.627  1.00  0.00     0.257 C 
HETATM   12  N   UNL     1     -41.521  54.717 -53.509  1.00  0.00    -0.323 N 
HETATM   13  H   UNL     1     -42.461  55.023 -53.288  1.00  0.00     0.169 HD
HETATM   14  O   UNL     1     -39.795  55.037 -55.046  1.00  0.00    -0.267 OA
BRANCH  12  15
HETATM   15  C   UNL     1     -41.000  53.700 -52.681  1.00  0.00     0.040 A 
HETATM   16  C   UNL     1     -40.958  53.775 -51.284  1.00  0.00     0.066 A 
HETATM   17  C   UNL     1     -40.426  52.720 -50.532  1.00  0.00     0.073 A 
HETATM   18  C   UNL     1     -39.874  51.617 -51.181  1.00  0.00     0.073 A 
HETATM   19  C   UNL     1     -39.892  51.557 -52.570  1.00  0.00     0.073 A 
HETATM   20  C   UNL     1     -40.493  52.564 -53.320  1.00  0.00     0.066 A 
BRANCH  17  21
HETATM   21  O   UNL     1     -40.371  52.669 -49.164  1.00  0.00    -0.356 OA
HETATM   22  C   UNL     1     -40.468  53.918 -48.486  1.00  0.00     0.210 C 
ENDBRANCH  17  21
BRANCH  19  23
HETATM   23  O   UNL     1     -39.359  50.472 -53.213  1.00  0.00    -0.356 OA
HETATM   24  C   UNL     1     -40.185  50.119 -54.324  1.00  0.00     0.210 C 
ENDBRANCH  19  23
ENDBRANCH  12  15
ENDBRANCH   1  11
BRANCH   9  25
HETATM   25  C   UNL     1     -43.906  56.261 -58.462  1.00  0.00    -0.007 A 
HETATM   26  C   UNL     1     -44.772  57.161 -59.110  1.00  0.00     0.014 A 
HETATM   27  C   UNL     1     -45.529  56.779 -60.222  1.00  0.00     0.001 A 
HETATM   28  C   UNL     1     -45.439  55.480 -60.712  1.00  0.00     0.000 A 
HETATM   29  C   UNL     1     -44.595  54.566 -60.090  1.00  0.00     0.001 A 
HETATM   30  C   UNL     1     -43.839  54.951 -58.977  1.00  0.00     0.014 A 
ENDBRANCH   9  25
TORSDOF 5
ENDMDL
MODEL 4
REMARK VINA RESULT:      -8.4      2.749      7.706
REMARK  5 active torsions:
REMARK  status: ('A' for Active; 'I' for Inactive)
REMARK    1  A    between atoms: O_2  and  C_3 
REMARK    2  A    between atoms: C_5  and  O_6 
REMARK    3  A    between atoms: C_9  and  N_10 
REMARK       I    between atoms: N_10  and  C_11 
REMARK    4  A    between atoms: C_11  and  C_12 
REMARK    5  A    between atoms: C_20  and  C_21 
ROOT
HETATM    1  C   UNL     1     -41.792  56.472 -55.365  1.00  0.00     0.047 A 
HETATM    2  C   UNL     1     -41.995  57.802 -54.920  1.00  0.00     0.008 A 
HETATM    3  C   UNL     1     -42.783  58.612 -55.760  1.00  0.00     0.068 A 
HETATM    4  C   UNL     1     -42.976  59.944 -55.426  1.00  0.00     0.032 A 
HETATM    5  C   UNL     1     -42.445  60.503 -54.262  1.00  0.00     0.002 A 
HETATM    6  C   UNL     1     -41.719  59.705 -53.392  1.00  0.00     0.001 A 
HETATM    7  C   UNL     1     -41.506  58.364 -53.710  1.00  0.00     0.015 A 
HETATM    8  N   UNL     1     -43.377  58.155 -56.874  1.00  0.00    -0.248 NA
HETATM    9  C   UNL     1     -43.254  56.852 -57.227  1.00  0.00     0.068 A 
HETATM   10  C   UNL     1     -42.442  55.995 -56.507  1.00  0.00     0.050 A 
ENDROOT
BRANCH   1  11
HETATM   11  C   UNL     1     -40.905  55.490 -54.680  1.00  0.00     0.257 C 
HETATM   12  N   UNL     1     -41.526  54.686 -53.741  1.00  0.00    -0.323 N 
HETATM   13  H   UNL     1     -42.521  54.816 -53.606  1.00  0.00     0.169 HD
HETATM   14  O   UNL     1     -39.716  55.489 -54.975  1.00  0.00    -0.267 OA
BRANCH  12  15
HETATM   15  C   UNL     1     -40.943  53.634 -53.004  1.00  0.00     0.040 A 
HETATM   16  C   UNL     1     -40.463  52.451 -53.578  1.00  0.00     0.066 A 
HETATM   17  C   UNL     1     -39.894  51.453 -52.777  1.00  0.00     0.073 A 
HETATM   18  C   UNL     1     -39.866  51.610 -51.392  1.00  0.00     0.073 A 
HETATM   19  C   UNL     1     -40.369  52.773 -50.822  1.00  0.00     0.073 A 
HETATM   20  C   UNL     1     -40.860  53.804 -51.619  1.00  0.00     0.066 A 
BRANCH  17  21
HETATM   21  O   UNL     1     -39.357  50.277 -53.233  1.00  0.00    -0.356 OA
HETATM   22  C   UNL     1     -39.825  49.827 -54.500  1.00  0.00     0.210 C 
ENDBRANCH  17  21
BRANCH  19  23
HETATM   23  O   UNL     1     -40.337  52.936 -49.463  1.00  0.00    -0.356 OA
HETATM   24  C   UNL     1     -40.276  54.329 -49.148  1.00  0.00     0.210 C 
ENDBRANCH  19  23
ENDBRANCH  12  15
ENDBRANCH   1  11
BRANCH   9  25
HETATM   25  C   UNL     1     -44.045  56.428 -58.403  1.00  0.00    -0.007 A 
HETATM   26  C   UNL     1     -45.153  57.179 -58.837  1.00  0.00     0.014 A 
HETATM   27  C   UNL     1     -45.926  56.780 -59.931  1.00  0.00     0.001 A 
HETATM   28  C   UNL     1     -45.609  55.613 -60.619  1.00  0.00     0.000 A 
HETATM   29  C   UNL     1     -44.522  54.847 -60.212  1.00  0.00     0.001 A 
HETATM   30  C   UNL     1     -43.750  55.249 -59.116  1.00  0.00     0.014 A 
ENDBRANCH   9  25
TORSDOF 5
ENDMDL
MODEL 5
REMARK VINA RESULT:      -8.0      2.593      7.775
REMARK  5 active torsions:
REMARK  status: ('A' for Active; 'I' for Inactive)
REMARK    1  A    between atoms: O_2  and  C_3 
REMARK    2  A    between atoms: C_5  and  O_6 
REMARK    3  A    between atoms: C_9  and  N_10 
REMARK       I    between atoms: N_10  and  C_11 
REMARK    4  A    between atoms: C_11  and  C_12 
REMARK    5  A    between atoms: C_20  and  C_21 
ROOT
HETATM    1  C   UNL     1     -42.367  56.603 -54.287  1.00  0.00     0.047 A 
HETATM    2  C   UNL     1     -42.319  57.844 -53.605  1.00  0.00     0.008 A 
HETATM    3  C   UNL     1     -42.329  58.990 -54.424  1.00  0.00     0.068 A 
HETATM    4  C   UNL     1     -42.220  60.242 -53.835  1.00  0.00     0.032 A 
HETATM    5  C   UNL     1     -42.139  60.407 -52.451  1.00  0.00     0.002 A 
HETATM    6  C   UNL     1     -42.191  59.294 -51.627  1.00  0.00     0.001 A 
HETATM    7  C   UNL     1     -42.293  58.025 -52.196  1.00  0.00     0.015 A 
HETATM    8  N   UNL     1     -42.453  58.937 -55.759  1.00  0.00    -0.248 NA
HETATM    9  C   UNL     1     -42.601  57.743 -56.383  1.00  0.00     0.068 A 
HETATM   10  C   UNL     1     -42.532  56.558 -55.675  1.00  0.00     0.050 A 
ENDROOT
BRANCH   1  11
HETATM   11  C   UNL     1     -42.259  55.278 -53.615  1.00  0.00     0.257 C 
HETATM   12  N   UNL     1     -40.968  54.845 -53.365  1.00  0.00    -0.323 N 
HETATM   13  H   UNL     1     -40.213  55.459 -53.642  1.00  0.00     0.169 HD
HETATM   14  O   UNL     1     -43.295  54.676 -53.364  1.00  0.00    -0.267 OA
BRANCH  12  15
HETATM   15  C   UNL     1     -40.583  53.671 -52.683  1.00  0.00     0.040 A 
HETATM   16  C   UNL     1     -40.204  52.485 -53.323  1.00  0.00     0.066 A 
HETATM   17  C   UNL     1     -39.832  51.362 -52.574  1.00  0.00     0.073 A 
HETATM   18  C   UNL     1     -39.904  51.404 -51.182  1.00  0.00     0.073 A 
HETATM   19  C   UNL     1     -40.308  52.574 -50.549  1.00  0.00     0.073 A 
HETATM   20  C   UNL     1     -40.599  53.719 -51.286  1.00  0.00     0.066 A 
BRANCH  17  21
HETATM   21  O   UNL     1     -39.406  50.167 -53.091  1.00  0.00    -0.356 OA
HETATM   22  C   UNL     1     -39.660  49.959 -54.477  1.00  0.00     0.210 C 
ENDBRANCH  17  21
BRANCH  19  23
HETATM   23  O   UNL     1     -40.373  52.623 -49.183  1.00  0.00    -0.356 OA
HETATM   24  C   UNL     1     -40.198  53.972 -48.743  1.00  0.00     0.210 C 
ENDBRANCH  19  23
ENDBRANCH  12  15
ENDBRANCH   1  11
BRANCH   9  25
HETATM   25  C   UNL     1     -42.850  57.806 -57.840  1.00  0.00    -0.007 A 
HETATM   26  C   UNL     1     -41.856  58.269 -58.723  1.00  0.00     0.014 A 
HETATM   27  C   UNL     1     -42.082  58.358 -60.099  1.00  0.00     0.001 A 
HETATM   28  C   UNL     1     -43.313  57.987 -60.628  1.00  0.00     0.000 A 
HETATM   29  C   UNL     1     -44.317  57.531 -59.781  1.00  0.00     0.001 A 
HETATM   30  C   UNL     1     -44.089  57.443 -58.404  1.00  0.00     0.014 A 
ENDBRANCH   9  25
TORSDOF 5
ENDMDL
MODEL 6
REMARK VINA RESULT:      -7.8      3.450      6.713
REMARK  5 active torsions:
REMARK  status: ('A' for Active; 'I' for Inactive)
REMARK    1  A    between atoms: O_2  and  C_3 
REMARK    2  A    between atoms: C_5  and  O_6 
REMARK    3  A    between atoms: C_9  and  N_10 
REMARK       I    between atoms: N_10  and  C_11 
REMARK    4  A    between atoms: C_11  and  C_12 
REMARK    5  A    between atoms: C_20  and  C_21 
ROOT
HETATM    1  C   UNL     1     -41.846  57.452 -54.368  1.00  0.00     0.047 A 
HETATM    2  C   UNL     1     -42.480  57.236 -55.617  1.00  0.00     0.008 A 
HETATM    3  C   UNL     1     -42.350  55.940 -56.151  1.00  0.00     0.068 A 
HETATM    4  C   UNL     1     -42.889  55.666 -57.400  1.00  0.00     0.032 A 
HETATM    5  C   UNL     1     -43.590  56.626 -58.132  1.00  0.00     0.002 A 
HETATM    6  C   UNL     1     -43.781  57.889 -57.595  1.00  0.00     0.001 A 
HETATM    7  C   UNL     1     -43.243  58.189 -56.345  1.00  0.00     0.015 A 
HETATM    8  N   UNL     1     -41.738  54.937 -55.502  1.00  0.00    -0.248 NA
HETATM    9  C   UNL     1     -41.228  55.138 -54.262  1.00  0.00     0.068 A 
HETATM   10  C   UNL     1     -41.241  56.393 -53.683  1.00  0.00     0.050 A 
ENDROOT
BRANCH   1  11
HETATM   11  C   UNL     1     -41.773  58.775 -53.688  1.00  0.00     0.257 C 
HETATM   12  N   UNL     1     -42.954  59.210 -53.111  1.00  0.00    -0.323 N 
HETATM   13  H   UNL     1     -43.757  58.597 -53.183  1.00  0.00     0.169 HD
HETATM   14  O   UNL     1     -40.706  59.375 -53.714  1.00  0.00    -0.267 OA
BRANCH  12  15
HETATM   15  C   UNL     1     -43.146  60.382 -52.349  1.00  0.00     0.040 A 
HETATM   16  C   UNL     1     -42.935  61.675 -52.841  1.00  0.00     0.066 A 
HETATM   17  C   UNL     1     -43.151  62.790 -52.021  1.00  0.00     0.073 A 
HETATM   18  C   UNL     1     -43.514  62.608 -50.687  1.00  0.00     0.073 A 
HETATM   19  C   UNL     1     -43.695  61.322 -50.193  1.00  0.00     0.073 A 
HETATM   20  C   UNL     1     -43.563  60.213 -51.025  1.00  0.00     0.066 A 
BRANCH  17  21
HETATM   21  O   UNL     1     -43.016  64.098 -52.407  1.00  0.00    -0.356 OA
HETATM   22  C   UNL     1     -43.060  64.345 -53.809  1.00  0.00     0.210 C 
ENDBRANCH  17  21
BRANCH  19  23
HETATM   23  O   UNL     1     -44.059  61.138 -48.887  1.00  0.00    -0.356 OA
HETATM   24  C   UNL     1     -44.733  62.304 -48.408  1.00  0.00     0.210 C 
ENDBRANCH  19  23
ENDBRANCH  12  15
ENDBRANCH   1  11
BRANCH   9  25
HETATM   25  C   UNL     1     -40.682  53.938 -53.590  1.00  0.00    -0.007 A 
HETATM   26  C   UNL     1     -40.548  53.893 -52.190  1.00  0.00     0.014 A 
HETATM   27  C   UNL     1     -40.012  52.778 -51.540  1.00  0.00     0.001 A 
HETATM   28  C   UNL     1     -39.593  51.676 -52.279  1.00  0.00     0.000 A 
HETATM   29  C   UNL     1     -39.709  51.692 -53.665  1.00  0.00     0.001 A 
HETATM   30  C   UNL     1     -40.245  52.810 -54.313  1.00  0.00     0.014 A 
ENDBRANCH   9  25
TORSDOF 5
ENDMDL
MODEL 7
REMARK VINA RESULT:      -7.7      3.563      6.655
REMARK  5 active torsions:
REMARK  status: ('A' for Active; 'I' for Inactive)
REMARK    1  A    between atoms: O_2  and  C_3 
REMARK    2  A    between atoms: C_5  and  O_6 
REMARK    3  A    between atoms: C_9  and  N_10 
REMARK       I    between atoms: N_10  and  C_11 
REMARK    4  A    between atoms: C_11  and  C_12 
REMARK    5  A    between atoms: C_20  and  C_21 
ROOT
HETATM    1  C   UNL     1     -42.765  56.978 -54.348  1.00  0.00     0.047 A 
HETATM    2  C   UNL     1     -43.123  56.787 -55.706  1.00  0.00     0.008 A 
HETATM    3  C   UNL     1     -42.598  55.632 -56.318  1.00  0.00     0.068 A 
HETATM    4  C   UNL     1     -42.850  55.407 -57.663  1.00  0.00     0.032 A 
HETATM    5  C   UNL     1     -43.640  56.269 -58.425  1.00  0.00     0.002 A 
HETATM    6  C   UNL     1     -44.216  57.377 -57.825  1.00  0.00     0.001 A 
HETATM    7  C   UNL     1     -43.971  57.629 -56.476  1.00  0.00     0.015 A 
HETATM    8  N   UNL     1     -41.869  54.719 -55.658  1.00  0.00    -0.248 NA
HETATM    9  C   UNL     1     -41.625  54.869 -54.333  1.00  0.00     0.068 A 
HETATM   10  C   UNL     1     -42.036  56.005 -53.659  1.00  0.00     0.050 A 
ENDROOT
BRANCH   1  11
HETATM   11  C   UNL     1     -43.126  58.185 -53.554  1.00  0.00     0.257 C 
HETATM   12  N   UNL     1     -44.425  58.214 -53.077  1.00  0.00    -0.323 N 
HETATM   13  H   UNL     1     -45.014  57.418 -53.291  1.00  0.00     0.169 HD
HETATM   14  O   UNL     1     -42.273  59.052 -53.409  1.00  0.00    -0.267 OA
BRANCH  12  15
HETATM   15  C   UNL     1     -45.003  59.196 -52.245  1.00  0.00     0.040 A 
HETATM   16  C   UNL     1     -45.133  59.066 -50.858  1.00  0.00     0.066 A 
HETATM   17  C   UNL     1     -45.718  60.088 -50.100  1.00  0.00     0.073 A 
HETATM   18  C   UNL     1     -46.234  61.214 -50.740  1.00  0.00     0.073 A 
HETATM   19  C   UNL     1     -46.130  61.329 -52.121  1.00  0.00     0.073 A 
HETATM   20  C   UNL     1     -45.476  60.355 -52.870  1.00  0.00     0.066 A 
BRANCH  17  21
HETATM   21  O   UNL     1     -45.860  60.086 -48.737  1.00  0.00    -0.356 OA
HETATM   22  C   UNL     1     -45.593  61.320 -48.079  1.00  0.00     0.210 C 
ENDBRANCH  17  21
BRANCH  19  23
HETATM   23  O   UNL     1     -46.627  62.436 -52.753  1.00  0.00    -0.356 OA
HETATM   24  C   UNL     1     -47.694  62.991 -51.980  1.00  0.00     0.210 C 
ENDBRANCH  19  23
ENDBRANCH  12  15
ENDBRANCH   1  11
BRANCH   9  25
HETATM   25  C   UNL     1     -40.916  53.747 -53.679  1.00  0.00    -0.007 A 
HETATM   26  C   UNL     1     -40.507  52.622 -54.419  1.00  0.00     0.014 A 
HETATM   27  C   UNL     1     -39.857  51.543 -53.813  1.00  0.00     0.001 A 
HETATM   28  C   UNL     1     -39.602  51.562 -52.446  1.00  0.00     0.000 A 
HETATM   29  C   UNL     1     -39.999  52.658 -51.687  1.00  0.00     0.001 A 
HETATM   30  C   UNL     1     -40.649  53.737 -52.295  1.00  0.00     0.014 A 
ENDBRANCH   9  25
TORSDOF 5
ENDMDL
MODEL 8
REMARK VINA RESULT:      -7.7      1.937      2.791
REMARK  5 active torsions:
REMARK  status: ('A' for Active; 'I' for Inactive)
REMARK    1  A    between atoms: O_2  and  C_3 
REMARK    2  A    between atoms: C_5  and  O_6 
REMARK    3  A    between atoms: C_9  and  N_10 
REMARK       I    between atoms: N_10  and  C_11 
REMARK    4  A    between atoms: C_11  and  C_12 
REMARK    5  A    between atoms: C_20  and  C_21 
ROOT
HETATM    1  C   UNL     1     -42.846  57.675 -53.718  1.00  0.00     0.047 A 
HETATM    2  C   UNL     1     -42.825  58.906 -53.017  1.00  0.00     0.008 A 
HETATM    3  C   UNL     1     -42.414  58.834 -51.672  1.00  0.00     0.068 A 
HETATM    4  C   UNL     1     -42.427  59.987 -50.900  1.00  0.00     0.032 A 
HETATM    5  C   UNL     1     -42.798  61.227 -51.423  1.00  0.00     0.002 A 
HETATM    6  C   UNL     1     -43.146  61.327 -52.760  1.00  0.00     0.001 A 
HETATM    7  C   UNL     1     -43.147  60.182 -53.555  1.00  0.00     0.015 A 
HETATM    8  N   UNL     1     -41.993  57.699 -51.093  1.00  0.00    -0.248 NA
HETATM    9  C   UNL     1     -41.924  56.553 -51.811  1.00  0.00     0.068 A 
HETATM   10  C   UNL     1     -42.372  56.504 -53.118  1.00  0.00     0.050 A 
ENDROOT
BRANCH   1  11
HETATM   11  C   UNL     1     -43.349  57.518 -55.111  1.00  0.00     0.257 C 
HETATM   12  N   UNL     1     -42.378  57.287 -56.069  1.00  0.00    -0.323 N 
HETATM   13  H   UNL     1     -41.418  57.230 -55.750  1.00  0.00     0.169 HD
HETATM   14  O   UNL     1     -44.554  57.629 -55.302  1.00  0.00    -0.267 OA
BRANCH  12  15
HETATM   15  C   UNL     1     -42.581  57.033 -57.442  1.00  0.00     0.040 A 
HETATM   16  C   UNL     1     -43.207  55.884 -57.939  1.00  0.00     0.066 A 
HETATM   17  C   UNL     1     -43.374  55.706 -59.318  1.00  0.00     0.073 A 
HETATM   18  C   UNL     1     -42.854  56.648 -60.205  1.00  0.00     0.073 A 
HETATM   19  C   UNL     1     -42.208  57.775 -59.710  1.00  0.00     0.073 A 
HETATM   20  C   UNL     1     -42.112  57.998 -58.339  1.00  0.00     0.066 A 
BRANCH  17  21
HETATM   21  O   UNL     1     -44.004  54.645 -59.913  1.00  0.00    -0.356 OA
HETATM   22  C   UNL     1     -45.070  54.968 -60.801  1.00  0.00     0.210 C 
ENDBRANCH  17  21
BRANCH  19  23
HETATM   23  O   UNL     1     -41.703  58.707 -60.576  1.00  0.00    -0.356 OA
HETATM   24  C   UNL     1     -42.478  59.905 -60.497  1.00  0.00     0.210 C 
ENDBRANCH  19  23
ENDBRANCH  12  15
ENDBRANCH   1  11
BRANCH   9  25
HETATM   25  C   UNL     1     -41.333  55.390 -51.111  1.00  0.00    -0.007 A 
HETATM   26  C   UNL     1     -41.070  54.191 -51.797  1.00  0.00     0.014 A 
HETATM   27  C   UNL     1     -40.536  53.075 -51.146  1.00  0.00     0.001 A 
HETATM   28  C   UNL     1     -40.253  53.132 -49.786  1.00  0.00     0.000 A 
HETATM   29  C   UNL     1     -40.507  54.302 -49.078  1.00  0.00     0.001 A 
HETATM   30  C   UNL     1     -41.043  55.417 -49.732  1.00  0.00     0.014 A 
ENDBRANCH   9  25
TORSDOF 5
ENDMDL
MODEL 9
REMARK VINA RESULT:      -7.7      1.291      2.780
REMARK  5 active torsions:
REMARK  status: ('A' for Active; 'I' for Inactive)
REMARK    1  A    between atoms: O_2  and  C_3 
REMARK    2  A    between atoms: C_5  and  O_6 
REMARK    3  A    between atoms: C_9  and  N_10 
REMARK       I    between atoms: N_10  and  C_11 
REMARK    4  A    between atoms: C_11  and  C_12 
REMARK    5  A    between atoms: C_20  and  C_21 
ROOT
HETATM    1  C   UNL     1     -42.063  57.290 -54.165  1.00  0.00     0.047 A 
HETATM    2  C   UNL     1     -41.838  58.033 -52.979  1.00  0.00     0.008 A 
HETATM    3  C   UNL     1     -41.349  57.298 -51.883  1.00  0.00     0.068 A 
HETATM    4  C   UNL     1     -41.163  57.940 -50.667  1.00  0.00     0.032 A 
HETATM    5  C   UNL     1     -41.410  59.304 -50.503  1.00  0.00     0.002 A 
HETATM    6  C   UNL     1     -41.833  60.056 -51.587  1.00  0.00     0.001 A 
HETATM    7  C   UNL     1     -42.033  59.432 -52.817  1.00  0.00     0.015 A 
HETATM    8  N   UNL     1     -41.034  55.995 -51.954  1.00  0.00    -0.248 NA
HETATM    9  C   UNL     1     -41.160  55.327 -53.127  1.00  0.00     0.068 A 
HETATM   10  C   UNL     1     -41.700  55.942 -54.241  1.00  0.00     0.050 A 
ENDROOT
BRANCH   1  11
HETATM   11  C   UNL     1     -42.677  57.855 -55.398  1.00  0.00     0.257 C 
HETATM   12  N   UNL     1     -41.784  58.209 -56.395  1.00  0.00    -0.323 N 
HETATM   13  H   UNL     1     -40.801  58.045 -56.215  1.00  0.00     0.169 HD
HETATM   14  O   UNL     1     -43.894  57.986 -55.425  1.00  0.00    -0.267 OA
BRANCH  12  15
HETATM   15  C   UNL     1     -42.096  58.697 -57.681  1.00  0.00     0.040 A 
HETATM   16  C   UNL     1     -41.746  59.973 -58.139  1.00  0.00     0.066 A 
HETATM   17  C   UNL     1     -42.091  60.382 -59.433  1.00  0.00     0.073 A 
HETATM   18  C   UNL     1     -42.847  59.540 -60.247  1.00  0.00     0.073 A 
HETATM   19  C   UNL     1     -43.218  58.284 -59.780  1.00  0.00     0.073 A 
HETATM   20  C   UNL     1     -42.807  57.839 -58.527  1.00  0.00     0.066 A 
BRANCH  17  21
HETATM   21  O   UNL     1     -41.767  61.588 -59.998  1.00  0.00    -0.356 OA
HETATM   22  C   UNL     1     -41.485  61.568 -61.394  1.00  0.00     0.210 C 
ENDBRANCH  17  21
BRANCH  19  23
HETATM   23  O   UNL     1     -43.953  57.449 -60.578  1.00  0.00    -0.356 OA
HETATM   24  C   UNL     1     -43.860  56.111 -60.086  1.00  0.00     0.210 C 
ENDBRANCH  19  23
ENDBRANCH  12  15
ENDBRANCH   1  11
BRANCH   9  25
HETATM   25  C   UNL     1     -40.674  53.929 -53.125  1.00  0.00    -0.007 A 
HETATM   26  C   UNL     1     -40.772  53.129 -54.279  1.00  0.00     0.014 A 
HETATM   27  C   UNL     1     -40.341  51.799 -54.288  1.00  0.00     0.001 A 
HETATM   28  C   UNL     1     -39.801  51.235 -53.137  1.00  0.00     0.000 A 
HETATM   29  C   UNL     1     -39.695  51.998 -51.979  1.00  0.00     0.001 A 
HETATM   30  C   UNL     1     -40.128  53.329 -51.973  1.00  0.00     0.014 A 
ENDBRANCH   9  25
TORSDOF 5
ENDMDL
MODEL 10
REMARK VINA RESULT:      -7.7      3.017      7.845
REMARK  5 active torsions:
REMARK  status: ('A' for Active; 'I' for Inactive)
REMARK    1  A    between atoms: O_2  and  C_3 
REMARK    2  A    between atoms: C_5  and  O_6 
REMARK    3  A    between atoms: C_9  and  N_10 
REMARK       I    between atoms: N_10  and  C_11 
REMARK    4  A    between atoms: C_11  and  C_12 
REMARK    5  A    between atoms: C_20  and  C_21 
ROOT
HETATM    1  C   UNL     1     -43.054  57.106 -54.239  1.00  0.00     0.047 A 
HETATM    2  C   UNL     1     -43.767  57.999 -53.400  1.00  0.00     0.008 A 
HETATM    3  C   UNL     1     -44.718  58.812 -54.045  1.00  0.00     0.068 A 
HETATM    4  C   UNL     1     -45.413  59.757 -53.303  1.00  0.00     0.032 A 
HETATM    5  C   UNL     1     -45.227  59.903 -51.927  1.00  0.00     0.002 A 
HETATM    6  C   UNL     1     -44.340  59.069 -51.265  1.00  0.00     0.001 A 
HETATM    7  C   UNL     1     -43.625  58.117 -51.991  1.00  0.00     0.015 A 
HETATM    8  N   UNL     1     -45.003  58.713 -55.353  1.00  0.00    -0.248 NA
HETATM    9  C   UNL     1     -44.382  57.782 -56.117  1.00  0.00     0.068 A 
HETATM   10  C   UNL     1     -43.381  56.985 -55.593  1.00  0.00     0.050 A 
ENDROOT
BRANCH   1  11
HETATM   11  C   UNL     1     -41.934  56.240 -53.774  1.00  0.00     0.257 C 
HETATM   12  N   UNL     1     -42.307  54.994 -53.302  1.00  0.00    -0.323 N 
HETATM   13  H   UNL     1     -43.294  54.768 -53.322  1.00  0.00     0.169 HD
HETATM   14  O   UNL     1     -40.799  56.697 -53.820  1.00  0.00    -0.267 OA
BRANCH  12  15
HETATM   15  C   UNL     1     -41.452  53.958 -52.870  1.00  0.00     0.040 A 
HETATM   16  C   UNL     1     -40.859  53.026 -53.730  1.00  0.00     0.066 A 
HETATM   17  C   UNL     1     -40.019  52.027 -53.224  1.00  0.00     0.073 A 
HETATM   18  C   UNL     1     -39.824  51.919 -51.847  1.00  0.00     0.073 A 
HETATM   19  C   UNL     1     -40.436  52.828 -50.993  1.00  0.00     0.073 A 
HETATM   20  C   UNL     1     -41.206  53.874 -51.496  1.00  0.00     0.066 A 
BRANCH  17  21
HETATM   21  O   UNL     1     -39.356  51.091 -53.973  1.00  0.00    -0.356 OA
HETATM   22  C   UNL     1     -39.637  49.729 -53.663  1.00  0.00     0.210 C 
ENDBRANCH  17  21
BRANCH  19  23
HETATM   23  O   UNL     1     -40.242  52.732 -49.641  1.00  0.00    -0.356 OA
HETATM   24  C   UNL     1     -40.590  53.970 -49.017  1.00  0.00     0.210 C 
ENDBRANCH  19  23
ENDBRANCH  12  15
ENDBRANCH   1  11
BRANCH   9  25
HETATM   25  C   UNL     1     -44.856  57.678 -57.515  1.00  0.00    -0.007 A 
HETATM   26  C   UNL     1     -44.034  57.131 -58.517  1.00  0.00     0.014 A 
HETATM   27  C   UNL     1     -44.456  57.047 -59.847  1.00  0.00     0.001 A 
HETATM   28  C   UNL     1     -45.716  57.514 -60.208  1.00  0.00     0.000 A 
HETATM   29  C   UNL     1     -46.550  58.065 -59.241  1.00  0.00     0.001 A 
HETATM   30  C   UNL     1     -46.124  58.148 -57.911  1.00  0.00     0.014 A 
ENDBRANCH   9  25
TORSDOF 5
ENDMDL
