MODEL 1
REMARK VINA RESULT:      -9.0      0.000      0.000
REMARK  3 active torsions:
REMARK  status: ('A' for Active; 'I' for Inactive)
REMARK    1  A    between atoms: N_7  and  N_8 
REMARK       I    between atoms: N_8  and  C_9 
REMARK    2  A    between atoms: C_9  and  C_10 
REMARK    3  A    between atoms: C_14  and  C_15 
ROOT
HETATM    1  C   UNL     1     -44.186  58.315 -51.616  1.00  0.00     0.121 A 
HETATM    2  N   UNL     1     -45.347  57.920 -51.011  1.00  0.00    -0.272 N 
HETATM    3  H   UNL     1     -45.794  57.011 -51.089  1.00  0.00     0.189 HD
HETATM    4  N   UNL     1     -45.916  58.864 -50.243  1.00  0.00    -0.178 NA
HETATM    5  C   UNL     1     -45.095  59.917 -50.349  1.00  0.00     0.066 A 
HETATM    6  C   UNL     1     -43.999  59.618 -51.202  1.00  0.00     0.066 A 
ENDROOT
BRANCH   1   7
HETATM    7  C   UNL     1     -43.438  57.427 -52.473  1.00  0.00     0.289 C 
HETATM    8  N   UNL     1     -43.625  56.084 -52.196  1.00  0.00    -0.241 N 
HETATM    9  H   UNL     1     -44.245  55.802 -51.438  1.00  0.00     0.192 HD
HETATM   10  O   UNL     1     -42.706  57.859 -53.360  1.00  0.00    -0.264 OA
BRANCH   8  11
HETATM   11  N   UNL     1     -42.998  55.111 -52.926  1.00  0.00    -0.165 NA
HETATM   12  C   UNL     1     -42.088  54.433 -52.301  1.00  0.00     0.157 A 
HETATM   13  C   UNL     1     -41.291  53.349 -52.862  1.00  0.00     0.027 A 
HETATM   14  C   UNL     1     -41.620  54.586 -50.848  1.00  0.00     0.277 A 
HETATM   15  C   UNL     1     -41.291  52.788 -54.121  1.00  0.00     0.016 A 
HETATM   16  C   UNL     1     -40.442  52.912 -51.845  1.00  0.00     0.048 A 
HETATM   17  C   UNL     1     -40.392  51.742 -54.346  1.00  0.00     0.001 A 
HETATM   18  C   UNL     1     -39.530  51.295 -53.322  1.00  0.00     0.002 A 
HETATM   19  C   UNL     1     -39.549  51.883 -52.051  1.00  0.00     0.030 A 
HETATM   20  N   UNL     1     -40.638  53.637 -50.672  1.00  0.00    -0.321 N 
HETATM   21  H   UNL     1     -40.142  53.503 -49.803  1.00  0.00     0.169 HD
HETATM   22  O   UNL     1     -42.065  55.395 -50.061  1.00  0.00    -0.266 OA
ENDBRANCH   8  11
ENDBRANCH   1   7
BRANCH   5  23
HETATM   23  C   UNL     1     -45.363  61.221 -49.621  1.00  0.00     0.007 C 
HETATM   24  C   UNL     1     -44.116  62.151 -49.578  1.00  0.00     0.020 C 
HETATM   25  C   UNL     1     -44.427  63.462 -48.835  1.00  0.00    -0.013 C 
HETATM   26  C   UNL     1     -44.857  63.139 -47.395  1.00  0.00     0.009 C 
HETATM   27  C   UNL     1     -45.570  64.194 -49.555  1.00  0.00     0.009 C 
HETATM   28  C   UNL     1     -46.110  62.249 -47.411  1.00  0.00    -0.013 C 
HETATM   29  C   UNL     1     -45.793  60.939 -48.153  1.00  0.00     0.020 C 
HETATM   30  C   UNL     1     -47.247  62.983 -48.139  1.00  0.00     0.009 C 
HETATM   31  C   UNL     1     -46.825  63.310 -49.580  1.00  0.00    -0.013 C 
HETATM   32  C   UNL     1     -46.509  62.001 -50.324  1.00  0.00     0.020 C 
ENDBRANCH   5  23
TORSDOF 3
ENDMDL
MODEL 2
REMARK VINA RESULT:      -8.9      2.138      2.768
REMARK  3 active torsions:
REMARK  status: ('A' for Active; 'I' for Inactive)
REMARK    1  A    between atoms: N_7  and  N_8 
REMARK       I    between atoms: N_8  and  C_9 
REMARK    2  A    between atoms: C_9  and  C_10 
REMARK    3  A    between atoms: C_14  and  C_15 
ROOT
HETATM    1  C   UNL     1     -41.899  57.826 -53.605  1.00  0.00     0.121 A 
HETATM    2  N   UNL     1     -41.030  58.880 -53.660  1.00  0.00    -0.272 N 
HETATM    3  H   UNL     1     -40.125  58.898 -54.121  1.00  0.00     0.189 HD
HETATM    4  N   UNL     1     -41.462  59.983 -53.026  1.00  0.00    -0.178 NA
HETATM    5  C   UNL     1     -42.661  59.638 -52.539  1.00  0.00     0.066 A 
HETATM    6  C   UNL     1     -42.973  58.294 -52.875  1.00  0.00     0.066 A 
ENDROOT
BRANCH   1   7
HETATM    7  C   UNL     1     -41.600  56.563 -54.236  1.00  0.00     0.289 C 
HETATM    8  N   UNL     1     -41.268  55.553 -53.350  1.00  0.00    -0.241 N 
HETATM    9  H   UNL     1     -41.246  55.742 -52.348  1.00  0.00     0.192 HD
HETATM   10  O   UNL     1     -41.646  56.431 -55.457  1.00  0.00    -0.264 OA
BRANCH   8  11
HETATM   11  N   UNL     1     -40.970  54.291 -53.785  1.00  0.00    -0.165 NA
HETATM   12  C   UNL     1     -40.583  53.454 -52.875  1.00  0.00     0.157 A 
HETATM   13  C   UNL     1     -40.217  52.060 -53.093  1.00  0.00     0.027 A 
HETATM   14  C   UNL     1     -40.412  53.700 -51.371  1.00  0.00     0.277 A 
HETATM   15  C   UNL     1     -40.188  51.305 -54.246  1.00  0.00     0.016 A 
HETATM   16  C   UNL     1     -39.866  51.542 -51.846  1.00  0.00     0.048 A 
HETATM   17  C   UNL     1     -39.787  49.972 -54.118  1.00  0.00     0.001 A 
HETATM   18  C   UNL     1     -39.430  49.442 -52.860  1.00  0.00     0.002 A 
HETATM   19  C   UNL     1     -39.467  50.231 -51.703  1.00  0.00     0.030 A 
HETATM   20  N   UNL     1     -39.981  52.503 -50.845  1.00  0.00    -0.321 N 
HETATM   21  H   UNL     1     -39.783  52.364 -49.865  1.00  0.00     0.169 HD
HETATM   22  O   UNL     1     -40.630  54.756 -50.815  1.00  0.00    -0.266 OA
ENDBRANCH   8  11
ENDBRANCH   1   7
BRANCH   5  23
HETATM   23  C   UNL     1     -43.516  60.608 -51.746  1.00  0.00     0.007 C 
HETATM   24  C   UNL     1     -43.473  62.054 -52.320  1.00  0.00     0.020 C 
HETATM   25  C   UNL     1     -44.353  63.007 -51.492  1.00  0.00    -0.013 C 
HETATM   26  C   UNL     1     -43.845  63.032 -50.041  1.00  0.00     0.009 C 
HETATM   27  C   UNL     1     -45.804  62.504 -51.515  1.00  0.00     0.009 C 
HETATM   28  C   UNL     1     -43.911  61.620 -49.439  1.00  0.00    -0.013 C 
HETATM   29  C   UNL     1     -43.030  60.672 -50.270  1.00  0.00     0.020 C 
HETATM   30  C   UNL     1     -45.365  61.120 -49.472  1.00  0.00     0.009 C 
HETATM   31  C   UNL     1     -45.879  61.091 -50.919  1.00  0.00    -0.013 C 
HETATM   32  C   UNL     1     -44.999  60.142 -51.751  1.00  0.00     0.020 C 
ENDBRANCH   5  23
TORSDOF 3
ENDMDL
MODEL 3
REMARK VINA RESULT:      -8.8      1.741      2.620
REMARK  3 active torsions:
REMARK  status: ('A' for Active; 'I' for Inactive)
REMARK    1  A    between atoms: N_7  and  N_8 
REMARK       I    between atoms: N_8  and  C_9 
REMARK    2  A    between atoms: C_9  and  C_10 
REMARK    3  A    between atoms: C_14  and  C_15 
ROOT
HETATM    1  C   UNL     1     -42.669  57.435 -52.166  1.00  0.00     0.121 A 
HETATM    2  N   UNL     1     -41.660  57.950 -51.400  1.00  0.00    -0.272 N 
HETATM    3  H   UNL     1     -40.759  57.520 -51.214  1.00  0.00     0.189 HD
HETATM    4  N   UNL     1     -41.935  59.150 -50.863  1.00  0.00    -0.178 NA
HETATM    5  C   UNL     1     -43.171  59.432 -51.294  1.00  0.00     0.066 A 
HETATM    6  C   UNL     1     -43.670  58.383 -52.112  1.00  0.00     0.066 A 
ENDROOT
BRANCH   1   7
HETATM    7  C   UNL     1     -42.544  56.157 -52.825  1.00  0.00     0.289 C 
HETATM    8  N   UNL     1     -41.246  55.682 -52.895  1.00  0.00    -0.241 N 
HETATM    9  H   UNL     1     -40.481  56.232 -52.505  1.00  0.00     0.192 HD
HETATM   10  O   UNL     1     -43.526  55.569 -53.273  1.00  0.00    -0.264 OA
BRANCH   8  11
HETATM   11  N   UNL     1     -40.957  54.478 -53.477  1.00  0.00    -0.165 NA
HETATM   12  C   UNL     1     -40.573  53.538 -52.673  1.00  0.00     0.157 A 
HETATM   13  C   UNL     1     -40.216  52.177 -53.054  1.00  0.00     0.027 A 
HETATM   14  C   UNL     1     -40.395  53.605 -51.150  1.00  0.00     0.277 A 
HETATM   15  C   UNL     1     -40.195  51.562 -54.288  1.00  0.00     0.016 A 
HETATM   16  C   UNL     1     -39.864  51.514 -51.878  1.00  0.00     0.048 A 
HETATM   17  C   UNL     1     -39.802  50.222 -54.318  1.00  0.00     0.001 A 
HETATM   18  C   UNL     1     -39.444  49.545 -53.133  1.00  0.00     0.002 A 
HETATM   19  C   UNL     1     -39.473  50.193 -51.892  1.00  0.00     0.030 A 
HETATM   20  N   UNL     1     -39.970  52.351 -50.771  1.00  0.00    -0.321 N 
HETATM   21  H   UNL     1     -39.770  52.098 -49.815  1.00  0.00     0.169 HD
HETATM   22  O   UNL     1     -40.605  54.590 -50.474  1.00  0.00    -0.266 OA
ENDBRANCH   8  11
ENDBRANCH   1   7
BRANCH   5  23
HETATM   23  C   UNL     1     -43.878  60.722 -50.922  1.00  0.00     0.007 C 
HETATM   24  C   UNL     1     -44.974  60.514 -49.837  1.00  0.00     0.020 C 
HETATM   25  C   UNL     1     -45.666  61.843 -49.486  1.00  0.00    -0.013 C 
HETATM   26  C   UNL     1     -46.320  62.423 -50.749  1.00  0.00     0.009 C 
HETATM   27  C   UNL     1     -44.619  62.833 -48.953  1.00  0.00     0.009 C 
HETATM   28  C   UNL     1     -45.250  62.671 -51.825  1.00  0.00    -0.013 C 
HETATM   29  C   UNL     1     -44.563  61.340 -52.174  1.00  0.00     0.020 C 
HETATM   30  C   UNL     1     -44.203  63.657 -51.284  1.00  0.00     0.009 C 
HETATM   31  C   UNL     1     -43.543  63.083 -50.020  1.00  0.00    -0.013 C 
HETATM   32  C   UNL     1     -42.854  61.752 -50.368  1.00  0.00     0.020 C 
ENDBRANCH   5  23
TORSDOF 3
ENDMDL
MODEL 4
REMARK VINA RESULT:      -8.7      5.745      7.396
REMARK  3 active torsions:
REMARK  status: ('A' for Active; 'I' for Inactive)
REMARK    1  A    between atoms: N_7  and  N_8 
REMARK       I    between atoms: N_8  and  C_9 
REMARK    2  A    between atoms: C_9  and  C_10 
REMARK    3  A    between atoms: C_14  and  C_15 
ROOT
HETATM    1  C   UNL     1     -42.253  57.167 -54.707  1.00  0.00     0.121 A 
HETATM    2  N   UNL     1     -41.700  58.396 -54.477  1.00  0.00    -0.272 N 
HETATM    3  H   UNL     1     -41.252  58.711 -53.622  1.00  0.00     0.189 HD
HETATM    4  N   UNL     1     -41.782  59.239 -55.520  1.00  0.00    -0.178 NA
HETATM    5  C   UNL     1     -42.410  58.534 -56.469  1.00  0.00     0.066 A 
HETATM    6  C   UNL     1     -42.726  57.230 -56.002  1.00  0.00     0.066 A 
ENDROOT
BRANCH   1   7
HETATM    7  C   UNL     1     -42.250  56.134 -53.699  1.00  0.00     0.289 C 
HETATM    8  N   UNL     1     -41.006  55.570 -53.471  1.00  0.00    -0.241 N 
HETATM    9  H   UNL     1     -40.197  55.891 -54.002  1.00  0.00     0.192 HD
HETATM   10  O   UNL     1     -43.280  55.808 -53.114  1.00  0.00    -0.264 OA
BRANCH   8  11
HETATM   11  N   UNL     1     -40.829  54.587 -52.537  1.00  0.00    -0.165 NA
HETATM   12  C   UNL     1     -40.477  53.427 -52.995  1.00  0.00     0.157 A 
HETATM   13  C   UNL     1     -40.226  52.232 -52.200  1.00  0.00     0.027 A 
HETATM   14  C   UNL     1     -40.238  53.015 -54.454  1.00  0.00     0.277 A 
HETATM   15  C   UNL     1     -40.288  52.025 -50.838  1.00  0.00     0.016 A 
HETATM   16  C   UNL     1     -39.878  51.223 -53.098  1.00  0.00     0.048 A 
HETATM   17  C   UNL     1     -39.980  50.741 -50.380  1.00  0.00     0.001 A 
HETATM   18  C   UNL     1     -39.627  49.716 -51.283  1.00  0.00     0.002 A 
HETATM   19  C   UNL     1     -39.573  49.951 -52.662  1.00  0.00     0.030 A 
HETATM   20  N   UNL     1     -39.886  51.685 -54.411  1.00  0.00    -0.321 N 
HETATM   21  H   UNL     1     -39.668  51.140 -55.232  1.00  0.00     0.169 HD
HETATM   22  O   UNL     1     -40.350  53.757 -55.408  1.00  0.00    -0.266 OA
ENDBRANCH   8  11
ENDBRANCH   1   7
BRANCH   5  23
HETATM   23  C   UNL     1     -42.707  59.115 -57.839  1.00  0.00     0.007 C 
HETATM   24  C   UNL     1     -41.748  60.281 -58.216  1.00  0.00     0.020 C 
HETATM   25  C   UNL     1     -42.078  60.842 -59.611  1.00  0.00    -0.013 C 
HETATM   26  C   UNL     1     -43.524  61.363 -59.618  1.00  0.00     0.009 C 
HETATM   27  C   UNL     1     -41.936  59.723 -60.654  1.00  0.00     0.009 C 
HETATM   28  C   UNL     1     -44.494  60.220 -59.282  1.00  0.00    -0.013 C 
HETATM   29  C   UNL     1     -44.161  59.663 -57.887  1.00  0.00     0.020 C 
HETATM   30  C   UNL     1     -44.342  59.100 -60.325  1.00  0.00     0.009 C 
HETATM   31  C   UNL     1     -42.898  58.573 -60.323  1.00  0.00    -0.013 C 
HETATM   32  C   UNL     1     -42.564  58.015 -58.929  1.00  0.00     0.020 C 
ENDBRANCH   5  23
TORSDOF 3
ENDMDL
MODEL 5
REMARK VINA RESULT:      -8.6      1.837      2.118
REMARK  3 active torsions:
REMARK  status: ('A' for Active; 'I' for Inactive)
REMARK    1  A    between atoms: N_7  and  N_8 
REMARK       I    between atoms: N_8  and  C_9 
REMARK    2  A    between atoms: C_9  and  C_10 
REMARK    3  A    between atoms: C_14  and  C_15 
ROOT
HETATM    1  C   UNL     1     -43.453  60.072 -51.326  1.00  0.00     0.121 A 
HETATM    2  N   UNL     1     -42.577  61.096 -51.092  1.00  0.00    -0.272 N 
HETATM    3  H   UNL     1     -41.704  61.272 -51.580  1.00  0.00     0.189 HD
HETATM    4  N   UNL     1     -42.955  61.928 -50.108  1.00  0.00    -0.178 NA
HETATM    5  C   UNL     1     -44.123  61.430 -49.682  1.00  0.00     0.066 A 
HETATM    6  C   UNL     1     -44.472  60.265 -50.416  1.00  0.00     0.066 A 
ENDROOT
BRANCH   1   7
HETATM    7  C   UNL     1     -43.210  59.086 -52.351  1.00  0.00     0.289 C 
HETATM    8  N   UNL     1     -41.953  58.509 -52.294  1.00  0.00    -0.241 N 
HETATM    9  H   UNL     1     -41.293  58.797 -51.572  1.00  0.00     0.192 HD
HETATM   10  O   UNL     1     -44.066  58.807 -53.187  1.00  0.00    -0.264 OA
BRANCH   8  11
HETATM   11  N   UNL     1     -41.568  57.546 -53.186  1.00  0.00    -0.165 NA
HETATM   12  C   UNL     1     -41.341  56.371 -52.689  1.00  0.00     0.157 A 
HETATM   13  C   UNL     1     -40.926  55.190 -53.436  1.00  0.00     0.027 A 
HETATM   14  C   UNL     1     -41.444  55.924 -51.225  1.00  0.00     0.277 A 
HETATM   15  C   UNL     1     -40.683  55.014 -54.782  1.00  0.00     0.016 A 
HETATM   16  C   UNL     1     -40.797  54.157 -52.508  1.00  0.00     0.048 A 
HETATM   17  C   UNL     1     -40.297  53.735 -55.191  1.00  0.00     0.001 A 
HETATM   18  C   UNL     1     -40.164  52.685 -54.257  1.00  0.00     0.002 A 
HETATM   19  C   UNL     1     -40.416  52.891 -52.895  1.00  0.00     0.030 A 
HETATM   20  N   UNL     1     -41.101  54.590 -51.219  1.00  0.00    -0.321 N 
HETATM   21  H   UNL     1     -41.079  54.025 -50.384  1.00  0.00     0.169 HD
HETATM   22  O   UNL     1     -41.769  56.644 -50.304  1.00  0.00    -0.266 OA
ENDBRANCH   8  11
ENDBRANCH   1   7
BRANCH   5  23
HETATM   23  C   UNL     1     -44.915  62.081 -48.563  1.00  0.00     0.007 C 
HETATM   24  C   UNL     1     -44.463  63.543 -48.280  1.00  0.00     0.020 C 
HETATM   25  C   UNL     1     -45.289  64.169 -47.143  1.00  0.00    -0.013 C 
HETATM   26  C   UNL     1     -45.104  63.336 -45.865  1.00  0.00     0.009 C 
HETATM   27  C   UNL     1     -46.774  64.174 -47.537  1.00  0.00     0.009 C 
HETATM   28  C   UNL     1     -45.576  61.894 -46.108  1.00  0.00    -0.013 C 
HETATM   29  C   UNL     1     -44.747  61.272 -47.245  1.00  0.00     0.020 C 
HETATM   30  C   UNL     1     -47.060  61.905 -46.509  1.00  0.00     0.009 C 
HETATM   31  C   UNL     1     -47.253  62.736 -47.787  1.00  0.00    -0.013 C 
HETATM   32  C   UNL     1     -46.426  62.116 -48.925  1.00  0.00     0.020 C 
ENDBRANCH   5  23
TORSDOF 3
ENDMDL
MODEL 6
REMARK VINA RESULT:      -8.5      2.809      4.092
REMARK  3 active torsions:
REMARK  status: ('A' for Active; 'I' for Inactive)
REMARK    1  A    between atoms: N_7  and  N_8 
REMARK       I    between atoms: N_8  and  C_9 
REMARK    2  A    between atoms: C_9  and  C_10 
REMARK    3  A    between atoms: C_14  and  C_15 
ROOT
HETATM    1  C   UNL     1     -41.656  57.632 -50.599  1.00  0.00     0.121 A 
HETATM    2  N   UNL     1     -41.143  58.716 -49.941  1.00  0.00    -0.272 N 
HETATM    3  H   UNL     1     -40.477  58.702 -49.175  1.00  0.00     0.189 HD
HETATM    4  N   UNL     1     -41.595  59.898 -50.394  1.00  0.00    -0.178 NA
HETATM    5  C   UNL     1     -42.435  59.575 -51.386  1.00  0.00     0.066 A 
HETATM    6  C   UNL     1     -42.505  58.165 -51.547  1.00  0.00     0.066 A 
ENDROOT
BRANCH   1   7
HETATM    7  C   UNL     1     -41.277  56.284 -50.249  1.00  0.00     0.289 C 
HETATM    8  N   UNL     1     -41.061  55.458 -51.338  1.00  0.00    -0.241 N 
HETATM    9  H   UNL     1     -41.180  55.820 -52.284  1.00  0.00     0.192 HD
HETATM   10  O   UNL     1     -41.164  55.934 -49.077  1.00  0.00    -0.264 OA
BRANCH   8  11
HETATM   11  N   UNL     1     -40.682  54.153 -51.179  1.00  0.00    -0.165 NA
HETATM   12  C   UNL     1     -40.527  53.471 -52.270  1.00  0.00     0.157 A 
HETATM   13  C   UNL     1     -40.125  52.073 -52.357  1.00  0.00     0.027 A 
HETATM   14  C   UNL     1     -40.718  53.941 -53.718  1.00  0.00     0.277 A 
HETATM   15  C   UNL     1     -39.821  51.159 -51.371  1.00  0.00     0.016 A 
HETATM   16  C   UNL     1     -40.087  51.753 -53.715  1.00  0.00     0.048 A 
HETATM   17  C   UNL     1     -39.463  49.875 -51.789  1.00  0.00     0.001 A 
HETATM   18  C   UNL     1     -39.421  49.545 -53.160  1.00  0.00     0.002 A 
HETATM   19  C   UNL     1     -39.737  50.491 -54.143  1.00  0.00     0.030 A 
HETATM   20  N   UNL     1     -40.433  52.847 -54.504  1.00  0.00    -0.321 N 
HETATM   21  H   UNL     1     -40.476  52.859 -55.512  1.00  0.00     0.169 HD
HETATM   22  O   UNL     1     -41.051  55.062 -54.042  1.00  0.00    -0.266 OA
ENDBRANCH   8  11
ENDBRANCH   1   7
BRANCH   5  23
HETATM   23  C   UNL     1     -43.173  60.629 -52.189  1.00  0.00     0.007 C 
HETATM   24  C   UNL     1     -44.658  60.248 -52.457  1.00  0.00     0.020 C 
HETATM   25  C   UNL     1     -45.373  61.341 -53.271  1.00  0.00    -0.013 C 
HETATM   26  C   UNL     1     -44.654  61.520 -54.618  1.00  0.00     0.009 C 
HETATM   27  C   UNL     1     -45.330  62.664 -52.491  1.00  0.00     0.009 C 
HETATM   28  C   UNL     1     -43.193  61.931 -54.380  1.00  0.00    -0.013 C 
HETATM   29  C   UNL     1     -42.483  60.836 -53.567  1.00  0.00     0.020 C 
HETATM   30  C   UNL     1     -43.157  63.251 -53.593  1.00  0.00     0.009 C 
HETATM   31  C   UNL     1     -43.873  63.080 -52.245  1.00  0.00    -0.013 C 
HETATM   32  C   UNL     1     -43.163  61.985 -51.430  1.00  0.00     0.020 C 
ENDBRANCH   5  23
TORSDOF 3
ENDMDL
MODEL 7
REMARK VINA RESULT:      -8.4      5.959      9.146
REMARK  3 active torsions:
REMARK  status: ('A' for Active; 'I' for Inactive)
REMARK    1  A    between atoms: N_7  and  N_8 
REMARK       I    between atoms: N_8  and  C_9 
REMARK    2  A    between atoms: C_9  and  C_10 
REMARK    3  A    between atoms: C_14  and  C_15 
ROOT
HETATM    1  C   UNL     1     -42.873  56.225 -56.842  1.00  0.00     0.121 A 
HETATM    2  N   UNL     1     -43.266  54.920 -56.729  1.00  0.00    -0.272 N 
HETATM    3  H   UNL     1     -43.549  54.304 -57.485  1.00  0.00     0.189 HD
HETATM    4  N   UNL     1     -43.260  54.451 -55.471  1.00  0.00    -0.178 NA
HETATM    5  C   UNL     1     -42.846  55.488 -54.731  1.00  0.00     0.066 A 
HETATM    6  C   UNL     1     -42.594  56.621 -55.550  1.00  0.00     0.066 A 
ENDROOT
BRANCH   1   7
HETATM    7  C   UNL     1     -42.815  56.891 -58.121  1.00  0.00     0.289 C 
HETATM    8  N   UNL     1     -42.302  58.176 -58.066  1.00  0.00    -0.241 N 
HETATM    9  H   UNL     1     -42.012  58.570 -57.171  1.00  0.00     0.192 HD
HETATM   10  O   UNL     1     -43.196  56.338 -59.150  1.00  0.00    -0.264 OA
BRANCH   8  11
HETATM   11  N   UNL     1     -42.167  58.939 -59.193  1.00  0.00    -0.165 NA
HETATM   12  C   UNL     1     -41.756  60.154 -59.008  1.00  0.00     0.157 A 
HETATM   13  C   UNL     1     -41.533  61.150 -60.049  1.00  0.00     0.027 A 
HETATM   14  C   UNL     1     -41.406  60.847 -57.685  1.00  0.00     0.277 A 
HETATM   15  C   UNL     1     -41.684  61.075 -61.417  1.00  0.00     0.016 A 
HETATM   16  C   UNL     1     -41.098  62.308 -59.404  1.00  0.00     0.048 A 
HETATM   17  C   UNL     1     -41.379  62.225 -62.150  1.00  0.00     0.001 A 
HETATM   18  C   UNL     1     -40.939  63.400 -61.504  1.00  0.00     0.002 A 
HETATM   19  C   UNL     1     -40.795  63.451 -60.112  1.00  0.00     0.030 A 
HETATM   20  N   UNL     1     -41.026  62.126 -58.025  1.00  0.00    -0.321 N 
HETATM   21  H   UNL     1     -40.739  62.819 -57.350  1.00  0.00     0.169 HD
HETATM   22  O   UNL     1     -41.469  60.322 -56.593  1.00  0.00    -0.266 OA
ENDBRANCH   8  11
ENDBRANCH   1   7
BRANCH   5  23
HETATM   23  C   UNL     1     -42.685  55.389 -53.226  1.00  0.00     0.007 C 
HETATM   24  C   UNL     1     -41.197  55.447 -52.776  1.00  0.00     0.020 C 
HETATM   25  C   UNL     1     -41.075  55.346 -51.245  1.00  0.00    -0.013 C 
HETATM   26  C   UNL     1     -41.685  54.016 -50.776  1.00  0.00     0.009 C 
HETATM   27  C   UNL     1     -41.837  56.513 -50.598  1.00  0.00     0.009 C 
HETATM   28  C   UNL     1     -43.167  53.949 -51.178  1.00  0.00    -0.013 C 
HETATM   29  C   UNL     1     -43.283  54.049 -52.709  1.00  0.00     0.020 C 
HETATM   30  C   UNL     1     -43.923  55.122 -50.534  1.00  0.00     0.009 C 
HETATM   31  C   UNL     1     -43.319  56.457 -50.999  1.00  0.00    -0.013 C 
HETATM   32  C   UNL     1     -43.435  56.559 -52.529  1.00  0.00     0.020 C 
ENDBRANCH   5  23
TORSDOF 3
ENDMDL
MODEL 8
REMARK VINA RESULT:      -8.4      5.521      8.075
REMARK  3 active torsions:
REMARK  status: ('A' for Active; 'I' for Inactive)
REMARK    1  A    between atoms: N_7  and  N_8 
REMARK       I    between atoms: N_8  and  C_9 
REMARK    2  A    between atoms: C_9  and  C_10 
REMARK    3  A    between atoms: C_14  and  C_15 
ROOT
HETATM    1  C   UNL     1     -42.901  55.820 -56.960  1.00  0.00     0.121 A 
HETATM    2  N   UNL     1     -43.682  55.436 -58.015  1.00  0.00    -0.272 N 
HETATM    3  H   UNL     1     -44.132  54.534 -58.141  1.00  0.00     0.189 HD
HETATM    4  N   UNL     1     -43.844  56.384 -58.953  1.00  0.00    -0.178 NA
HETATM    5  C   UNL     1     -43.142  57.428 -58.495  1.00  0.00     0.066 A 
HETATM    6  C   UNL     1     -42.533  57.118 -57.249  1.00  0.00     0.066 A 
ENDROOT
BRANCH   1   7
HETATM    7  C   UNL     1     -42.626  54.931 -55.857  1.00  0.00     0.289 C 
HETATM    8  N   UNL     1     -41.545  55.311 -55.081  1.00  0.00    -0.241 N 
HETATM    9  H   UNL     1     -41.020  56.153 -55.317  1.00  0.00     0.192 HD
HETATM   10  O   UNL     1     -43.311  53.932 -55.654  1.00  0.00    -0.264 OA
BRANCH   8  11
HETATM   11  N   UNL     1     -41.159  54.584 -53.989  1.00  0.00    -0.165 NA
HETATM   12  C   UNL     1     -41.342  55.149 -52.838  1.00  0.00     0.157 A 
HETATM   13  C   UNL     1     -41.016  54.573 -51.539  1.00  0.00     0.027 A 
HETATM   14  C   UNL     1     -41.932  56.535 -52.544  1.00  0.00     0.277 A 
HETATM   15  C   UNL     1     -40.466  53.354 -51.205  1.00  0.00     0.016 A 
HETATM   16  C   UNL     1     -41.376  55.523 -50.582  1.00  0.00     0.048 A 
HETATM   17  C   UNL     1     -40.279  53.097 -49.844  1.00  0.00     0.001 A 
HETATM   18  C   UNL     1     -40.640  54.053 -48.871  1.00  0.00     0.002 A 
HETATM   19  C   UNL     1     -41.197  55.285 -49.236  1.00  0.00     0.030 A 
HETATM   20  N   UNL     1     -41.909  56.665 -51.173  1.00  0.00    -0.321 N 
HETATM   21  H   UNL     1     -42.240  57.484 -50.687  1.00  0.00     0.169 HD
HETATM   22  O   UNL     1     -42.324  57.312 -53.389  1.00  0.00    -0.266 OA
ENDBRANCH   8  11
ENDBRANCH   1   7
BRANCH   5  23
HETATM   23  C   UNL     1     -43.059  58.738 -59.256  1.00  0.00     0.007 C 
HETATM   24  C   UNL     1     -42.046  58.683 -60.436  1.00  0.00     0.020 C 
HETATM   25  C   UNL     1     -41.992  60.027 -61.184  1.00  0.00    -0.013 C 
HETATM   26  C   UNL     1     -41.560  61.133 -60.208  1.00  0.00     0.009 C 
HETATM   27  C   UNL     1     -43.386  60.354 -61.740  1.00  0.00     0.009 C 
HETATM   28  C   UNL     1     -42.566  61.231 -59.050  1.00  0.00    -0.013 C 
HETATM   29  C   UNL     1     -42.616  59.886 -58.305  1.00  0.00     0.020 C 
HETATM   30  C   UNL     1     -43.960  61.551 -59.613  1.00  0.00     0.009 C 
HETATM   31  C   UNL     1     -44.399  60.449 -60.590  1.00  0.00    -0.013 C 
HETATM   32  C   UNL     1     -44.451  59.103 -59.846  1.00  0.00     0.020 C 
ENDBRANCH   5  23
TORSDOF 3
ENDMDL
MODEL 9
REMARK VINA RESULT:      -8.2      6.311      7.573
REMARK  3 active torsions:
REMARK  status: ('A' for Active; 'I' for Inactive)
REMARK    1  A    between atoms: N_7  and  N_8 
REMARK       I    between atoms: N_8  and  C_9 
REMARK    2  A    between atoms: C_9  and  C_10 
REMARK    3  A    between atoms: C_14  and  C_15 
ROOT
HETATM    1  C   UNL     1     -42.608  56.503 -56.189  1.00  0.00     0.121 A 
HETATM    2  N   UNL     1     -42.617  55.967 -57.447  1.00  0.00    -0.272 N 
HETATM    3  H   UNL     1     -42.642  54.980 -57.686  1.00  0.00     0.189 HD
HETATM    4  N   UNL     1     -42.594  56.879 -58.433  1.00  0.00    -0.178 NA
HETATM    5  C   UNL     1     -42.568  58.057 -57.796  1.00  0.00     0.066 A 
HETATM    6  C   UNL     1     -42.574  57.868 -56.388  1.00  0.00     0.066 A 
ENDROOT
BRANCH   1   7
HETATM    7  C   UNL     1     -42.636  55.671 -55.010  1.00  0.00     0.289 C 
HETATM    8  N   UNL     1     -41.444  55.647 -54.306  1.00  0.00    -0.241 N 
HETATM    9  H   UNL     1     -40.645  56.185 -54.641  1.00  0.00     0.192 HD
HETATM   10  O   UNL     1     -43.646  55.051 -54.688  1.00  0.00    -0.264 OA
BRANCH   8  11
HETATM   11  N   UNL     1     -41.308  54.917 -53.158  1.00  0.00    -0.165 NA
HETATM   12  C   UNL     1     -40.745  53.758 -53.286  1.00  0.00     0.157 A 
HETATM   13  C   UNL     1     -40.487  52.806 -52.212  1.00  0.00     0.027 A 
HETATM   14  C   UNL     1     -40.215  53.097 -54.566  1.00  0.00     0.277 A 
HETATM   15  C   UNL     1     -40.751  52.878 -50.862  1.00  0.00     0.016 A 
HETATM   16  C   UNL     1     -39.872  51.700 -52.800  1.00  0.00     0.048 A 
HETATM   17  C   UNL     1     -40.371  51.780 -50.085  1.00  0.00     0.001 A 
HETATM   18  C   UNL     1     -39.749  50.658 -50.672  1.00  0.00     0.002 A 
HETATM   19  C   UNL     1     -39.492  50.610 -52.048  1.00  0.00     0.030 A 
HETATM   20  N   UNL     1     -39.715  51.875 -54.173  1.00  0.00    -0.321 N 
HETATM   21  H   UNL     1     -39.297  51.214 -54.810  1.00  0.00     0.169 HD
HETATM   22  O   UNL     1     -40.254  53.599 -55.669  1.00  0.00    -0.266 OA
ENDBRANCH   8  11
ENDBRANCH   1   7
BRANCH   5  23
HETATM   23  C   UNL     1     -42.543  59.376 -58.545  1.00  0.00     0.007 C 
HETATM   24  C   UNL     1     -42.135  59.210 -60.038  1.00  0.00     0.020 C 
HETATM   25  C   UNL     1     -42.124  60.567 -60.764  1.00  0.00    -0.013 C 
HETATM   26  C   UNL     1     -41.118  61.502 -60.074  1.00  0.00     0.009 C 
HETATM   27  C   UNL     1     -43.527  61.190 -60.697  1.00  0.00     0.009 C 
HETATM   28  C   UNL     1     -41.519  61.709 -58.605  1.00  0.00    -0.013 C 
HETATM   29  C   UNL     1     -41.529  60.351 -57.884  1.00  0.00     0.020 C 
HETATM   30  C   UNL     1     -42.926  62.326 -58.544  1.00  0.00     0.009 C 
HETATM   31  C   UNL     1     -43.938  61.396 -59.232  1.00  0.00    -0.013 C 
HETATM   32  C   UNL     1     -43.950  60.038 -58.511  1.00  0.00     0.020 C 
ENDBRANCH   5  23
TORSDOF 3
ENDMDL
MODEL 10
REMARK VINA RESULT:      -8.0     20.304     21.762
REMARK  3 active torsions:
REMARK  status: ('A' for Active; 'I' for Inactive)
REMARK    1  A    between atoms: N_7  and  N_8 
REMARK       I    between atoms: N_8  and  C_9 
REMARK    2  A    between atoms: C_9  and  C_10 
REMARK    3  A    between atoms: C_14  and  C_15 
ROOT
HETATM    1  C   UNL     1     -33.808  40.690 -54.941  1.00  0.00     0.121 A 
HETATM    2  N   UNL     1     -34.125  41.909 -55.474  1.00  0.00    -0.272 N 
HETATM    3  H   UNL     1     -33.787  42.814 -55.162  1.00  0.00     0.189 HD
HETATM    4  N   UNL     1     -34.971  41.850 -56.516  1.00  0.00    -0.178 NA
HETATM    5  C   UNL     1     -35.216  40.543 -56.671  1.00  0.00     0.066 A 
HETATM    6  C   UNL     1     -34.510  39.779 -55.704  1.00  0.00     0.066 A 
ENDROOT
BRANCH   1   7
HETATM    7  C   UNL     1     -32.908  40.563 -53.820  1.00  0.00     0.289 C 
HETATM    8  N   UNL     1     -33.509  40.754 -52.588  1.00  0.00    -0.241 N 
HETATM    9  H   UNL     1     -34.504  40.969 -52.536  1.00  0.00     0.192 HD
HETATM   10  O   UNL     1     -31.717  40.307 -53.981  1.00  0.00    -0.264 OA
BRANCH   8  11
HETATM   11  N   UNL     1     -32.797  40.655 -51.424  1.00  0.00    -0.165 NA
HETATM   12  C   UNL     1     -33.232  39.787 -50.566  1.00  0.00     0.157 A 
HETATM   13  C   UNL     1     -32.643  39.499 -49.264  1.00  0.00     0.027 A 
HETATM   14  C   UNL     1     -34.448  38.858 -50.688  1.00  0.00     0.277 A 
HETATM   15  C   UNL     1     -31.538  40.033 -48.637  1.00  0.00     0.016 A 
HETATM   16  C   UNL     1     -33.431  38.506 -48.682  1.00  0.00     0.048 A 
HETATM   17  C   UNL     1     -31.228  39.532 -47.370  1.00  0.00     0.001 A 
HETATM   18  C   UNL     1     -32.021  38.528 -46.774  1.00  0.00     0.002 A 
HETATM   19  C   UNL     1     -33.140  38.003 -47.433  1.00  0.00     0.030 A 
HETATM   20  N   UNL     1     -34.482  38.136 -49.517  1.00  0.00    -0.321 N 
HETATM   21  H   UNL     1     -35.183  37.439 -49.313  1.00  0.00     0.169 HD
HETATM   22  O   UNL     1     -35.188  38.813 -51.648  1.00  0.00    -0.266 OA
ENDBRANCH   8  11
ENDBRANCH   1   7
BRANCH   5  23
HETATM   23  C   UNL     1     -36.134  40.021 -57.761  1.00  0.00     0.007 C 
HETATM   24  C   UNL     1     -35.442  38.969 -58.675  1.00  0.00     0.020 C 
HETATM   25  C   UNL     1     -36.404  38.463 -59.765  1.00  0.00    -0.013 C 
HETATM   26  C   UNL     1     -36.860  39.650 -60.629  1.00  0.00     0.009 C 
HETATM   27  C   UNL     1     -37.629  37.818 -59.100  1.00  0.00     0.009 C 
HETATM   28  C   UNL     1     -37.578  40.689 -59.754  1.00  0.00    -0.013 C 
HETATM   29  C   UNL     1     -36.612  41.192 -58.667  1.00  0.00     0.020 C 
HETATM   30  C   UNL     1     -38.798  40.035 -59.085  1.00  0.00     0.009 C 
HETATM   31  C   UNL     1     -38.351  38.848 -58.219  1.00  0.00    -0.013 C 
HETATM   32  C   UNL     1     -37.386  39.349 -57.131  1.00  0.00     0.020 C 
ENDBRANCH   5  23
TORSDOF 3
ENDMDL
