MODEL 1
REMARK VINA RESULT:      -8.2      0.000      0.000
REMARK  6 active torsions:
REMARK  status: ('A' for Active; 'I' for Inactive)
REMARK    1  A    between atoms: C_7  and  S_8 
REMARK    2  A    between atoms: S_8  and  C_9 
REMARK    3  A    between atoms: C_9  and  C_10 
REMARK    4  A    between atoms: C_18  and  C_19 
REMARK    5  A    between atoms: C_26  and  C_27 
REMARK    6  A    between atoms: C_27  and  O_28 
ROOT
HETATM    1  C   UNL     1     -41.843  61.426 -57.450  1.00  0.00     0.070 C 
HETATM    2  C   UNL     1     -42.123  59.946 -57.351  1.00  0.00     0.037 A 
HETATM    3  N   UNL     1     -42.118  59.419 -56.065  1.00  0.00    -0.192 N 
HETATM    4  C   UNL     1     -42.323  58.118 -55.795  1.00  0.00     0.726 A 
HETATM    5  N   UNL     1     -42.531  57.243 -56.824  1.00  0.00    -0.082 N 
HETATM    6  N   UNL     1     -42.677  55.980 -56.372  1.00  0.00    -0.128 NA
HETATM    7  C   UNL     1     -42.619  56.178 -55.048  1.00  0.00     0.226 A 
HETATM    8  N   UNL     1     -42.381  57.475 -54.660  1.00  0.00    -0.035 NA
HETATM    9  C   UNL     1     -42.591  57.636 -58.238  1.00  0.00     0.203 A 
HETATM   10  C   UNL     1     -42.345  59.130 -58.411  1.00  0.00     0.070 A 
HETATM   11  H   UNL     1     -41.964  60.061 -55.291  1.00  0.00     0.184 HD
ENDROOT
BRANCH   7  12
HETATM   12  S   UNL     1     -42.886  54.922 -53.873  1.00  0.00    -0.083 SA
BRANCH  12  13
HETATM   13  C   UNL     1     -41.293  54.886 -53.007  1.00  0.00     0.123 C 
BRANCH  13  14
HETATM   14  C   UNL     1     -40.682  53.502 -53.040  1.00  0.00    -0.027 A 
HETATM   15  C   UNL     1     -40.045  52.919 -51.933  1.00  0.00     0.041 A 
HETATM   16 CL   UNL     1     -39.866  53.758 -50.433  1.00  0.00    -0.084 Cl
HETATM   17  C   UNL     1     -39.526  51.622 -52.014  1.00  0.00     0.024 A 
HETATM   18  C   UNL     1     -39.636  50.891 -53.196  1.00  0.00     0.002 A 
HETATM   19  C   UNL     1     -40.266  51.454 -54.301  1.00  0.00     0.001 A 
HETATM   20  C   UNL     1     -40.789  52.746 -54.224  1.00  0.00     0.009 A 
ENDBRANCH  13  14
ENDBRANCH  12  13
ENDBRANCH   7  12
BRANCH   9  21
HETATM   21  C   UNL     1     -43.913  57.180 -58.854  1.00  0.00    -0.026 A 
HETATM   22  C   UNL     1     -43.906  56.264 -59.921  1.00  0.00     0.033 A 
HETATM   23  C   UNL     1     -45.104  55.852 -60.505  1.00  0.00     0.034 A 
HETATM   24 CL   UNL     1     -45.074  54.738 -61.815  1.00  0.00    -0.084 Cl
HETATM   25  C   UNL     1     -46.322  56.338 -60.037  1.00  0.00     0.024 A 
HETATM   26  C   UNL     1     -46.344  57.247 -58.980  1.00  0.00     0.002 A 
HETATM   27  C   UNL     1     -45.148  57.669 -58.394  1.00  0.00     0.010 A 
ENDBRANCH   9  21
BRANCH  10  28
HETATM   28  C   UNL     1     -42.416  59.656 -59.788  1.00  0.00     0.293 C 
HETATM   29  O   UNL     1     -41.597  59.419 -60.660  1.00  0.00    -0.259 OA
BRANCH  28  30
HETATM   30  O   UNL     1     -43.520  60.435 -59.918  1.00  0.00    -0.323 OA
HETATM   31  C   UNL     1     -44.287  60.149 -61.090  1.00  0.00     0.213 C 
ENDBRANCH  28  30
ENDBRANCH  10  28
TORSDOF 6
ENDMDL
MODEL 2
REMARK VINA RESULT:      -8.1      3.770      5.075
REMARK  6 active torsions:
REMARK  status: ('A' for Active; 'I' for Inactive)
REMARK    1  A    between atoms: C_7  and  S_8 
REMARK    2  A    between atoms: S_8  and  C_9 
REMARK    3  A    between atoms: C_9  and  C_10 
REMARK    4  A    between atoms: C_18  and  C_19 
REMARK    5  A    between atoms: C_26  and  C_27 
REMARK    6  A    between atoms: C_27  and  O_28 
ROOT
HETATM    1  C   UNL     1     -45.780  58.975 -51.161  1.00  0.00     0.070 C 
HETATM    2  C   UNL     1     -44.606  58.104 -51.535  1.00  0.00     0.037 A 
HETATM    3  N   UNL     1     -44.311  57.080 -50.643  1.00  0.00    -0.192 N 
HETATM    4  C   UNL     1     -43.285  56.225 -50.806  1.00  0.00     0.726 A 
HETATM    5  N   UNL     1     -42.463  56.362 -51.889  1.00  0.00    -0.082 N 
HETATM    6  N   UNL     1     -41.469  55.449 -51.868  1.00  0.00    -0.128 NA
HETATM    7  C   UNL     1     -41.799  54.743 -50.779  1.00  0.00     0.226 A 
HETATM    8  N   UNL     1     -42.896  55.205 -50.091  1.00  0.00    -0.035 NA
HETATM    9  C   UNL     1     -42.646  57.374 -52.938  1.00  0.00     0.203 A 
HETATM   10  C   UNL     1     -43.838  58.276 -52.639  1.00  0.00     0.070 A 
HETATM   11  H   UNL     1     -44.917  56.968 -49.833  1.00  0.00     0.184 HD
ENDROOT
BRANCH   7  12
HETATM   12  S   UNL     1     -40.964  53.301 -50.276  1.00  0.00    -0.083 SA
BRANCH  12  13
HETATM   13  C   UNL     1     -39.619  53.214 -51.489  1.00  0.00     0.123 C 
BRANCH  13  14
HETATM   14  C   UNL     1     -39.716  51.959 -52.328  1.00  0.00    -0.027 A 
HETATM   15  C   UNL     1     -39.934  51.979 -53.715  1.00  0.00     0.041 A 
HETATM   16 CL   UNL     1     -40.153  53.455 -54.585  1.00  0.00    -0.084 Cl
HETATM   17  C   UNL     1     -39.983  50.786 -54.444  1.00  0.00     0.024 A 
HETATM   18  C   UNL     1     -39.816  49.560 -53.802  1.00  0.00     0.002 A 
HETATM   19  C   UNL     1     -39.597  49.523 -52.428  1.00  0.00     0.001 A 
HETATM   20  C   UNL     1     -39.543  50.711 -51.697  1.00  0.00     0.009 A 
ENDBRANCH  13  14
ENDBRANCH  12  13
ENDBRANCH   7  12
BRANCH   9  21
HETATM   21  C   UNL     1     -42.744  56.700 -54.305  1.00  0.00    -0.026 A 
HETATM   22  C   UNL     1     -42.383  57.414 -55.462  1.00  0.00     0.033 A 
HETATM   23  C   UNL     1     -42.484  56.817 -56.719  1.00  0.00     0.034 A 
HETATM   24 CL   UNL     1     -42.048  57.710 -58.124  1.00  0.00    -0.084 Cl
HETATM   25  C   UNL     1     -42.939  55.506 -56.845  1.00  0.00     0.024 A 
HETATM   26  C   UNL     1     -43.301  54.788 -55.707  1.00  0.00     0.002 A 
HETATM   27  C   UNL     1     -43.208  55.380 -54.445  1.00  0.00     0.010 A 
ENDBRANCH   9  21
BRANCH  10  28
HETATM   28  C   UNL     1     -44.149  59.314 -53.641  1.00  0.00     0.293 C 
HETATM   29  O   UNL     1     -45.115  59.285 -54.386  1.00  0.00    -0.259 OA
BRANCH  28  30
HETATM   30  O   UNL     1     -43.199  60.282 -53.598  1.00  0.00    -0.323 OA
HETATM   31  C   UNL     1     -43.694  61.582 -53.926  1.00  0.00     0.213 C 
ENDBRANCH  28  30
ENDBRANCH  10  28
TORSDOF 6
ENDMDL
MODEL 3
REMARK VINA RESULT:      -8.0      2.712      4.200
REMARK  6 active torsions:
REMARK  status: ('A' for Active; 'I' for Inactive)
REMARK    1  A    between atoms: C_7  and  S_8 
REMARK    2  A    between atoms: S_8  and  C_9 
REMARK    3  A    between atoms: C_9  and  C_10 
REMARK    4  A    between atoms: C_18  and  C_19 
REMARK    5  A    between atoms: C_26  and  C_27 
REMARK    6  A    between atoms: C_27  and  O_28 
ROOT
HETATM    1  C   UNL     1     -42.826  56.379 -59.632  1.00  0.00     0.070 C 
HETATM    2  C   UNL     1     -43.118  56.420 -58.152  1.00  0.00     0.037 A 
HETATM    3  N   UNL     1     -42.537  55.406 -57.399  1.00  0.00    -0.192 N 
HETATM    4  C   UNL     1     -42.711  55.274 -56.072  1.00  0.00     0.726 A 
HETATM    5  N   UNL     1     -43.512  56.161 -55.408  1.00  0.00    -0.082 N 
HETATM    6  N   UNL     1     -43.603  55.853 -54.097  1.00  0.00    -0.128 NA
HETATM    7  C   UNL     1     -42.769  54.808 -54.026  1.00  0.00     0.226 A 
HETATM    8  N   UNL     1     -42.220  54.413 -55.223  1.00  0.00    -0.035 NA
HETATM    9  C   UNL     1     -44.181  57.302 -56.047  1.00  0.00     0.203 A 
HETATM   10  C   UNL     1     -43.905  57.341 -57.545  1.00  0.00     0.070 A 
HETATM   11  H   UNL     1     -41.938  54.740 -57.882  1.00  0.00     0.184 HD
ENDROOT
BRANCH   7  12
HETATM   12  S   UNL     1     -42.334  54.022 -52.534  1.00  0.00    -0.083 SA
BRANCH  12  13
HETATM   13  C   UNL     1     -40.544  53.809 -52.741  1.00  0.00     0.123 C 
BRANCH  13  14
HETATM   14  C   UNL     1     -40.167  52.345 -52.782  1.00  0.00    -0.027 A 
HETATM   15  C   UNL     1     -40.017  51.559 -51.629  1.00  0.00     0.041 A 
HETATM   16 CL   UNL     1     -40.212  52.215 -50.043  1.00  0.00    -0.084 Cl
HETATM   17  C   UNL     1     -39.698  50.200 -51.731  1.00  0.00     0.024 A 
HETATM   18  C   UNL     1     -39.525  49.609 -52.982  1.00  0.00     0.002 A 
HETATM   19  C   UNL     1     -39.673  50.373 -54.135  1.00  0.00     0.001 A 
HETATM   20  C   UNL     1     -39.995  51.728 -54.037  1.00  0.00     0.009 A 
ENDBRANCH  13  14
ENDBRANCH  12  13
ENDBRANCH   7  12
BRANCH   9  21
HETATM   21  C   UNL     1     -43.792  58.600 -55.341  1.00  0.00    -0.026 A 
HETATM   22  C   UNL     1     -44.786  59.389 -54.736  1.00  0.00     0.033 A 
HETATM   23  C   UNL     1     -44.449  60.586 -54.102  1.00  0.00     0.034 A 
HETATM   24 CL   UNL     1     -45.681  61.543 -53.376  1.00  0.00    -0.084 Cl
HETATM   25  C   UNL     1     -43.124  61.013 -54.057  1.00  0.00     0.024 A 
HETATM   26  C   UNL     1     -42.128  60.240 -54.654  1.00  0.00     0.002 A 
HETATM   27  C   UNL     1     -42.459  59.044 -55.295  1.00  0.00     0.010 A 
ENDBRANCH   9  21
BRANCH  10  28
HETATM   28  C   UNL     1     -44.495  58.467 -58.296  1.00  0.00     0.293 C 
HETATM   29  O   UNL     1     -43.902  59.496 -58.573  1.00  0.00    -0.259 OA
BRANCH  28  30
HETATM   30  O   UNL     1     -45.780  58.172 -58.617  1.00  0.00    -0.323 OA
HETATM   31  C   UNL     1     -46.075  58.339 -60.006  1.00  0.00     0.213 C 
ENDBRANCH  28  30
ENDBRANCH  10  28
TORSDOF 6
ENDMDL
MODEL 4
REMARK VINA RESULT:      -8.0      2.294      3.941
REMARK  6 active torsions:
REMARK  status: ('A' for Active; 'I' for Inactive)
REMARK    1  A    between atoms: C_7  and  S_8 
REMARK    2  A    between atoms: S_8  and  C_9 
REMARK    3  A    between atoms: C_9  and  C_10 
REMARK    4  A    between atoms: C_18  and  C_19 
REMARK    5  A    between atoms: C_26  and  C_27 
REMARK    6  A    between atoms: C_27  and  O_28 
ROOT
HETATM    1  C   UNL     1     -44.858  55.363 -60.349  1.00  0.00     0.070 C 
HETATM    2  C   UNL     1     -44.364  56.037 -59.091  1.00  0.00     0.037 A 
HETATM    3  N   UNL     1     -43.529  55.268 -58.289  1.00  0.00    -0.192 N 
HETATM    4  C   UNL     1     -43.018  55.700 -57.122  1.00  0.00     0.726 A 
HETATM    5  N   UNL     1     -43.337  56.950 -56.670  1.00  0.00    -0.082 N 
HETATM    6  N   UNL     1     -42.770  57.197 -55.471  1.00  0.00    -0.128 NA
HETATM    7  C   UNL     1     -42.060  56.076 -55.292  1.00  0.00     0.226 A 
HETATM    8  N   UNL     1     -42.205  55.127 -56.276  1.00  0.00    -0.035 NA
HETATM    9  C   UNL     1     -44.186  57.898 -57.405  1.00  0.00     0.203 A 
HETATM   10  C   UNL     1     -44.699  57.292 -58.706  1.00  0.00     0.070 A 
HETATM   11  H   UNL     1     -43.283  54.337 -58.615  1.00  0.00     0.184 HD
ENDROOT
BRANCH   7  12
HETATM   12  S   UNL     1     -40.969  55.829 -53.958  1.00  0.00    -0.083 SA
BRANCH  12  13
HETATM   13  C   UNL     1     -41.789  54.485 -53.058  1.00  0.00     0.123 C 
BRANCH  13  14
HETATM   14  C   UNL     1     -40.963  53.218 -53.090  1.00  0.00    -0.027 A 
HETATM   15  C   UNL     1     -40.144  52.810 -52.026  1.00  0.00     0.041 A 
HETATM   16 CL   UNL     1     -39.977  53.751 -50.587  1.00  0.00    -0.084 Cl
HETATM   17  C   UNL     1     -39.427  51.610 -52.100  1.00  0.00     0.024 A 
HETATM   18  C   UNL     1     -39.517  50.805 -53.234  1.00  0.00     0.002 A 
HETATM   19  C   UNL     1     -40.326  51.194 -54.297  1.00  0.00     0.001 A 
HETATM   20  C   UNL     1     -41.046  52.387 -54.226  1.00  0.00     0.009 A 
ENDBRANCH  13  14
ENDBRANCH  12  13
ENDBRANCH   7  12
BRANCH   9  21
HETATM   21  C   UNL     1     -43.438  59.213 -57.620  1.00  0.00    -0.026 A 
HETATM   22  C   UNL     1     -43.990  60.415 -57.141  1.00  0.00     0.033 A 
HETATM   23  C   UNL     1     -43.328  61.625 -57.345  1.00  0.00     0.034 A 
HETATM   24 CL   UNL     1     -44.023  63.086 -56.760  1.00  0.00    -0.084 Cl
HETATM   25  C   UNL     1     -42.111  61.660 -58.022  1.00  0.00     0.024 A 
HETATM   26  C   UNL     1     -41.553  60.476 -58.503  1.00  0.00     0.002 A 
HETATM   27  C   UNL     1     -42.213  59.261 -58.308  1.00  0.00     0.010 A 
ENDBRANCH   9  21
BRANCH  10  28
HETATM   28  C   UNL     1     -45.536  58.162 -59.555  1.00  0.00     0.293 C 
HETATM   29  O   UNL     1     -45.110  58.851 -60.468  1.00  0.00    -0.259 OA
BRANCH  28  30
HETATM   30  O   UNL     1     -46.830  58.072 -59.156  1.00  0.00    -0.323 OA
HETATM   31  C   UNL     1     -47.339  59.282 -58.591  1.00  0.00     0.213 C 
ENDBRANCH  28  30
ENDBRANCH  10  28
TORSDOF 6
ENDMDL
MODEL 5
REMARK VINA RESULT:      -7.8      1.527      2.235
REMARK  6 active torsions:
REMARK  status: ('A' for Active; 'I' for Inactive)
REMARK    1  A    between atoms: C_7  and  S_8 
REMARK    2  A    between atoms: S_8  and  C_9 
REMARK    3  A    between atoms: C_9  and  C_10 
REMARK    4  A    between atoms: C_18  and  C_19 
REMARK    5  A    between atoms: C_26  and  C_27 
REMARK    6  A    between atoms: C_27  and  O_28 
ROOT
HETATM    1  C   UNL     1     -43.419  62.129 -55.294  1.00  0.00     0.070 C 
HETATM    2  C   UNL     1     -43.050  60.683 -55.522  1.00  0.00     0.037 A 
HETATM    3  N   UNL     1     -43.326  59.821 -54.467  1.00  0.00    -0.192 N 
HETATM    4  C   UNL     1     -43.040  58.507 -54.488  1.00  0.00     0.726 A 
HETATM    5  N   UNL     1     -42.429  57.970 -55.586  1.00  0.00    -0.082 N 
HETATM    6  N   UNL     1     -42.183  56.654 -55.416  1.00  0.00    -0.128 NA
HETATM    7  C   UNL     1     -42.742  56.447 -54.216  1.00  0.00     0.226 A 
HETATM    8  N   UNL     1     -43.258  57.567 -53.609  1.00  0.00    -0.035 NA
HETATM    9  C   UNL     1     -42.090  58.734 -56.795  1.00  0.00     0.203 A 
HETATM   10  C   UNL     1     -42.464  60.204 -56.646  1.00  0.00     0.070 A 
HETATM   11  H   UNL     1     -43.781  60.209 -53.644  1.00  0.00     0.184 HD
ENDROOT
BRANCH   7  12
HETATM   12  S   UNL     1     -42.882  54.877 -53.477  1.00  0.00    -0.083 SA
BRANCH  12  13
HETATM   13  C   UNL     1     -41.300  54.742 -52.601  1.00  0.00     0.123 C 
BRANCH  13  14
HETATM   14  C   UNL     1     -40.674  53.379 -52.805  1.00  0.00    -0.027 A 
HETATM   15  C   UNL     1     -40.076  52.648 -51.767  1.00  0.00     0.041 A 
HETATM   16 CL   UNL     1     -39.965  53.266 -50.157  1.00  0.00    -0.084 Cl
HETATM   17  C   UNL     1     -39.542  51.377 -52.009  1.00  0.00     0.024 A 
HETATM   18  C   UNL     1     -39.597  50.821 -53.286  1.00  0.00     0.002 A 
HETATM   19  C   UNL     1     -40.189  51.532 -54.326  1.00  0.00     0.001 A 
HETATM   20  C   UNL     1     -40.726  52.798 -54.087  1.00  0.00     0.009 A 
ENDBRANCH  13  14
ENDBRANCH  12  13
ENDBRANCH   7  12
BRANCH   9  21
HETATM   21  C   UNL     1     -42.726  58.083 -58.022  1.00  0.00    -0.026 A 
HETATM   22  C   UNL     1     -44.123  57.933 -58.086  1.00  0.00     0.033 A 
HETATM   23  C   UNL     1     -44.717  57.325 -59.192  1.00  0.00     0.034 A 
HETATM   24 CL   UNL     1     -46.427  57.142 -59.247  1.00  0.00    -0.084 Cl
HETATM   25  C   UNL     1     -43.937  56.862 -60.248  1.00  0.00     0.024 A 
HETATM   26  C   UNL     1     -42.551  57.003 -60.197  1.00  0.00     0.002 A 
HETATM   27  C   UNL     1     -41.948  57.606 -59.091  1.00  0.00     0.010 A 
ENDBRANCH   9  21
BRANCH  10  28
HETATM   28  C   UNL     1     -42.206  61.072 -57.812  1.00  0.00     0.293 C 
HETATM   29  O   UNL     1     -43.075  61.531 -58.535  1.00  0.00    -0.259 OA
BRANCH  28  30
HETATM   30  O   UNL     1     -40.869  61.267 -57.942  1.00  0.00    -0.323 OA
HETATM   31  C   UNL     1     -40.527  62.562 -58.440  1.00  0.00     0.213 C 
ENDBRANCH  28  30
ENDBRANCH  10  28
TORSDOF 6
ENDMDL
MODEL 6
REMARK VINA RESULT:      -7.7      3.899      7.894
REMARK  6 active torsions:
REMARK  status: ('A' for Active; 'I' for Inactive)
REMARK    1  A    between atoms: C_7  and  S_8 
REMARK    2  A    between atoms: S_8  and  C_9 
REMARK    3  A    between atoms: C_9  and  C_10 
REMARK    4  A    between atoms: C_18  and  C_19 
REMARK    5  A    between atoms: C_26  and  C_27 
REMARK    6  A    between atoms: C_27  and  O_28 
ROOT
HETATM    1  C   UNL     1     -41.022  58.220 -49.891  1.00  0.00     0.070 C 
HETATM    2  C   UNL     1     -41.761  57.552 -51.024  1.00  0.00     0.037 A 
HETATM    3  N   UNL     1     -42.505  58.400 -51.837  1.00  0.00    -0.192 N 
HETATM    4  C   UNL     1     -43.245  57.972 -52.876  1.00  0.00     0.726 A 
HETATM    5  N   UNL     1     -43.299  56.636 -53.157  1.00  0.00    -0.082 N 
HETATM    6  N   UNL     1     -44.117  56.388 -54.201  1.00  0.00    -0.128 NA
HETATM    7  C   UNL     1     -44.465  57.633 -54.550  1.00  0.00     0.226 A 
HETATM    8  N   UNL     1     -43.964  58.629 -53.745  1.00  0.00    -0.035 NA
HETATM    9  C   UNL     1     -42.557  55.608 -52.414  1.00  0.00     0.203 A 
HETATM   10  C   UNL     1     -41.760  56.218 -51.267  1.00  0.00     0.070 A 
HETATM   11  H   UNL     1     -42.471  59.397 -51.638  1.00  0.00     0.184 HD
ENDROOT
BRANCH   7  12
HETATM   12  S   UNL     1     -45.425  58.009 -55.953  1.00  0.00    -0.083 SA
BRANCH  12  13
HETATM   13  C   UNL     1     -44.151  58.186 -57.232  1.00  0.00     0.123 C 
BRANCH  13  14
HETATM   14  C   UNL     1     -44.373  57.209 -58.366  1.00  0.00    -0.027 A 
HETATM   15  C   UNL     1     -43.773  55.941 -58.414  1.00  0.00     0.041 A 
HETATM   16 CL   UNL     1     -42.685  55.396 -57.188  1.00  0.00    -0.084 Cl
HETATM   17  C   UNL     1     -44.042  55.068 -59.474  1.00  0.00     0.024 A 
HETATM   18  C   UNL     1     -44.909  55.447 -60.497  1.00  0.00     0.002 A 
HETATM   19  C   UNL     1     -45.514  56.700 -60.463  1.00  0.00     0.001 A 
HETATM   20  C   UNL     1     -45.252  57.572 -59.406  1.00  0.00     0.009 A 
ENDBRANCH  13  14
ENDBRANCH  12  13
ENDBRANCH   7  12
BRANCH   9  21
HETATM   21  C   UNL     1     -41.687  54.796 -53.371  1.00  0.00    -0.026 A 
HETATM   22  C   UNL     1     -41.795  53.394 -53.391  1.00  0.00     0.033 A 
HETATM   23  C   UNL     1     -40.995  52.637 -54.248  1.00  0.00     0.034 A 
HETATM   24 CL   UNL     1     -41.135  50.922 -54.251  1.00  0.00    -0.084 Cl
HETATM   25  C   UNL     1     -40.082  53.259 -55.096  1.00  0.00     0.024 A 
HETATM   26  C   UNL     1     -39.963  54.648 -55.085  1.00  0.00     0.002 A 
HETATM   27  C   UNL     1     -40.757  55.412 -54.227  1.00  0.00     0.010 A 
ENDBRANCH   9  21
BRANCH  10  28
HETATM   28  C   UNL     1     -40.939  55.289 -50.465  1.00  0.00     0.293 C 
HETATM   29  O   UNL     1     -39.811  54.934 -50.762  1.00  0.00    -0.259 OA
BRANCH  28  30
HETATM   30  O   UNL     1     -41.638  54.903 -49.368  1.00  0.00    -0.323 OA
HETATM   31  C   UNL     1     -40.810  54.452 -48.294  1.00  0.00     0.213 C 
ENDBRANCH  28  30
ENDBRANCH  10  28
TORSDOF 6
ENDMDL
MODEL 7
REMARK VINA RESULT:      -7.7      3.370      4.894
REMARK  6 active torsions:
REMARK  status: ('A' for Active; 'I' for Inactive)
REMARK    1  A    between atoms: C_7  and  S_8 
REMARK    2  A    between atoms: S_8  and  C_9 
REMARK    3  A    between atoms: C_9  and  C_10 
REMARK    4  A    between atoms: C_18  and  C_19 
REMARK    5  A    between atoms: C_26  and  C_27 
REMARK    6  A    between atoms: C_27  and  O_28 
ROOT
HETATM    1  C   UNL     1     -45.414  58.510 -50.964  1.00  0.00     0.070 C 
HETATM    2  C   UNL     1     -44.457  57.972 -52.000  1.00  0.00     0.037 A 
HETATM    3  N   UNL     1     -44.338  56.587 -52.043  1.00  0.00    -0.192 N 
HETATM    4  C   UNL     1     -43.514  55.939 -52.886  1.00  0.00     0.726 A 
HETATM    5  N   UNL     1     -42.728  56.658 -53.742  1.00  0.00    -0.082 N 
HETATM    6  N   UNL     1     -41.940  55.848 -54.480  1.00  0.00    -0.128 NA
HETATM    7  C   UNL     1     -42.359  54.645 -54.068  1.00  0.00     0.226 A 
HETATM    8  N   UNL     1     -43.309  54.664 -53.075  1.00  0.00    -0.035 NA
HETATM    9  C   UNL     1     -42.747  58.124 -53.842  1.00  0.00     0.203 A 
HETATM   10  C   UNL     1     -43.718  58.737 -52.840  1.00  0.00     0.070 A 
HETATM   11  H   UNL     1     -44.919  56.042 -51.411  1.00  0.00     0.184 HD
ENDROOT
BRANCH   7  12
HETATM   12  S   UNL     1     -41.812  53.145 -54.760  1.00  0.00    -0.083 SA
BRANCH  12  13
HETATM   13  C   UNL     1     -40.100  53.070 -54.168  1.00  0.00     0.123 C 
BRANCH  13  14
HETATM   14  C   UNL     1     -39.888  51.886 -53.250  1.00  0.00    -0.027 A 
HETATM   15  C   UNL     1     -39.891  51.991 -51.850  1.00  0.00     0.041 A 
HETATM   16 CL   UNL     1     -40.098  53.507 -51.047  1.00  0.00    -0.084 Cl
HETATM   17  C   UNL     1     -39.721  50.855 -51.051  1.00  0.00     0.024 A 
HETATM   18  C   UNL     1     -39.547  49.602 -51.636  1.00  0.00     0.002 A 
HETATM   19  C   UNL     1     -39.544  49.480 -53.023  1.00  0.00     0.001 A 
HETATM   20  C   UNL     1     -39.717  50.610 -53.823  1.00  0.00     0.009 A 
ENDBRANCH  13  14
ENDBRANCH  12  13
ENDBRANCH   7  12
BRANCH   9  21
HETATM   21  C   UNL     1     -43.038  58.547 -55.281  1.00  0.00    -0.026 A 
HETATM   22  C   UNL     1     -42.144  59.403 -55.950  1.00  0.00     0.033 A 
HETATM   23  C   UNL     1     -42.405  59.812 -57.257  1.00  0.00     0.034 A 
HETATM   24 CL   UNL     1     -41.305  60.868 -58.055  1.00  0.00    -0.084 Cl
HETATM   25  C   UNL     1     -43.550  59.376 -57.920  1.00  0.00     0.024 A 
HETATM   26  C   UNL     1     -44.445  58.528 -57.268  1.00  0.00     0.002 A 
HETATM   27  C   UNL     1     -44.194  58.119 -55.957  1.00  0.00     0.010 A 
ENDBRANCH   9  21
BRANCH  10  28
HETATM   28  C   UNL     1     -43.855  60.206 -52.867  1.00  0.00     0.293 C 
HETATM   29  O   UNL     1     -44.824  60.800 -53.312  1.00  0.00    -0.259 OA
BRANCH  28  30
HETATM   30  O   UNL     1     -42.746  60.773 -52.330  1.00  0.00    -0.323 OA
HETATM   31  C   UNL     1     -42.980  61.401 -51.067  1.00  0.00     0.213 C 
ENDBRANCH  28  30
ENDBRANCH  10  28
TORSDOF 6
ENDMDL
MODEL 8
REMARK VINA RESULT:      -7.6      3.358      4.934
REMARK  6 active torsions:
REMARK  status: ('A' for Active; 'I' for Inactive)
REMARK    1  A    between atoms: C_7  and  S_8 
REMARK    2  A    between atoms: S_8  and  C_9 
REMARK    3  A    between atoms: C_9  and  C_10 
REMARK    4  A    between atoms: C_18  and  C_19 
REMARK    5  A    between atoms: C_26  and  C_27 
REMARK    6  A    between atoms: C_27  and  O_28 
ROOT
HETATM    1  C   UNL     1     -45.440  58.492 -50.942  1.00  0.00     0.070 C 
HETATM    2  C   UNL     1     -44.469  57.949 -51.962  1.00  0.00     0.037 A 
HETATM    3  N   UNL     1     -44.320  56.567 -51.971  1.00  0.00    -0.192 N 
HETATM    4  C   UNL     1     -43.479  55.917 -52.795  1.00  0.00     0.726 A 
HETATM    5  N   UNL     1     -42.705  56.631 -53.666  1.00  0.00    -0.082 N 
HETATM    6  N   UNL     1     -41.897  55.822 -54.382  1.00  0.00    -0.128 NA
HETATM    7  C   UNL     1     -42.292  54.620 -53.942  1.00  0.00     0.226 A 
HETATM    8  N   UNL     1     -43.246  54.642 -52.953  1.00  0.00    -0.035 NA
HETATM    9  C   UNL     1     -42.755  58.094 -53.801  1.00  0.00     0.203 A 
HETATM   10  C   UNL     1     -43.742  58.710 -52.817  1.00  0.00     0.070 A 
HETATM   11  H   UNL     1     -44.892  56.025 -51.328  1.00  0.00     0.184 HD
ENDROOT
BRANCH   7  12
HETATM   12  S   UNL     1     -41.711  53.115 -54.597  1.00  0.00    -0.083 SA
BRANCH  12  13
HETATM   13  C   UNL     1     -40.061  53.004 -53.852  1.00  0.00     0.123 C 
BRANCH  13  14
HETATM   14  C   UNL     1     -40.027  51.977 -52.742  1.00  0.00    -0.027 A 
HETATM   15  C   UNL     1     -39.761  50.617 -52.965  1.00  0.00     0.041 A 
HETATM   16 CL   UNL     1     -39.487  49.985 -54.550  1.00  0.00    -0.084 Cl
HETATM   17  C   UNL     1     -39.711  49.718 -51.894  1.00  0.00     0.024 A 
HETATM   18  C   UNL     1     -39.925  50.162 -50.590  1.00  0.00     0.002 A 
HETATM   19  C   UNL     1     -40.188  51.507 -50.352  1.00  0.00     0.001 A 
HETATM   20  C   UNL     1     -40.234  52.408 -51.417  1.00  0.00     0.009 A 
ENDBRANCH  13  14
ENDBRANCH  12  13
ENDBRANCH   7  12
BRANCH   9  21
HETATM   21  C   UNL     1     -43.049  58.476 -55.250  1.00  0.00    -0.026 A 
HETATM   22  C   UNL     1     -44.276  58.113 -55.832  1.00  0.00     0.033 A 
HETATM   23  C   UNL     1     -44.551  58.440 -57.160  1.00  0.00     0.034 A 
HETATM   24 CL   UNL     1     -46.055  57.979 -57.857  1.00  0.00    -0.084 Cl
HETATM   25  C   UNL     1     -43.617  59.133 -57.926  1.00  0.00     0.024 A 
HETATM   26  C   UNL     1     -42.395  59.498 -57.362  1.00  0.00     0.002 A 
HETATM   27  C   UNL     1     -42.110  59.169 -56.035  1.00  0.00     0.010 A 
ENDBRANCH   9  21
BRANCH  10  28
HETATM   28  C   UNL     1     -43.911  60.175 -52.880  1.00  0.00     0.293 C 
HETATM   29  O   UNL     1     -44.821  60.740 -53.464  1.00  0.00    -0.259 OA
BRANCH  28  30
HETATM   30  O   UNL     1     -42.903  60.775 -52.197  1.00  0.00    -0.323 OA
HETATM   31  C   UNL     1     -43.330  61.890 -51.412  1.00  0.00     0.213 C 
ENDBRANCH  28  30
ENDBRANCH  10  28
TORSDOF 6
ENDMDL
MODEL 9
REMARK VINA RESULT:      -7.4      4.109      5.466
REMARK  6 active torsions:
REMARK  status: ('A' for Active; 'I' for Inactive)
REMARK    1  A    between atoms: C_7  and  S_8 
REMARK    2  A    between atoms: S_8  and  C_9 
REMARK    3  A    between atoms: C_9  and  C_10 
REMARK    4  A    between atoms: C_18  and  C_19 
REMARK    5  A    between atoms: C_26  and  C_27 
REMARK    6  A    between atoms: C_27  and  O_28 
ROOT
HETATM    1  C   UNL     1     -45.504  60.650 -49.804  1.00  0.00     0.070 C 
HETATM    2  C   UNL     1     -44.719  59.804 -50.777  1.00  0.00     0.037 A 
HETATM    3  N   UNL     1     -44.756  58.434 -50.545  1.00  0.00    -0.192 N 
HETATM    4  C   UNL     1     -44.094  57.536 -51.296  1.00  0.00     0.726 A 
HETATM    5  N   UNL     1     -43.322  57.969 -52.337  1.00  0.00    -0.082 N 
HETATM    6  N   UNL     1     -42.703  56.939 -52.951  1.00  0.00    -0.128 NA
HETATM    7  C   UNL     1     -43.208  55.901 -52.270  1.00  0.00     0.226 A 
HETATM    8  N   UNL     1     -44.048  56.233 -51.234  1.00  0.00    -0.035 NA
HETATM    9  C   UNL     1     -43.192  59.378 -52.733  1.00  0.00     0.203 A 
HETATM   10  C   UNL     1     -43.987  60.292 -51.808  1.00  0.00     0.070 A 
HETATM   11  H   UNL     1     -45.327  58.100 -49.773  1.00  0.00     0.184 HD
ENDROOT
BRANCH   7  12
HETATM   12  S   UNL     1     -42.898  54.238 -52.681  1.00  0.00    -0.083 SA
BRANCH  12  13
HETATM   13  C   UNL     1     -41.130  54.283 -53.081  1.00  0.00     0.123 C 
BRANCH  13  14
HETATM   14  C   UNL     1     -40.528  52.895 -53.062  1.00  0.00    -0.027 A 
HETATM   15  C   UNL     1     -39.986  52.310 -51.907  1.00  0.00     0.041 A 
HETATM   16 CL   UNL     1     -39.922  53.151 -50.399  1.00  0.00    -0.084 Cl
HETATM   17  C   UNL     1     -39.472  51.009 -51.943  1.00  0.00     0.024 A 
HETATM   18  C   UNL     1     -39.491  50.276 -53.129  1.00  0.00     0.002 A 
HETATM   19  C   UNL     1     -40.027  50.841 -54.283  1.00  0.00     0.001 A 
HETATM   20  C   UNL     1     -40.544  52.137 -54.250  1.00  0.00     0.009 A 
ENDBRANCH  13  14
ENDBRANCH  12  13
ENDBRANCH   7  12
BRANCH   9  21
HETATM   21  C   UNL     1     -43.574  59.547 -54.202  1.00  0.00    -0.026 A 
HETATM   22  C   UNL     1     -42.595  59.923 -55.139  1.00  0.00     0.033 A 
HETATM   23  C   UNL     1     -42.933  60.099 -56.481  1.00  0.00     0.034 A 
HETATM   24 CL   UNL     1     -41.723  60.568 -57.610  1.00  0.00    -0.084 Cl
HETATM   25  C   UNL     1     -44.243  59.900 -56.912  1.00  0.00     0.024 A 
HETATM   26  C   UNL     1     -45.224  59.529 -55.994  1.00  0.00     0.002 A 
HETATM   27  C   UNL     1     -44.894  59.357 -54.647  1.00  0.00     0.010 A 
ENDBRANCH   9  21
BRANCH  10  28
HETATM   28  C   UNL     1     -43.965  61.734 -52.125  1.00  0.00     0.293 C 
HETATM   29  O   UNL     1     -44.857  62.323 -52.714  1.00  0.00    -0.259 OA
BRANCH  28  30
HETATM   30  O   UNL     1     -42.812  62.280 -51.664  1.00  0.00    -0.323 OA
HETATM   31  C   UNL     1     -43.007  63.201 -50.588  1.00  0.00     0.213 C 
ENDBRANCH  28  30
ENDBRANCH  10  28
TORSDOF 6
ENDMDL
MODEL 10
REMARK VINA RESULT:      -7.4      1.942      2.912
REMARK  6 active torsions:
REMARK  status: ('A' for Active; 'I' for Inactive)
REMARK    1  A    between atoms: C_7  and  S_8 
REMARK    2  A    between atoms: S_8  and  C_9 
REMARK    3  A    between atoms: C_9  and  C_10 
REMARK    4  A    between atoms: C_18  and  C_19 
REMARK    5  A    between atoms: C_26  and  C_27 
REMARK    6  A    between atoms: C_27  and  O_28 
ROOT
HETATM    1  C   UNL     1     -43.060  61.635 -54.937  1.00  0.00     0.070 C 
HETATM    2  C   UNL     1     -42.783  60.193 -55.290  1.00  0.00     0.037 A 
HETATM    3  N   UNL     1     -42.970  59.278 -54.261  1.00  0.00    -0.192 N 
HETATM    4  C   UNL     1     -42.746  57.959 -54.392  1.00  0.00     0.726 A 
HETATM    5  N   UNL     1     -42.292  57.469 -55.584  1.00  0.00    -0.082 N 
HETATM    6  N   UNL     1     -42.085  56.137 -55.520  1.00  0.00    -0.128 NA
HETATM    7  C   UNL     1     -42.508  55.876 -54.276  1.00  0.00     0.226 A 
HETATM    8  N   UNL     1     -42.900  56.974 -53.548  1.00  0.00    -0.035 NA
HETATM    9  C   UNL     1     -42.065  58.293 -56.779  1.00  0.00     0.203 A 
HETATM   10  C   UNL     1     -42.355  59.764 -56.503  1.00  0.00     0.070 A 
HETATM   11  H   UNL     1     -43.308  59.631 -53.369  1.00  0.00     0.184 HD
ENDROOT
BRANCH   7  12
HETATM   12  S   UNL     1     -42.628  54.270 -53.616  1.00  0.00    -0.083 SA
BRANCH  12  13
HETATM   13  C   UNL     1     -40.945  54.000 -52.997  1.00  0.00     0.123 C 
BRANCH  13  14
HETATM   14  C   UNL     1     -40.893  54.095 -51.488  1.00  0.00    -0.027 A 
HETATM   15  C   UNL     1     -40.369  53.078 -50.675  1.00  0.00     0.041 A 
HETATM   16 CL   UNL     1     -39.770  51.597 -51.332  1.00  0.00    -0.084 Cl
HETATM   17  C   UNL     1     -40.319  53.235 -49.285  1.00  0.00     0.024 A 
HETATM   18  C   UNL     1     -40.788  54.405 -48.690  1.00  0.00     0.002 A 
HETATM   19  C   UNL     1     -41.308  55.424 -49.483  1.00  0.00     0.001 A 
HETATM   20  C   UNL     1     -41.357  55.273 -50.870  1.00  0.00     0.009 A 
ENDBRANCH  13  14
ENDBRANCH  12  13
ENDBRANCH   7  12
BRANCH   9  21
HETATM   21  C   UNL     1     -42.869  57.744 -57.956  1.00  0.00    -0.026 A 
HETATM   22  C   UNL     1     -44.274  57.774 -57.915  1.00  0.00     0.033 A 
HETATM   23  C   UNL     1     -45.022  57.260 -58.974  1.00  0.00     0.034 A 
HETATM   24 CL   UNL     1     -46.741  57.298 -58.902  1.00  0.00    -0.084 Cl
HETATM   25  C   UNL     1     -44.388  56.713 -60.088  1.00  0.00     0.024 A 
HETATM   26  C   UNL     1     -42.995  56.676 -60.141  1.00  0.00     0.002 A 
HETATM   27  C   UNL     1     -42.240  57.183 -59.081  1.00  0.00     0.010 A 
ENDBRANCH   9  21
BRANCH  10  28
HETATM   28  C   UNL     1     -42.198  60.693 -57.639  1.00  0.00     0.293 C 
HETATM   29  O   UNL     1     -43.122  61.128 -58.306  1.00  0.00    -0.259 OA
BRANCH  28  30
HETATM   30  O   UNL     1     -40.882  60.972 -57.815  1.00  0.00    -0.323 OA
HETATM   31  C   UNL     1     -40.645  62.228 -58.457  1.00  0.00     0.213 C 
ENDBRANCH  28  30
ENDBRANCH  10  28
TORSDOF 6
ENDMDL
