MODEL 1
REMARK VINA RESULT:      -8.6      0.000      0.000
REMARK  6 active torsions:
REMARK  status: ('A' for Active; 'I' for Inactive)
REMARK    1  A    between atoms: C_4  and  N_5 
REMARK       I    between atoms: N_5  and  C_6 
REMARK    2  A    between atoms: C_6  and  C_7 
REMARK       I    between atoms: C_7  and  N_8 
REMARK    3  A    between atoms: N_8  and  C_9 
REMARK    4  A    between atoms: C_9  and  C_10 
REMARK    5  A    between atoms: C_10  and  C_11 
REMARK    6  A    between atoms: C_11  and  C_12 
ROOT
HETATM    1  C   UNL     1     -42.679  56.048 -56.295  1.00  0.00     0.309 C 
HETATM    2  N   UNL     1     -42.503  57.183 -55.534  1.00  0.00    -0.353 N 
HETATM    3  O   UNL     1     -42.976  56.013 -57.479  1.00  0.00    -0.262 OA
HETATM    4  H   UNL     1     -42.311  57.033 -54.545  1.00  0.00     0.162 HD
ENDROOT
BRANCH   1   5
HETATM    5  C   UNL     1     -42.487  54.739 -55.495  1.00  0.00     0.314 C 
HETATM    6  N   UNL     1     -41.315  54.728 -54.780  1.00  0.00    -0.317 N 
HETATM    7  H   UNL     1     -40.730  55.565 -54.847  1.00  0.00     0.169 HD
HETATM    8  O   UNL     1     -43.348  53.874 -55.577  1.00  0.00    -0.262 OA
BRANCH   6   9
HETATM    9  C   UNL     1     -40.790  53.709 -53.955  1.00  0.00     0.065 A 
HETATM   10  C   UNL     1     -40.381  52.464 -54.450  1.00  0.00     0.038 A 
HETATM   11  C   UNL     1     -39.866  51.490 -53.589  1.00  0.00    -0.059 A 
HETATM   12  C   UNL     1     -39.418  50.156 -54.113  1.00  0.00     0.048 C 
HETATM   13  C   UNL     1     -39.762  51.777 -52.225  1.00  0.00     0.020 A 
HETATM   14  C   UNL     1     -40.171  53.023 -51.721  1.00  0.00    -0.005 A 
HETATM   15  C   UNL     1     -40.691  54.008 -52.586  1.00  0.00     0.093 A 
HETATM   16  C   UNL     1     -40.073  53.323 -50.355  1.00  0.00     0.015 A 
HETATM   17  N   UNL     1     -41.090  55.218 -52.126  1.00  0.00    -0.258 NA
HETATM   18  C   UNL     1     -40.981  55.469 -50.803  1.00  0.00     0.117 A 
HETATM   19  C   UNL     1     -40.484  54.565 -49.887  1.00  0.00     0.020 A 
ENDBRANCH   6   9
ENDBRANCH   1   5
BRANCH   2  20
HETATM   20  C   UNL     1     -42.767  58.511 -56.037  1.00  0.00     0.123 C 
BRANCH  20  21
HETATM   21  C   UNL     1     -43.510  59.385 -55.029  1.00  0.00     0.024 C 
BRANCH  21  22
HETATM   22  C   UNL     1     -44.091  58.571 -53.870  1.00  0.00     0.042 C 
BRANCH  22  23
HETATM   23  C   UNL     1     -43.576  59.029 -52.543  1.00  0.00    -0.030 A 
HETATM   24  C   UNL     1     -42.206  59.069 -52.127  1.00  0.00    -0.002 A 
HETATM   25  C   UNL     1     -42.179  59.562 -50.822  1.00  0.00     0.042 A 
HETATM   26  C   UNL     1     -40.983  58.725 -52.742  1.00  0.00     0.014 A 
HETATM   27  C   UNL     1     -40.990  59.732 -50.101  1.00  0.00     0.030 A 
HETATM   28  N   UNL     1     -43.481  59.813 -50.459  1.00  0.00    -0.365 N 
HETATM   29  C   UNL     1     -39.793  59.385 -50.733  1.00  0.00     0.002 A 
HETATM   30  C   UNL     1     -39.787  58.889 -52.035  1.00  0.00     0.001 A 
HETATM   31  H   UNL     1     -43.762  60.180 -49.560  1.00  0.00     0.165 HD
HETATM   32  C   UNL     1     -44.330  59.497 -51.485  1.00  0.00     0.096 A 
ENDBRANCH  22  23
ENDBRANCH  21  22
ENDBRANCH  20  21
ENDBRANCH   2  20
TORSDOF 6
ENDMDL
MODEL 2
REMARK VINA RESULT:      -8.6      3.113      5.995
REMARK  6 active torsions:
REMARK  status: ('A' for Active; 'I' for Inactive)
REMARK    1  A    between atoms: C_4  and  N_5 
REMARK       I    between atoms: N_5  and  C_6 
REMARK    2  A    between atoms: C_6  and  C_7 
REMARK       I    between atoms: C_7  and  N_8 
REMARK    3  A    between atoms: N_8  and  C_9 
REMARK    4  A    between atoms: C_9  and  C_10 
REMARK    5  A    between atoms: C_10  and  C_11 
REMARK    6  A    between atoms: C_11  and  C_12 
ROOT
HETATM    1  C   UNL     1     -43.051  56.276 -56.022  1.00  0.00     0.309 C 
HETATM    2  N   UNL     1     -42.092  56.636 -56.944  1.00  0.00    -0.353 N 
HETATM    3  O   UNL     1     -44.048  56.919 -55.731  1.00  0.00    -0.262 OA
HETATM    4  H   UNL     1     -41.294  56.010 -57.025  1.00  0.00     0.162 HD
ENDROOT
BRANCH   1   5
HETATM    5  C   UNL     1     -42.749  54.934 -55.317  1.00  0.00     0.314 C 
HETATM    6  N   UNL     1     -41.588  54.974 -54.588  1.00  0.00    -0.317 N 
HETATM    7  H   UNL     1     -41.079  55.862 -54.584  1.00  0.00     0.169 HD
HETATM    8  O   UNL     1     -43.529  54.004 -55.477  1.00  0.00    -0.262 OA
BRANCH   6   9
HETATM    9  C   UNL     1     -40.980  53.946 -53.832  1.00  0.00     0.065 A 
HETATM   10  C   UNL     1     -40.575  52.727 -54.391  1.00  0.00     0.038 A 
HETATM   11  C   UNL     1     -39.976  51.745 -53.598  1.00  0.00    -0.059 A 
HETATM   12  C   UNL     1     -39.532  50.439 -54.191  1.00  0.00     0.048 C 
HETATM   13  C   UNL     1     -39.785  51.995 -52.236  1.00  0.00     0.020 A 
HETATM   14  C   UNL     1     -40.190  53.214 -51.667  1.00  0.00    -0.005 A 
HETATM   15  C   UNL     1     -40.794  54.209 -52.465  1.00  0.00     0.093 A 
HETATM   16  C   UNL     1     -40.005  53.478 -50.303  1.00  0.00     0.015 A 
HETATM   17  N   UNL     1     -41.191  55.394 -51.942  1.00  0.00    -0.258 NA
HETATM   18  C   UNL     1     -40.997  55.610 -50.622  1.00  0.00     0.117 A 
HETATM   19  C   UNL     1     -40.415  54.694 -49.771  1.00  0.00     0.020 A 
ENDBRANCH   6   9
ENDBRANCH   1   5
BRANCH   2  20
HETATM   20  C   UNL     1     -42.096  57.912 -57.619  1.00  0.00     0.123 C 
BRANCH  20  21
HETATM   21  C   UNL     1     -42.213  57.775 -59.136  1.00  0.00     0.024 C 
BRANCH  21  22
HETATM   22  C   UNL     1     -42.330  56.315 -59.580  1.00  0.00     0.042 C 
BRANCH  22  23
HETATM   23  C   UNL     1     -43.752  55.892 -59.768  1.00  0.00    -0.030 A 
HETATM   24  C   UNL     1     -44.862  56.744 -60.073  1.00  0.00    -0.002 A 
HETATM   25  C   UNL     1     -45.997  55.938 -60.162  1.00  0.00     0.042 A 
HETATM   26  C   UNL     1     -45.006  58.133 -60.277  1.00  0.00     0.014 A 
HETATM   27  C   UNL     1     -47.269  56.448 -60.448  1.00  0.00     0.030 A 
HETATM   28  N   UNL     1     -45.593  54.645 -59.923  1.00  0.00    -0.365 N 
HETATM   29  C   UNL     1     -47.384  57.827 -60.647  1.00  0.00     0.002 A 
HETATM   30  C   UNL     1     -46.270  58.659 -60.563  1.00  0.00     0.001 A 
HETATM   31  H   UNL     1     -46.209  53.845 -59.924  1.00  0.00     0.165 HD
HETATM   32  C   UNL     1     -44.245  54.605 -59.684  1.00  0.00     0.096 A 
ENDBRANCH  22  23
ENDBRANCH  21  22
ENDBRANCH  20  21
ENDBRANCH   2  20
TORSDOF 6
ENDMDL
MODEL 3
REMARK VINA RESULT:      -8.6      2.568      7.482
REMARK  6 active torsions:
REMARK  status: ('A' for Active; 'I' for Inactive)
REMARK    1  A    between atoms: C_4  and  N_5 
REMARK       I    between atoms: N_5  and  C_6 
REMARK    2  A    between atoms: C_6  and  C_7 
REMARK       I    between atoms: C_7  and  N_8 
REMARK    3  A    between atoms: N_8  and  C_9 
REMARK    4  A    between atoms: C_9  and  C_10 
REMARK    5  A    between atoms: C_10  and  C_11 
REMARK    6  A    between atoms: C_11  and  C_12 
ROOT
HETATM    1  C   UNL     1     -42.581  56.641 -53.398  1.00  0.00     0.309 C 
HETATM    2  N   UNL     1     -43.227  55.894 -52.438  1.00  0.00    -0.353 N 
HETATM    3  O   UNL     1     -41.522  57.235 -53.258  1.00  0.00    -0.262 OA
HETATM    4  H   UNL     1     -44.131  55.509 -52.704  1.00  0.00     0.162 HD
ENDROOT
BRANCH   1   5
HETATM    5  C   UNL     1     -43.342  56.700 -54.742  1.00  0.00     0.314 C 
HETATM    6  N   UNL     1     -42.502  56.633 -55.825  1.00  0.00    -0.317 N 
HETATM    7  H   UNL     1     -41.502  56.541 -55.624  1.00  0.00     0.169 HD
HETATM    8  O   UNL     1     -44.561  56.808 -54.717  1.00  0.00    -0.262 OA
BRANCH   6   9
HETATM    9  C   UNL     1     -42.823  56.677 -57.201  1.00  0.00     0.065 A 
HETATM   10  C   UNL     1     -43.409  55.602 -57.880  1.00  0.00     0.038 A 
HETATM   11  C   UNL     1     -43.708  55.700 -59.242  1.00  0.00    -0.059 A 
HETATM   12  C   UNL     1     -44.343  54.555 -59.977  1.00  0.00     0.048 C 
HETATM   13  C   UNL     1     -43.417  56.889 -59.917  1.00  0.00     0.020 A 
HETATM   14  C   UNL     1     -42.829  57.971 -59.243  1.00  0.00    -0.005 A 
HETATM   15  C   UNL     1     -42.525  57.876 -57.868  1.00  0.00     0.093 A 
HETATM   16  C   UNL     1     -42.530  59.168 -59.908  1.00  0.00     0.015 A 
HETATM   17  N   UNL     1     -41.961  58.906 -57.194  1.00  0.00    -0.258 NA
HETATM   18  C   UNL     1     -41.687  60.044 -57.870  1.00  0.00     0.117 A 
HETATM   19  C   UNL     1     -41.950  60.222 -59.212  1.00  0.00     0.020 A 
ENDBRANCH   6   9
ENDBRANCH   1   5
BRANCH   2  20
HETATM   20  C   UNL     1     -42.770  55.814 -51.070  1.00  0.00     0.123 C 
BRANCH  20  21
HETATM   21  C   UNL     1     -42.119  54.471 -50.745  1.00  0.00     0.024 C 
BRANCH  21  22
HETATM   22  C   UNL     1     -40.651  54.416 -51.177  1.00  0.00     0.042 C 
BRANCH  22  23
HETATM   23  C   UNL     1     -40.428  53.455 -52.300  1.00  0.00    -0.030 A 
HETATM   24  C   UNL     1     -40.095  52.067 -52.182  1.00  0.00    -0.002 A 
HETATM   25  C   UNL     1     -39.981  51.551 -53.473  1.00  0.00     0.042 A 
HETATM   26  C   UNL     1     -39.875  51.200 -51.090  1.00  0.00     0.014 A 
HETATM   27  C   UNL     1     -39.662  50.212 -53.729  1.00  0.00     0.030 A 
HETATM   28  N   UNL     1     -40.236  52.585 -54.343  1.00  0.00    -0.365 N 
HETATM   29  C   UNL     1     -39.450  49.374 -52.630  1.00  0.00     0.002 A 
HETATM   30  C   UNL     1     -39.555  49.860 -51.328  1.00  0.00     0.001 A 
HETATM   31  H   UNL     1     -40.224  52.499 -55.350  1.00  0.00     0.165 HD
HETATM   32  C   UNL     1     -40.506  53.734 -53.650  1.00  0.00     0.096 A 
ENDBRANCH  22  23
ENDBRANCH  21  22
ENDBRANCH  20  21
ENDBRANCH   2  20
TORSDOF 6
ENDMDL
MODEL 4
REMARK VINA RESULT:      -8.3      2.606      7.105
REMARK  6 active torsions:
REMARK  status: ('A' for Active; 'I' for Inactive)
REMARK    1  A    between atoms: C_4  and  N_5 
REMARK       I    between atoms: N_5  and  C_6 
REMARK    2  A    between atoms: C_6  and  C_7 
REMARK       I    between atoms: C_7  and  N_8 
REMARK    3  A    between atoms: N_8  and  C_9 
REMARK    4  A    between atoms: C_9  and  C_10 
REMARK    5  A    between atoms: C_10  and  C_11 
REMARK    6  A    between atoms: C_11  and  C_12 
ROOT
HETATM    1  C   UNL     1     -42.097  57.601 -53.705  1.00  0.00     0.309 C 
HETATM    2  N   UNL     1     -42.733  57.324 -52.515  1.00  0.00    -0.353 N 
HETATM    3  O   UNL     1     -40.982  58.083 -53.832  1.00  0.00    -0.262 OA
HETATM    4  H   UNL     1     -43.686  56.974 -52.588  1.00  0.00     0.162 HD
ENDROOT
BRANCH   1   5
HETATM    5  C   UNL     1     -42.951  57.262 -54.948  1.00  0.00     0.314 C 
HETATM    6  N   UNL     1     -42.226  57.312 -56.112  1.00  0.00    -0.317 N 
HETATM    7  H   UNL     1     -41.234  57.547 -56.025  1.00  0.00     0.169 HD
HETATM    8  O   UNL     1     -44.137  57.005 -54.789  1.00  0.00    -0.262 OA
BRANCH   6   9
HETATM    9  C   UNL     1     -42.661  57.086 -57.438  1.00  0.00     0.065 A 
HETATM   10  C   UNL     1     -43.257  55.886 -57.849  1.00  0.00     0.038 A 
HETATM   11  C   UNL     1     -43.671  55.716 -59.173  1.00  0.00    -0.059 A 
HETATM   12  C   UNL     1     -44.317  54.437 -59.621  1.00  0.00     0.048 C 
HETATM   13  C   UNL     1     -43.483  56.761 -60.083  1.00  0.00     0.020 A 
HETATM   14  C   UNL     1     -42.885  57.966 -59.678  1.00  0.00    -0.005 A 
HETATM   15  C   UNL     1     -42.466  58.142 -58.343  1.00  0.00     0.093 A 
HETATM   16  C   UNL     1     -42.691  59.021 -60.580  1.00  0.00     0.015 A 
HETATM   17  N   UNL     1     -41.890  59.295 -57.926  1.00  0.00    -0.258 NA
HETATM   18  C   UNL     1     -41.718  60.288 -58.826  1.00  0.00     0.117 A 
HETATM   19  C   UNL     1     -42.098  60.201 -60.149  1.00  0.00     0.020 A 
ENDBRANCH   6   9
ENDBRANCH   1   5
BRANCH   2  20
HETATM   20  C   UNL     1     -42.181  57.687 -51.231  1.00  0.00     0.123 C 
BRANCH  20  21
HETATM   21  C   UNL     1     -41.336  56.572 -50.618  1.00  0.00     0.024 C 
BRANCH  21  22
HETATM   22  C   UNL     1     -42.120  55.267 -50.461  1.00  0.00     0.042 C 
BRANCH  22  23
HETATM   23  C   UNL     1     -41.296  54.067 -50.805  1.00  0.00    -0.030 A 
HETATM   24  C   UNL     1     -41.015  53.574 -52.119  1.00  0.00    -0.002 A 
HETATM   25  C   UNL     1     -40.212  52.442 -51.979  1.00  0.00     0.042 A 
HETATM   26  C   UNL     1     -41.375  53.985 -53.420  1.00  0.00     0.014 A 
HETATM   27  C   UNL     1     -39.747  51.701 -53.073  1.00  0.00     0.030 A 
HETATM   28  N   UNL     1     -40.011  52.254 -50.632  1.00  0.00    -0.365 N 
HETATM   29  C   UNL     1     -40.118  52.131 -54.351  1.00  0.00     0.002 A 
HETATM   30  C   UNL     1     -40.920  53.256 -54.524  1.00  0.00     0.001 A 
HETATM   31  H   UNL     1     -39.463  51.504 -50.235  1.00  0.00     0.165 HD
HETATM   32  C   UNL     1     -40.658  53.225 -49.916  1.00  0.00     0.096 A 
ENDBRANCH  22  23
ENDBRANCH  21  22
ENDBRANCH  20  21
ENDBRANCH   2  20
TORSDOF 6
ENDMDL
MODEL 5
REMARK VINA RESULT:      -8.3      2.576      5.413
REMARK  6 active torsions:
REMARK  status: ('A' for Active; 'I' for Inactive)
REMARK    1  A    between atoms: C_4  and  N_5 
REMARK       I    between atoms: N_5  and  C_6 
REMARK    2  A    between atoms: C_6  and  C_7 
REMARK       I    between atoms: C_7  and  N_8 
REMARK    3  A    between atoms: N_8  and  C_9 
REMARK    4  A    between atoms: C_9  and  C_10 
REMARK    5  A    between atoms: C_10  and  C_11 
REMARK    6  A    between atoms: C_11  and  C_12 
ROOT
HETATM    1  C   UNL     1     -43.356  57.428 -54.157  1.00  0.00     0.309 C 
HETATM    2  N   UNL     1     -44.690  57.667 -54.406  1.00  0.00    -0.353 N 
HETATM    3  O   UNL     1     -42.452  58.246 -54.226  1.00  0.00    -0.262 OA
HETATM    4  H   UNL     1     -45.306  56.858 -54.357  1.00  0.00     0.162 HD
ENDROOT
BRANCH   1   5
HETATM    5  C   UNL     1     -43.057  55.957 -53.787  1.00  0.00     0.314 C 
HETATM    6  N   UNL     1     -41.847  55.811 -53.157  1.00  0.00    -0.317 N 
HETATM    7  H   UNL     1     -41.306  56.665 -52.998  1.00  0.00     0.169 HD
HETATM    8  O   UNL     1     -43.880  55.102 -54.085  1.00  0.00    -0.262 OA
BRANCH   6   9
HETATM    9  C   UNL     1     -41.227  54.629 -52.691  1.00  0.00     0.065 A 
HETATM   10  C   UNL     1     -40.809  53.601 -53.546  1.00  0.00     0.038 A 
HETATM   11  C   UNL     1     -40.199  52.454 -53.032  1.00  0.00    -0.059 A 
HETATM   12  C   UNL     1     -39.740  51.351 -53.941  1.00  0.00     0.048 C 
HETATM   13  C   UNL     1     -40.010  52.346 -51.651  1.00  0.00     0.020 A 
HETATM   14  C   UNL     1     -40.427  53.372 -50.787  1.00  0.00    -0.005 A 
HETATM   15  C   UNL     1     -41.044  54.532 -51.302  1.00  0.00     0.093 A 
HETATM   16  C   UNL     1     -40.245  53.276 -49.401  1.00  0.00     0.015 A 
HETATM   17  N   UNL     1     -41.453  55.537 -50.491  1.00  0.00    -0.258 NA
HETATM   18  C   UNL     1     -41.261  55.407 -49.160  1.00  0.00     0.117 A 
HETATM   19  C   UNL     1     -40.668  54.308 -48.573  1.00  0.00     0.020 A 
ENDBRANCH   6   9
ENDBRANCH   1   5
BRANCH   2  20
HETATM   20  C   UNL     1     -45.178  58.933 -54.902  1.00  0.00     0.123 C 
BRANCH  20  21
HETATM   21  C   UNL     1     -45.633  58.858 -56.358  1.00  0.00     0.024 C 
BRANCH  21  22
HETATM   22  C   UNL     1     -44.494  59.148 -57.338  1.00  0.00     0.042 C 
BRANCH  22  23
HETATM   23  C   UNL     1     -43.927  57.899 -57.933  1.00  0.00    -0.030 A 
HETATM   24  C   UNL     1     -44.583  57.017 -58.851  1.00  0.00    -0.002 A 
HETATM   25  C   UNL     1     -43.695  55.983 -59.147  1.00  0.00     0.042 A 
HETATM   26  C   UNL     1     -45.858  57.001 -59.455  1.00  0.00     0.014 A 
HETATM   27  C   UNL     1     -44.014  54.935 -60.020  1.00  0.00     0.030 A 
HETATM   28  N   UNL     1     -42.541  56.227 -58.439  1.00  0.00    -0.365 N 
HETATM   29  C   UNL     1     -45.283  54.944 -60.606  1.00  0.00     0.002 A 
HETATM   30  C   UNL     1     -46.194  55.961 -60.328  1.00  0.00     0.001 A 
HETATM   31  H   UNL     1     -41.722  55.638 -58.462  1.00  0.00     0.165 HD
HETATM   32  C   UNL     1     -42.669  57.376 -57.705  1.00  0.00     0.096 A 
ENDBRANCH  22  23
ENDBRANCH  21  22
ENDBRANCH  20  21
ENDBRANCH   2  20
TORSDOF 6
ENDMDL
MODEL 6
REMARK VINA RESULT:      -8.3      3.062      7.884
REMARK  6 active torsions:
REMARK  status: ('A' for Active; 'I' for Inactive)
REMARK    1  A    between atoms: C_4  and  N_5 
REMARK       I    between atoms: N_5  and  C_6 
REMARK    2  A    between atoms: C_6  and  C_7 
REMARK       I    between atoms: C_7  and  N_8 
REMARK    3  A    between atoms: N_8  and  C_9 
REMARK    4  A    between atoms: C_9  and  C_10 
REMARK    5  A    between atoms: C_10  and  C_11 
REMARK    6  A    between atoms: C_11  and  C_12 
ROOT
HETATM    1  C   UNL     1     -43.062  54.795 -54.018  1.00  0.00     0.309 C 
HETATM    2  N   UNL     1     -43.545  54.943 -52.736  1.00  0.00    -0.353 N 
HETATM    3  O   UNL     1     -42.372  53.873 -54.426  1.00  0.00    -0.262 OA
HETATM    4  H   UNL     1     -44.059  55.801 -52.549  1.00  0.00     0.162 HD
ENDROOT
BRANCH   1   5
HETATM    5  C   UNL     1     -43.454  55.957 -54.958  1.00  0.00     0.314 C 
HETATM    6  N   UNL     1     -42.762  55.930 -56.143  1.00  0.00    -0.317 N 
HETATM    7  H   UNL     1     -42.098  55.161 -56.268  1.00  0.00     0.169 HD
HETATM    8  O   UNL     1     -44.294  56.760 -54.574  1.00  0.00    -0.262 OA
BRANCH   6   9
HETATM    9  C   UNL     1     -42.832  56.828 -57.232  1.00  0.00     0.065 A 
HETATM   10  C   UNL     1     -42.351  58.142 -57.167  1.00  0.00     0.038 A 
HETATM   11  C   UNL     1     -42.443  58.988 -58.275  1.00  0.00    -0.059 A 
HETATM   12  C   UNL     1     -41.923  60.395 -58.216  1.00  0.00     0.048 C 
HETATM   13  C   UNL     1     -43.022  58.505 -59.452  1.00  0.00     0.020 A 
HETATM   14  C   UNL     1     -43.508  57.189 -59.524  1.00  0.00    -0.005 A 
HETATM   15  C   UNL     1     -43.417  56.331 -58.408  1.00  0.00     0.093 A 
HETATM   16  C   UNL     1     -44.092  56.692 -60.698  1.00  0.00     0.015 A 
HETATM   17  N   UNL     1     -43.875  55.057 -58.453  1.00  0.00    -0.258 NA
HETATM   18  C   UNL     1     -44.432  54.615 -59.601  1.00  0.00     0.117 A 
HETATM   19  C   UNL     1     -44.562  55.385 -60.739  1.00  0.00     0.020 A 
ENDBRANCH   6   9
ENDBRANCH   1   5
BRANCH   2  20
HETATM   20  C   UNL     1     -43.189  54.051 -51.658  1.00  0.00     0.123 C 
BRANCH  20  21
HETATM   21  C   UNL     1     -42.041  54.589 -50.805  1.00  0.00     0.024 C 
BRANCH  21  22
HETATM   22  C   UNL     1     -40.670  54.227 -51.380  1.00  0.00     0.042 C 
BRANCH  22  23
HETATM   23  C   UNL     1     -40.377  52.765 -51.269  1.00  0.00    -0.030 A 
HETATM   24  C   UNL     1     -40.078  51.869 -52.346  1.00  0.00    -0.002 A 
HETATM   25  C   UNL     1     -39.871  50.605 -51.795  1.00  0.00     0.042 A 
HETATM   26  C   UNL     1     -39.969  52.019 -53.745  1.00  0.00     0.014 A 
HETATM   27  C   UNL     1     -39.557  49.482 -52.570  1.00  0.00     0.030 A 
HETATM   28  N   UNL     1     -40.036  50.726 -50.435  1.00  0.00    -0.365 N 
HETATM   29  C   UNL     1     -39.453  49.658 -53.953  1.00  0.00     0.002 A 
HETATM   30  C   UNL     1     -39.656  50.908 -54.534  1.00  0.00     0.001 A 
HETATM   31  H   UNL     1     -39.945  49.963 -49.779  1.00  0.00     0.165 HD
HETATM   32  C   UNL     1     -40.341  52.019 -50.107  1.00  0.00     0.096 A 
ENDBRANCH  22  23
ENDBRANCH  21  22
ENDBRANCH  20  21
ENDBRANCH   2  20
TORSDOF 6
ENDMDL
MODEL 7
REMARK VINA RESULT:      -8.2      2.828      6.034
REMARK  6 active torsions:
REMARK  status: ('A' for Active; 'I' for Inactive)
REMARK    1  A    between atoms: C_4  and  N_5 
REMARK       I    between atoms: N_5  and  C_6 
REMARK    2  A    between atoms: C_6  and  C_7 
REMARK       I    between atoms: C_7  and  N_8 
REMARK    3  A    between atoms: N_8  and  C_9 
REMARK    4  A    between atoms: C_9  and  C_10 
REMARK    5  A    between atoms: C_10  and  C_11 
REMARK    6  A    between atoms: C_11  and  C_12 
ROOT
HETATM    1  C   UNL     1     -44.677  57.954 -52.111  1.00  0.00     0.309 C 
HETATM    2  N   UNL     1     -44.275  58.037 -53.427  1.00  0.00    -0.353 N 
HETATM    3  O   UNL     1     -45.425  58.730 -51.536  1.00  0.00    -0.262 OA
HETATM    4  H   UNL     1     -43.602  57.337 -53.733  1.00  0.00     0.162 HD
ENDROOT
BRANCH   1   5
HETATM    5  C   UNL     1     -44.061  56.753 -51.358  1.00  0.00     0.314 C 
HETATM    6  N   UNL     1     -42.804  56.440 -51.809  1.00  0.00    -0.317 N 
HETATM    7  H   UNL     1     -42.427  57.025 -52.559  1.00  0.00     0.169 HD
HETATM    8  O   UNL     1     -44.723  56.214 -50.480  1.00  0.00    -0.262 OA
BRANCH   6   9
HETATM    9  C   UNL     1     -41.942  55.403 -51.384  1.00  0.00     0.065 A 
HETATM   10  C   UNL     1     -41.518  55.263 -50.056  1.00  0.00     0.038 A 
HETATM   11  C   UNL     1     -40.667  54.217 -49.689  1.00  0.00    -0.059 A 
HETATM   12  C   UNL     1     -40.214  54.055 -48.267  1.00  0.00     0.048 C 
HETATM   13  C   UNL     1     -40.244  53.311 -50.665  1.00  0.00     0.020 A 
HETATM   14  C   UNL     1     -40.664  53.446 -51.999  1.00  0.00    -0.005 A 
HETATM   15  C   UNL     1     -41.524  54.500 -52.374  1.00  0.00     0.093 A 
HETATM   16  C   UNL     1     -40.247  52.545 -52.988  1.00  0.00     0.015 A 
HETATM   17  N   UNL     1     -41.945  54.650 -53.652  1.00  0.00    -0.258 NA
HETATM   18  C   UNL     1     -41.520  53.762 -54.578  1.00  0.00     0.117 A 
HETATM   19  C   UNL     1     -40.681  52.704 -54.298  1.00  0.00     0.020 A 
ENDBRANCH   6   9
ENDBRANCH   1   5
BRANCH   2  20
HETATM   20  C   UNL     1     -44.614  59.152 -54.279  1.00  0.00     0.123 C 
BRANCH  20  21
HETATM   21  C   UNL     1     -45.234  58.711 -55.604  1.00  0.00     0.024 C 
BRANCH  21  22
HETATM   22  C   UNL     1     -44.299  58.950 -56.792  1.00  0.00     0.042 C 
BRANCH  22  23
HETATM   23  C   UNL     1     -43.832  57.671 -57.411  1.00  0.00    -0.030 A 
HETATM   24  C   UNL     1     -44.459  56.967 -58.488  1.00  0.00    -0.002 A 
HETATM   25  C   UNL     1     -43.692  55.831 -58.748  1.00  0.00     0.042 A 
HETATM   26  C   UNL     1     -45.614  57.190 -59.267  1.00  0.00     0.014 A 
HETATM   27  C   UNL     1     -44.020  54.907 -59.749  1.00  0.00     0.030 A 
HETATM   28  N   UNL     1     -42.639  55.844 -57.864  1.00  0.00    -0.365 N 
HETATM   29  C   UNL     1     -45.169  55.152 -60.506  1.00  0.00     0.002 A 
HETATM   30  C   UNL     1     -45.957  56.277 -60.270  1.00  0.00     0.001 A 
HETATM   31  H   UNL     1     -41.919  55.137 -57.824  1.00  0.00     0.165 HD
HETATM   32  C   UNL     1     -42.713  56.946 -57.055  1.00  0.00     0.096 A 
ENDBRANCH  22  23
ENDBRANCH  21  22
ENDBRANCH  20  21
ENDBRANCH   2  20
TORSDOF 6
ENDMDL
MODEL 8
REMARK VINA RESULT:      -8.2      2.690      5.485
REMARK  6 active torsions:
REMARK  status: ('A' for Active; 'I' for Inactive)
REMARK    1  A    between atoms: C_4  and  N_5 
REMARK       I    between atoms: N_5  and  C_6 
REMARK    2  A    between atoms: C_6  and  C_7 
REMARK       I    between atoms: C_7  and  N_8 
REMARK    3  A    between atoms: N_8  and  C_9 
REMARK    4  A    between atoms: C_9  and  C_10 
REMARK    5  A    between atoms: C_10  and  C_11 
REMARK    6  A    between atoms: C_11  and  C_12 
ROOT
HETATM    1  C   UNL     1     -44.373  57.950 -51.738  1.00  0.00     0.309 C 
HETATM    2  N   UNL     1     -44.502  57.838 -53.106  1.00  0.00    -0.353 N 
HETATM    3  O   UNL     1     -44.593  58.951 -51.073  1.00  0.00    -0.262 OA
HETATM    4  H   UNL     1     -44.223  56.946 -53.509  1.00  0.00     0.162 HD
ENDROOT
BRANCH   1   5
HETATM    5  C   UNL     1     -43.874  56.653 -51.062  1.00  0.00     0.314 C 
HETATM    6  N   UNL     1     -42.538  56.428 -51.279  1.00  0.00    -0.317 N 
HETATM    7  H   UNL     1     -42.039  57.129 -51.834  1.00  0.00     0.169 HD
HETATM    8  O   UNL     1     -44.679  55.974 -50.438  1.00  0.00    -0.262 OA
BRANCH   6   9
HETATM    9  C   UNL     1     -41.738  55.348 -50.843  1.00  0.00     0.065 A 
HETATM   10  C   UNL     1     -41.373  55.164 -49.503  1.00  0.00     0.038 A 
HETATM   11  C   UNL     1     -40.581  54.076 -49.125  1.00  0.00    -0.059 A 
HETATM   12  C   UNL     1     -40.191  53.867 -47.690  1.00  0.00     0.048 C 
HETATM   13  C   UNL     1     -40.160  53.170 -50.103  1.00  0.00     0.020 A 
HETATM   14  C   UNL     1     -40.522  53.349 -51.449  1.00  0.00    -0.005 A 
HETATM   15  C   UNL     1     -41.321  54.445 -51.834  1.00  0.00     0.093 A 
HETATM   16  C   UNL     1     -40.105  52.449 -52.440  1.00  0.00     0.015 A 
HETATM   17  N   UNL     1     -41.686  54.639 -53.125  1.00  0.00    -0.258 NA
HETATM   18  C   UNL     1     -41.264  53.751 -54.051  1.00  0.00     0.117 A 
HETATM   19  C   UNL     1     -40.481  52.652 -53.762  1.00  0.00     0.020 A 
ENDBRANCH   6   9
ENDBRANCH   1   5
BRANCH   2  20
HETATM   20  C   UNL     1     -44.820  58.961 -53.956  1.00  0.00     0.123 C 
BRANCH  20  21
HETATM   21  C   UNL     1     -43.736  59.235 -54.997  1.00  0.00     0.024 C 
BRANCH  21  22
HETATM   22  C   UNL     1     -42.662  58.145 -55.019  1.00  0.00     0.042 C 
BRANCH  22  23
HETATM   23  C   UNL     1     -42.859  57.179 -56.143  1.00  0.00    -0.030 A 
HETATM   24  C   UNL     1     -42.573  57.409 -57.527  1.00  0.00    -0.002 A 
HETATM   25  C   UNL     1     -42.903  56.246 -58.222  1.00  0.00     0.042 A 
HETATM   26  C   UNL     1     -42.065  58.507 -58.254  1.00  0.00     0.014 A 
HETATM   27  C   UNL     1     -42.749  56.122 -59.609  1.00  0.00     0.030 A 
HETATM   28  N   UNL     1     -43.370  55.342 -57.298  1.00  0.00    -0.365 N 
HETATM   29  C   UNL     1     -42.243  57.224 -60.306  1.00  0.00     0.002 A 
HETATM   30  C   UNL     1     -41.906  58.400 -59.640  1.00  0.00     0.001 A 
HETATM   31  H   UNL     1     -43.683  54.408 -57.520  1.00  0.00     0.165 HD
HETATM   32  C   UNL     1     -43.349  55.891 -56.044  1.00  0.00     0.096 A 
ENDBRANCH  22  23
ENDBRANCH  21  22
ENDBRANCH  20  21
ENDBRANCH   2  20
TORSDOF 6
ENDMDL
MODEL 9
REMARK VINA RESULT:      -8.1      2.202      5.027
REMARK  6 active torsions:
REMARK  status: ('A' for Active; 'I' for Inactive)
REMARK    1  A    between atoms: C_4  and  N_5 
REMARK       I    between atoms: N_5  and  C_6 
REMARK    2  A    between atoms: C_6  and  C_7 
REMARK       I    between atoms: C_7  and  N_8 
REMARK    3  A    between atoms: N_8  and  C_9 
REMARK    4  A    between atoms: C_9  and  C_10 
REMARK    5  A    between atoms: C_10  and  C_11 
REMARK    6  A    between atoms: C_11  and  C_12 
ROOT
HETATM    1  C   UNL     1     -41.954  59.350 -52.201  1.00  0.00     0.309 C 
HETATM    2  N   UNL     1     -43.224  59.433 -51.673  1.00  0.00    -0.353 N 
HETATM    3  O   UNL     1     -41.498  60.048 -53.095  1.00  0.00    -0.262 OA
HETATM    4  H   UNL     1     -43.461  58.737 -50.969  1.00  0.00     0.162 HD
ENDROOT
BRANCH   1   5
HETATM    5  C   UNL     1     -41.098  58.231 -51.565  1.00  0.00     0.314 C 
HETATM    6  N   UNL     1     -41.676  56.993 -51.692  1.00  0.00    -0.317 N 
HETATM    7  H   UNL     1     -42.571  56.953 -52.188  1.00  0.00     0.169 HD
HETATM    8  O   UNL     1     -40.044  58.538 -51.025  1.00  0.00    -0.262 OA
BRANCH   6   9
HETATM    9  C   UNL     1     -41.208  55.744 -51.225  1.00  0.00     0.065 A 
HETATM   10  C   UNL     1     -41.028  55.459 -49.865  1.00  0.00     0.038 A 
HETATM   11  C   UNL     1     -40.564  54.205 -49.457  1.00  0.00    -0.059 A 
HETATM   12  C   UNL     1     -40.375  53.889 -48.002  1.00  0.00     0.048 C 
HETATM   13  C   UNL     1     -40.283  53.237 -50.426  1.00  0.00     0.020 A 
HETATM   14  C   UNL     1     -40.461  53.516 -51.791  1.00  0.00    -0.005 A 
HETATM   15  C   UNL     1     -40.929  54.780 -52.207  1.00  0.00     0.093 A 
HETATM   16  C   UNL     1     -40.183  52.554 -52.772  1.00  0.00     0.015 A 
HETATM   17  N   UNL     1     -41.112  55.073 -53.517  1.00  0.00    -0.258 NA
HETATM   18  C   UNL     1     -40.831  54.120 -54.433  1.00  0.00     0.117 A 
HETATM   19  C   UNL     1     -40.370  52.859 -54.115  1.00  0.00     0.020 A 
ENDBRANCH   6   9
ENDBRANCH   1   5
BRANCH   2  20
HETATM   20  C   UNL     1     -44.238  60.310 -52.208  1.00  0.00     0.123 C 
BRANCH  20  21
HETATM   21  C   UNL     1     -45.252  59.574 -53.081  1.00  0.00     0.024 C 
BRANCH  21  22
HETATM   22  C   UNL     1     -44.817  59.505 -54.546  1.00  0.00     0.042 C 
BRANCH  22  23
HETATM   23  C   UNL     1     -44.376  58.132 -54.941  1.00  0.00    -0.030 A 
HETATM   24  C   UNL     1     -43.863  57.734 -56.218  1.00  0.00    -0.002 A 
HETATM   25  C   UNL     1     -43.576  56.371 -56.149  1.00  0.00     0.042 A 
HETATM   26  C   UNL     1     -43.620  58.412 -57.432  1.00  0.00     0.014 A 
HETATM   27  C   UNL     1     -43.055  55.650 -57.230  1.00  0.00     0.030 A 
HETATM   28  N   UNL     1     -43.900  55.955 -54.879  1.00  0.00    -0.365 N 
HETATM   29  C   UNL     1     -42.823  56.345 -58.421  1.00  0.00     0.002 A 
HETATM   30  C   UNL     1     -43.100  57.706 -58.522  1.00  0.00     0.001 A 
HETATM   31  H   UNL     1     -43.795  55.007 -54.544  1.00  0.00     0.165 HD
HETATM   32  C   UNL     1     -44.383  57.004 -54.144  1.00  0.00     0.096 A 
ENDBRANCH  22  23
ENDBRANCH  21  22
ENDBRANCH  20  21
ENDBRANCH   2  20
TORSDOF 6
ENDMDL
MODEL 10
REMARK VINA RESULT:      -8.1      2.030      3.892
REMARK  6 active torsions:
REMARK  status: ('A' for Active; 'I' for Inactive)
REMARK    1  A    between atoms: C_4  and  N_5 
REMARK       I    between atoms: N_5  and  C_6 
REMARK    2  A    between atoms: C_6  and  C_7 
REMARK       I    between atoms: C_7  and  N_8 
REMARK    3  A    between atoms: N_8  and  C_9 
REMARK    4  A    between atoms: C_9  and  C_10 
REMARK    5  A    between atoms: C_10  and  C_11 
REMARK    6  A    between atoms: C_11  and  C_12 
ROOT
HETATM    1  C   UNL     1     -44.543  57.739 -52.024  1.00  0.00     0.309 C 
HETATM    2  N   UNL     1     -45.086  58.709 -51.209  1.00  0.00    -0.353 N 
HETATM    3  O   UNL     1     -44.505  57.763 -53.245  1.00  0.00    -0.262 OA
HETATM    4  H   UNL     1     -45.085  58.506 -50.211  1.00  0.00     0.162 HD
ENDROOT
BRANCH   1   5
HETATM    5  C   UNL     1     -43.973  56.533 -51.243  1.00  0.00     0.314 C 
HETATM    6  N   UNL     1     -42.675  56.251 -51.590  1.00  0.00    -0.317 N 
HETATM    7  H   UNL     1     -42.245  56.859 -52.292  1.00  0.00     0.169 HD
HETATM    8  O   UNL     1     -44.698  55.963 -50.439  1.00  0.00    -0.262 OA
BRANCH   6   9
HETATM    9  C   UNL     1     -41.834  55.221 -51.112  1.00  0.00     0.065 A 
HETATM   10  C   UNL     1     -41.460  55.106 -49.767  1.00  0.00     0.038 A 
HETATM   11  C   UNL     1     -40.627  54.066 -49.346  1.00  0.00    -0.059 A 
HETATM   12  C   UNL     1     -40.227  53.931 -47.906  1.00  0.00     0.048 C 
HETATM   13  C   UNL     1     -40.173  53.137 -50.288  1.00  0.00     0.020 A 
HETATM   14  C   UNL     1     -40.543  53.246 -51.638  1.00  0.00    -0.005 A 
HETATM   15  C   UNL     1     -41.383  54.295 -52.067  1.00  0.00     0.093 A 
HETATM   16  C   UNL     1     -40.094  52.323 -52.593  1.00  0.00     0.015 A 
HETATM   17  N   UNL     1     -41.757  54.420 -53.363  1.00  0.00    -0.258 NA
HETATM   18  C   UNL     1     -41.303  53.512 -54.253  1.00  0.00     0.117 A 
HETATM   19  C   UNL     1     -40.478  52.456 -53.921  1.00  0.00     0.020 A 
ENDBRANCH   6   9
ENDBRANCH   1   5
BRANCH   2  20
HETATM   20  C   UNL     1     -45.797  59.855 -51.724  1.00  0.00     0.123 C 
BRANCH  20  21
HETATM   21  C   UNL     1     -45.278  61.174 -51.154  1.00  0.00     0.024 C 
BRANCH  21  22
HETATM   22  C   UNL     1     -44.379  61.921 -52.143  1.00  0.00     0.042 C 
BRANCH  22  23
HETATM   23  C   UNL     1     -43.292  61.052 -52.688  1.00  0.00    -0.030 A 
HETATM   24  C   UNL     1     -42.268  60.392 -51.935  1.00  0.00    -0.002 A 
HETATM   25  C   UNL     1     -41.471  59.688 -52.838  1.00  0.00     0.042 A 
HETATM   26  C   UNL     1     -41.943  60.332 -50.563  1.00  0.00     0.014 A 
HETATM   27  C   UNL     1     -40.366  58.926 -52.439  1.00  0.00     0.030 A 
HETATM   28  N   UNL     1     -41.990  59.910 -54.092  1.00  0.00    -0.365 N 
HETATM   29  C   UNL     1     -40.067  58.882 -51.074  1.00  0.00     0.002 A 
HETATM   30  C   UNL     1     -40.843  59.575 -50.148  1.00  0.00     0.001 A 
HETATM   31  H   UNL     1     -41.611  59.521 -54.943  1.00  0.00     0.165 HD
HETATM   32  C   UNL     1     -43.085  60.728 -54.014  1.00  0.00     0.096 A 
ENDBRANCH  22  23
ENDBRANCH  21  22
ENDBRANCH  20  21
ENDBRANCH   2  20
TORSDOF 6
ENDMDL
