MODEL 1
REMARK VINA RESULT:      -8.9      0.000      0.000
REMARK  5 active torsions:
REMARK  status: ('A' for Active; 'I' for Inactive)
REMARK    1  A    between atoms: C_5  and  N_6 
REMARK       I    between atoms: N_6  and  C_7 
REMARK    2  A    between atoms: C_7  and  C_8 
REMARK    3  A    between atoms: C_9  and  C_10 
REMARK    4  A    between atoms: C_13  and  O_14 
REMARK    5  A    between atoms: N_20  and  C_21 
ROOT
HETATM    1  C   UNL     1     -42.454  56.345 -54.861  1.00  0.00     0.060 C 
HETATM    2  C   UNL     1     -41.039  56.178 -54.429  1.00  0.00     0.158 C 
HETATM    3  N   UNL     1     -40.709  57.143 -53.412  1.00  0.00    -0.354 N 
HETATM    4  C   UNL     1     -41.595  57.842 -52.642  1.00  0.00     0.179 C 
HETATM    5  S   UNL     1     -40.894  58.721 -51.389  1.00  0.00    -0.040 SA
HETATM    6  N   UNL     1     -42.956  57.785 -53.024  1.00  0.00    -0.292 N 
HETATM    7  C   UNL     1     -43.357  57.090 -54.190  1.00  0.00     0.030 C 
HETATM    8  C   UNL     1     -44.809  57.149 -54.620  1.00  0.00     0.070 C 
HETATM    9  H   UNL     1     -39.744  57.196 -53.108  1.00  0.00     0.163 HD
ENDROOT
BRANCH   1  10
HETATM   10  C   UNL     1     -42.786  55.760 -56.189  1.00  0.00     0.257 C 
HETATM   11  N   UNL     1     -42.650  56.655 -57.223  1.00  0.00    -0.306 N 
HETATM   12  H   UNL     1     -42.319  57.591 -57.040  1.00  0.00     0.170 HD
HETATM   13  O   UNL     1     -43.146  54.592 -56.242  1.00  0.00    -0.267 OA
BRANCH  11  14
HETATM   14  C   UNL     1     -43.013  56.385 -58.531  1.00  0.00     0.160 A 
HETATM   15  N   UNL     1     -42.319  56.716 -59.622  1.00  0.00    -0.110 NA
HETATM   16  O   UNL     1     -43.031  56.234 -60.701  1.00  0.00    -0.216 OA
HETATM   17  C   UNL     1     -44.149  55.606 -60.258  1.00  0.00     0.078 A 
HETATM   18  C   UNL     1     -45.022  55.009 -61.285  1.00  0.00     0.079 C 
HETATM   19  C   UNL     1     -44.191  55.681 -58.888  1.00  0.00     0.087 A 
ENDBRANCH  11  14
ENDBRANCH   1  10
BRANCH   2  20
HETATM   20  C   UNL     1     -40.730  54.777 -53.916  1.00  0.00    -0.031 A 
HETATM   21  C   UNL     1     -40.948  54.457 -52.565  1.00  0.00     0.012 A 
HETATM   22  C   UNL     1     -40.642  53.184 -52.075  1.00  0.00     0.037 A 
HETATM   23  C   UNL     1     -40.115  52.228 -52.935  1.00  0.00     0.065 A 
HETATM   24  C   UNL     1     -39.891  52.520 -54.274  1.00  0.00     0.037 A 
HETATM   25  C   UNL     1     -40.203  53.788 -54.765  1.00  0.00     0.012 A 
BRANCH  23  26
HETATM   26  O   UNL     1     -39.800  50.976 -52.499  1.00  0.00    -0.361 OA
HETATM   27  H   UNL     1     -39.222  50.551 -53.155  1.00  0.00     0.217 HD
ENDBRANCH  23  26
ENDBRANCH   2  20
BRANCH   6  28
HETATM   28  C   UNL     1     -43.900  58.576 -52.283  1.00  0.00     0.042 A 
HETATM   29  C   UNL     1     -44.660  57.996 -51.259  1.00  0.00     0.030 A 
HETATM   30  C   UNL     1     -45.581  58.766 -50.547  1.00  0.00     0.002 A 
HETATM   31  C   UNL     1     -45.753  60.115 -50.858  1.00  0.00     0.000 A 
HETATM   32  C   UNL     1     -45.003  60.697 -51.879  1.00  0.00     0.002 A 
HETATM   33  C   UNL     1     -44.076  59.932 -52.590  1.00  0.00     0.030 A 
ENDBRANCH   6  28
TORSDOF 5
ENDMDL
MODEL 2
REMARK VINA RESULT:      -8.4      2.567      6.706
REMARK  5 active torsions:
REMARK  status: ('A' for Active; 'I' for Inactive)
REMARK    1  A    between atoms: C_5  and  N_6 
REMARK       I    between atoms: N_6  and  C_7 
REMARK    2  A    between atoms: C_7  and  C_8 
REMARK    3  A    between atoms: C_9  and  C_10 
REMARK    4  A    between atoms: C_13  and  O_14 
REMARK    5  A    between atoms: N_20  and  C_21 
ROOT
HETATM    1  C   UNL     1     -42.407  56.540 -54.739  1.00  0.00     0.060 C 
HETATM    2  C   UNL     1     -42.180  57.707 -53.842  1.00  0.00     0.158 C 
HETATM    3  N   UNL     1     -41.932  58.894 -54.619  1.00  0.00    -0.354 N 
HETATM    4  C   UNL     1     -42.239  59.078 -55.937  1.00  0.00     0.179 C 
HETATM    5  S   UNL     1     -42.030  60.652 -56.493  1.00  0.00    -0.040 SA
HETATM    6  N   UNL     1     -42.630  57.930 -56.666  1.00  0.00    -0.292 N 
HETATM    7  C   UNL     1     -42.633  56.649 -56.064  1.00  0.00     0.030 C 
HETATM    8  C   UNL     1     -42.953  55.436 -56.915  1.00  0.00     0.070 C 
HETATM    9  H   UNL     1     -41.663  59.735 -54.121  1.00  0.00     0.163 HD
ENDROOT
BRANCH   1  10
HETATM   10  C   UNL     1     -42.210  55.206 -54.108  1.00  0.00     0.257 C 
HETATM   11  N   UNL     1     -40.894  54.812 -54.074  1.00  0.00    -0.306 N 
HETATM   12  H   UNL     1     -40.175  55.428 -54.426  1.00  0.00     0.170 HD
HETATM   13  O   UNL     1     -43.192  54.598 -53.702  1.00  0.00    -0.267 OA
BRANCH  11  14
HETATM   14  C   UNL     1     -40.471  53.566 -53.648  1.00  0.00     0.160 A 
HETATM   15  N   UNL     1     -40.200  53.218 -52.388  1.00  0.00    -0.110 NA
HETATM   16  O   UNL     1     -39.841  51.887 -52.417  1.00  0.00    -0.216 OA
HETATM   17  C   UNL     1     -39.903  51.431 -53.694  1.00  0.00     0.078 A 
HETATM   18  C   UNL     1     -39.568  50.011 -53.906  1.00  0.00     0.079 C 
HETATM   19  C   UNL     1     -40.291  52.460 -54.516  1.00  0.00     0.087 A 
ENDBRANCH  11  14
ENDBRANCH   1  10
BRANCH   2  20
HETATM   20  C   UNL     1     -43.339  57.962 -52.886  1.00  0.00    -0.031 A 
HETATM   21  C   UNL     1     -44.271  58.977 -53.162  1.00  0.00     0.012 A 
HETATM   22  C   UNL     1     -45.322  59.241 -52.279  1.00  0.00     0.037 A 
HETATM   23  C   UNL     1     -45.443  58.490 -51.115  1.00  0.00     0.065 A 
HETATM   24  C   UNL     1     -44.535  57.480 -50.821  1.00  0.00     0.037 A 
HETATM   25  C   UNL     1     -43.490  57.213 -51.705  1.00  0.00     0.012 A 
BRANCH  23  26
HETATM   26  O   UNL     1     -46.450  58.714 -50.225  1.00  0.00    -0.361 OA
HETATM   27  H   UNL     1     -46.067  59.029 -49.389  1.00  0.00     0.217 HD
ENDBRANCH  23  26
ENDBRANCH   2  20
BRANCH   6  28
HETATM   28  C   UNL     1     -42.880  58.077 -58.074  1.00  0.00     0.042 A 
HETATM   29  C   UNL     1     -44.187  58.257 -58.547  1.00  0.00     0.030 A 
HETATM   30  C   UNL     1     -44.426  58.391 -59.915  1.00  0.00     0.002 A 
HETATM   31  C   UNL     1     -43.364  58.339 -60.818  1.00  0.00     0.000 A 
HETATM   32  C   UNL     1     -42.062  58.156 -60.356  1.00  0.00     0.002 A 
HETATM   33  C   UNL     1     -41.817  58.027 -58.986  1.00  0.00     0.030 A 
ENDBRANCH   6  28
TORSDOF 5
ENDMDL
MODEL 3
REMARK VINA RESULT:      -7.9      2.671      5.878
REMARK  5 active torsions:
REMARK  status: ('A' for Active; 'I' for Inactive)
REMARK    1  A    between atoms: C_5  and  N_6 
REMARK       I    between atoms: N_6  and  C_7 
REMARK    2  A    between atoms: C_7  and  C_8 
REMARK    3  A    between atoms: C_9  and  C_10 
REMARK    4  A    between atoms: C_13  and  O_14 
REMARK    5  A    between atoms: N_20  and  C_21 
ROOT
HETATM    1  C   UNL     1     -42.927  56.631 -54.503  1.00  0.00     0.060 C 
HETATM    2  C   UNL     1     -43.936  57.003 -53.473  1.00  0.00     0.158 C 
HETATM    3  N   UNL     1     -44.096  55.934 -52.521  1.00  0.00    -0.354 N 
HETATM    4  C   UNL     1     -43.222  54.907 -52.302  1.00  0.00     0.179 C 
HETATM    5  S   UNL     1     -43.586  53.950 -50.967  1.00  0.00    -0.040 SA
HETATM    6  N   UNL     1     -42.175  54.750 -53.241  1.00  0.00    -0.292 N 
HETATM    7  C   UNL     1     -42.090  55.580 -54.385  1.00  0.00     0.030 C 
HETATM    8  C   UNL     1     -41.017  55.302 -55.418  1.00  0.00     0.070 C 
HETATM    9  H   UNL     1     -44.829  56.027 -51.828  1.00  0.00     0.163 HD
ENDROOT
BRANCH   1  10
HETATM   10  C   UNL     1     -42.998  57.406 -55.772  1.00  0.00     0.257 C 
HETATM   11  N   UNL     1     -43.892  56.884 -56.676  1.00  0.00    -0.306 N 
HETATM   12  H   UNL     1     -44.441  56.073 -56.429  1.00  0.00     0.170 HD
HETATM   13  O   UNL     1     -42.282  58.391 -55.900  1.00  0.00    -0.267 OA
BRANCH  11  14
HETATM   14  C   UNL     1     -44.050  57.354 -57.967  1.00  0.00     0.160 A 
HETATM   15  N   UNL     1     -43.544  56.799 -59.071  1.00  0.00    -0.110 NA
HETATM   16  O   UNL     1     -43.967  57.577 -60.129  1.00  0.00    -0.216 OA
HETATM   17  C   UNL     1     -44.734  58.595 -59.663  1.00  0.00     0.078 A 
HETATM   18  C   UNL     1     -45.290  59.518 -60.668  1.00  0.00     0.079 C 
HETATM   19  C   UNL     1     -44.811  58.504 -58.295  1.00  0.00     0.087 A 
ENDBRANCH  11  14
ENDBRANCH   1  10
BRANCH   2  20
HETATM   20  C   UNL     1     -43.591  58.290 -52.734  1.00  0.00    -0.031 A 
HETATM   21  C   UNL     1     -42.367  58.407 -52.053  1.00  0.00     0.012 A 
HETATM   22  C   UNL     1     -42.051  59.572 -51.348  1.00  0.00     0.037 A 
HETATM   23  C   UNL     1     -42.961  60.623 -51.319  1.00  0.00     0.065 A 
HETATM   24  C   UNL     1     -44.176  60.532 -51.985  1.00  0.00     0.037 A 
HETATM   25  C   UNL     1     -44.489  59.373 -52.694  1.00  0.00     0.012 A 
BRANCH  23  26
HETATM   26  O   UNL     1     -42.695  61.775 -50.641  1.00  0.00    -0.361 OA
HETATM   27  H   UNL     1     -43.525  62.264 -50.516  1.00  0.00     0.217 HD
ENDBRANCH  23  26
ENDBRANCH   2  20
BRANCH   6  28
HETATM   28  C   UNL     1     -41.288  53.630 -53.083  1.00  0.00     0.042 A 
HETATM   29  C   UNL     1     -40.436  53.552 -51.973  1.00  0.00     0.030 A 
HETATM   30  C   UNL     1     -39.571  52.467 -51.828  1.00  0.00     0.002 A 
HETATM   31  C   UNL     1     -39.547  51.458 -52.790  1.00  0.00     0.000 A 
HETATM   32  C   UNL     1     -40.390  51.531 -53.898  1.00  0.00     0.002 A 
HETATM   33  C   UNL     1     -41.261  52.613 -54.046  1.00  0.00     0.030 A 
ENDBRANCH   6  28
TORSDOF 5
ENDMDL
MODEL 4
REMARK VINA RESULT:      -7.9      2.246      5.799
REMARK  5 active torsions:
REMARK  status: ('A' for Active; 'I' for Inactive)
REMARK    1  A    between atoms: C_5  and  N_6 
REMARK       I    between atoms: N_6  and  C_7 
REMARK    2  A    between atoms: C_7  and  C_8 
REMARK    3  A    between atoms: C_9  and  C_10 
REMARK    4  A    between atoms: C_13  and  O_14 
REMARK    5  A    between atoms: N_20  and  C_21 
ROOT
HETATM    1  C   UNL     1     -42.158  56.700 -54.445  1.00  0.00     0.060 C 
HETATM    2  C   UNL     1     -43.291  56.557 -55.402  1.00  0.00     0.158 C 
HETATM    3  N   UNL     1     -44.370  57.437 -55.035  1.00  0.00    -0.354 N 
HETATM    4  C   UNL     1     -44.283  58.527 -54.216  1.00  0.00     0.179 C 
HETATM    5  S   UNL     1     -45.669  59.480 -54.167  1.00  0.00    -0.040 SA
HETATM    6  N   UNL     1     -43.081  58.681 -53.485  1.00  0.00    -0.292 N 
HETATM    7  C   UNL     1     -42.055  57.708 -53.555  1.00  0.00     0.030 C 
HETATM    8  C   UNL     1     -40.834  57.861 -52.670  1.00  0.00     0.070 C 
HETATM    9  H   UNL     1     -45.238  57.359 -55.551  1.00  0.00     0.163 HD
ENDROOT
BRANCH   1  10
HETATM   10  C   UNL     1     -41.203  55.559 -54.416  1.00  0.00     0.257 C 
HETATM   11  N   UNL     1     -41.683  54.469 -53.729  1.00  0.00    -0.306 N 
HETATM   12  H   UNL     1     -42.613  54.491 -53.337  1.00  0.00     0.170 HD
HETATM   13  O   UNL     1     -40.120  55.685 -54.971  1.00  0.00    -0.267 OA
BRANCH  11  14
HETATM   14  C   UNL     1     -40.937  53.335 -53.461  1.00  0.00     0.160 A 
HETATM   15  N   UNL     1     -40.316  53.058 -52.313  1.00  0.00    -0.110 NA
HETATM   16  O   UNL     1     -39.721  51.824 -52.477  1.00  0.00    -0.216 OA
HETATM   17  C   UNL     1     -39.992  51.355 -53.721  1.00  0.00     0.078 A 
HETATM   18  C   UNL     1     -39.446  50.028 -54.061  1.00  0.00     0.079 C 
HETATM   19  C   UNL     1     -40.754  52.280 -54.391  1.00  0.00     0.087 A 
ENDBRANCH  11  14
ENDBRANCH   1  10
BRANCH   2  20
HETATM   20  C   UNL     1     -42.892  56.823 -56.848  1.00  0.00    -0.031 A 
HETATM   21  C   UNL     1     -43.107  55.842 -57.831  1.00  0.00     0.012 A 
HETATM   22  C   UNL     1     -42.719  56.062 -59.156  1.00  0.00     0.037 A 
HETATM   23  C   UNL     1     -42.113  57.265 -59.501  1.00  0.00     0.065 A 
HETATM   24  C   UNL     1     -41.891  58.250 -58.548  1.00  0.00     0.037 A 
HETATM   25  C   UNL     1     -42.284  58.033 -57.227  1.00  0.00     0.012 A 
BRANCH  23  26
HETATM   26  O   UNL     1     -41.717  57.520 -60.780  1.00  0.00    -0.361 OA
HETATM   27  H   UNL     1     -41.760  56.697 -61.293  1.00  0.00     0.217 HD
ENDBRANCH  23  26
ENDBRANCH   2  20
BRANCH   6  28
HETATM   28  C   UNL     1     -42.991  59.773 -52.555  1.00  0.00     0.042 A 
HETATM   29  C   UNL     1     -42.695  61.066 -53.006  1.00  0.00     0.030 A 
HETATM   30  C   UNL     1     -42.600  62.121 -52.097  1.00  0.00     0.002 A 
HETATM   31  C   UNL     1     -42.795  61.891 -50.736  1.00  0.00     0.000 A 
HETATM   32  C   UNL     1     -43.087  60.607 -50.280  1.00  0.00     0.002 A 
HETATM   33  C   UNL     1     -43.188  59.548 -51.186  1.00  0.00     0.030 A 
ENDBRANCH   6  28
TORSDOF 5
ENDMDL
MODEL 5
REMARK VINA RESULT:      -7.8      1.392      1.648
REMARK  5 active torsions:
REMARK  status: ('A' for Active; 'I' for Inactive)
REMARK    1  A    between atoms: C_5  and  N_6 
REMARK       I    between atoms: N_6  and  C_7 
REMARK    2  A    between atoms: C_7  and  C_8 
REMARK    3  A    between atoms: C_9  and  C_10 
REMARK    4  A    between atoms: C_13  and  O_14 
REMARK    5  A    between atoms: N_20  and  C_21 
ROOT
HETATM    1  C   UNL     1     -42.390  57.832 -54.861  1.00  0.00     0.060 C 
HETATM    2  C   UNL     1     -41.113  57.257 -54.355  1.00  0.00     0.158 C 
HETATM    3  N   UNL     1     -40.818  57.772 -53.043  1.00  0.00    -0.354 N 
HETATM    4  C   UNL     1     -41.703  58.363 -52.187  1.00  0.00     0.179 C 
HETATM    5  S   UNL     1     -41.100  58.650 -50.642  1.00  0.00    -0.040 SA
HETATM    6  N   UNL     1     -42.971  58.704 -52.716  1.00  0.00    -0.292 N 
HETATM    7  C   UNL     1     -43.269  58.500 -54.084  1.00  0.00     0.030 C 
HETATM    8  C   UNL     1     -44.599  58.981 -54.628  1.00  0.00     0.070 C 
HETATM    9  H   UNL     1     -39.923  57.532 -52.633  1.00  0.00     0.163 HD
ENDROOT
BRANCH   1  10
HETATM   10  C   UNL     1     -42.576  57.767 -56.336  1.00  0.00     0.257 C 
HETATM   11  N   UNL     1     -43.160  56.596 -56.757  1.00  0.00    -0.306 N 
HETATM   12  H   UNL     1     -43.444  55.904 -56.079  1.00  0.00     0.170 HD
HETATM   13  O   UNL     1     -42.202  58.712 -57.018  1.00  0.00    -0.267 OA
BRANCH  11  14
HETATM   14  C   UNL     1     -43.327  56.250 -58.086  1.00  0.00     0.160 A 
HETATM   15  N   UNL     1     -42.350  56.030 -58.968  1.00  0.00    -0.110 NA
HETATM   16  O   UNL     1     -42.963  55.690 -60.156  1.00  0.00    -0.216 OA
HETATM   17  C   UNL     1     -44.309  55.697 -59.986  1.00  0.00     0.078 A 
HETATM   18  C   UNL     1     -45.126  55.332 -61.158  1.00  0.00     0.079 C 
HETATM   19  C   UNL     1     -44.594  56.054 -58.691  1.00  0.00     0.087 A 
ENDBRANCH  11  14
ENDBRANCH   1  10
BRANCH   2  20
HETATM   20  C   UNL     1     -41.118  55.734 -54.311  1.00  0.00    -0.031 A 
HETATM   21  C   UNL     1     -40.126  55.006 -54.989  1.00  0.00     0.012 A 
HETATM   22  C   UNL     1     -40.134  53.608 -54.981  1.00  0.00     0.037 A 
HETATM   23  C   UNL     1     -41.138  52.934 -54.294  1.00  0.00     0.065 A 
HETATM   24  C   UNL     1     -42.129  53.631 -53.615  1.00  0.00     0.037 A 
HETATM   25  C   UNL     1     -42.116  55.026 -53.618  1.00  0.00     0.012 A 
BRANCH  23  26
HETATM   26  O   UNL     1     -41.187  51.573 -54.261  1.00  0.00    -0.361 OA
HETATM   27  H   UNL     1     -41.604  51.292 -53.430  1.00  0.00     0.217 HD
ENDBRANCH  23  26
ENDBRANCH   2  20
BRANCH   6  28
HETATM   28  C   UNL     1     -43.894  59.400 -51.862  1.00  0.00     0.042 A 
HETATM   29  C   UNL     1     -44.855  58.691 -51.130  1.00  0.00     0.030 A 
HETATM   30  C   UNL     1     -45.755  59.373 -50.309  1.00  0.00     0.002 A 
HETATM   31  C   UNL     1     -45.704  60.763 -50.220  1.00  0.00     0.000 A 
HETATM   32  C   UNL     1     -44.753  61.476 -50.948  1.00  0.00     0.002 A 
HETATM   33  C   UNL     1     -43.847  60.798 -51.768  1.00  0.00     0.030 A 
ENDBRANCH   6  28
TORSDOF 5
ENDMDL
MODEL 6
REMARK VINA RESULT:      -7.8      3.154      6.241
REMARK  5 active torsions:
REMARK  status: ('A' for Active; 'I' for Inactive)
REMARK    1  A    between atoms: C_5  and  N_6 
REMARK       I    between atoms: N_6  and  C_7 
REMARK    2  A    between atoms: C_7  and  C_8 
REMARK    3  A    between atoms: C_9  and  C_10 
REMARK    4  A    between atoms: C_13  and  O_14 
REMARK    5  A    between atoms: N_20  and  C_21 
ROOT
HETATM    1  C   UNL     1     -42.977  56.762 -54.404  1.00  0.00     0.060 C 
HETATM    2  C   UNL     1     -43.942  57.105 -53.323  1.00  0.00     0.158 C 
HETATM    3  N   UNL     1     -44.086  55.999 -52.411  1.00  0.00    -0.354 N 
HETATM    4  C   UNL     1     -43.222  54.952 -52.267  1.00  0.00     0.179 C 
HETATM    5  S   UNL     1     -43.553  53.944 -50.960  1.00  0.00    -0.040 SA
HETATM    6  N   UNL     1     -42.212  54.818 -53.249  1.00  0.00    -0.292 N 
HETATM    7  C   UNL     1     -42.155  55.694 -54.360  1.00  0.00     0.030 C 
HETATM    8  C   UNL     1     -41.124  55.443 -55.442  1.00  0.00     0.070 C 
HETATM    9  H   UNL     1     -44.792  56.074 -51.688  1.00  0.00     0.163 HD
ENDROOT
BRANCH   1  10
HETATM   10  C   UNL     1     -43.082  57.591 -55.636  1.00  0.00     0.257 C 
HETATM   11  N   UNL     1     -42.156  58.606 -55.685  1.00  0.00    -0.306 N 
HETATM   12  H   UNL     1     -41.476  58.704 -54.945  1.00  0.00     0.170 HD
HETATM   13  O   UNL     1     -43.949  57.318 -56.456  1.00  0.00    -0.267 OA
BRANCH  11  14
HETATM   14  C   UNL     1     -42.129  59.580 -56.668  1.00  0.00     0.160 A 
HETATM   15  N   UNL     1     -42.393  60.876 -56.494  1.00  0.00    -0.110 NA
HETATM   16  O   UNL     1     -42.224  61.479 -57.723  1.00  0.00    -0.216 OA
HETATM   17  C   UNL     1     -41.850  60.546 -58.634  1.00  0.00     0.078 A 
HETATM   18  C   UNL     1     -41.604  61.025 -60.007  1.00  0.00     0.079 C 
HETATM   19  C   UNL     1     -41.783  59.322 -58.018  1.00  0.00     0.087 A 
ENDBRANCH  11  14
ENDBRANCH   1  10
BRANCH   2  20
HETATM   20  C   UNL     1     -43.550  58.355 -52.544  1.00  0.00    -0.031 A 
HETATM   21  C   UNL     1     -42.280  58.446 -51.950  1.00  0.00     0.012 A 
HETATM   22  C   UNL     1     -41.918  59.575 -51.209  1.00  0.00     0.037 A 
HETATM   23  C   UNL     1     -42.827  60.615 -51.058  1.00  0.00     0.065 A 
HETATM   24  C   UNL     1     -44.088  60.549 -51.636  1.00  0.00     0.037 A 
HETATM   25  C   UNL     1     -44.447  59.426 -52.381  1.00  0.00     0.012 A 
BRANCH  23  26
HETATM   26  O   UNL     1     -42.518  61.732 -50.342  1.00  0.00    -0.361 OA
HETATM   27  H   UNL     1     -43.333  62.231 -50.167  1.00  0.00     0.217 HD
ENDBRANCH  23  26
ENDBRANCH   2  20
BRANCH   6  28
HETATM   28  C   UNL     1     -41.339  53.679 -53.170  1.00  0.00     0.042 A 
HETATM   29  C   UNL     1     -41.388  52.679 -54.151  1.00  0.00     0.030 A 
HETATM   30  C   UNL     1     -40.545  51.571 -54.066  1.00  0.00     0.002 A 
HETATM   31  C   UNL     1     -39.653  51.451 -53.000  1.00  0.00     0.000 A 
HETATM   32  C   UNL     1     -39.601  52.440 -52.019  1.00  0.00     0.002 A 
HETATM   33  C   UNL     1     -40.440  53.554 -52.102  1.00  0.00     0.030 A 
ENDBRANCH   6  28
TORSDOF 5
ENDMDL
MODEL 7
REMARK VINA RESULT:      -7.8      2.862      7.278
REMARK  5 active torsions:
REMARK  status: ('A' for Active; 'I' for Inactive)
REMARK    1  A    between atoms: C_5  and  N_6 
REMARK       I    between atoms: N_6  and  C_7 
REMARK    2  A    between atoms: C_7  and  C_8 
REMARK    3  A    between atoms: C_9  and  C_10 
REMARK    4  A    between atoms: C_13  and  O_14 
REMARK    5  A    between atoms: N_20  and  C_21 
ROOT
HETATM    1  C   UNL     1     -41.927  57.028 -54.736  1.00  0.00     0.060 C 
HETATM    2  C   UNL     1     -41.655  58.438 -54.340  1.00  0.00     0.158 C 
HETATM    3  N   UNL     1     -41.873  59.322 -55.456  1.00  0.00    -0.354 N 
HETATM    4  C   UNL     1     -42.593  59.042 -56.582  1.00  0.00     0.179 C 
HETATM    5  S   UNL     1     -42.852  60.360 -57.595  1.00  0.00    -0.040 SA
HETATM    6  N   UNL     1     -42.972  57.693 -56.777  1.00  0.00    -0.292 N 
HETATM    7  C   UNL     1     -42.559  56.681 -55.876  1.00  0.00     0.030 C 
HETATM    8  C   UNL     1     -42.897  55.237 -56.186  1.00  0.00     0.070 C 
HETATM    9  H   UNL     1     -41.624  60.297 -55.340  1.00  0.00     0.163 HD
ENDROOT
BRANCH   1  10
HETATM   10  C   UNL     1     -41.310  55.992 -53.864  1.00  0.00     0.257 C 
HETATM   11  N   UNL     1     -42.020  55.764 -52.710  1.00  0.00    -0.306 N 
HETATM   12  H   UNL     1     -42.887  56.256 -52.546  1.00  0.00     0.170 HD
HETATM   13  O   UNL     1     -40.266  55.465 -54.226  1.00  0.00    -0.267 OA
BRANCH  11  14
HETATM   14  C   UNL     1     -41.589  54.937 -51.687  1.00  0.00     0.160 A 
HETATM   15  N   UNL     1     -41.530  53.605 -51.729  1.00  0.00    -0.110 NA
HETATM   16  O   UNL     1     -41.022  53.197 -50.513  1.00  0.00    -0.216 OA
HETATM   17  C   UNL     1     -40.767  54.285 -49.743  1.00  0.00     0.078 A 
HETATM   18  C   UNL     1     -40.195  54.032 -48.408  1.00  0.00     0.079 C 
HETATM   19  C   UNL     1     -41.117  55.416 -50.439  1.00  0.00     0.087 A 
ENDBRANCH  11  14
ENDBRANCH   1  10
BRANCH   2  20
HETATM   20  C   UNL     1     -42.495  58.901 -53.156  1.00  0.00    -0.031 A 
HETATM   21  C   UNL     1     -41.874  59.458 -52.026  1.00  0.00     0.012 A 
HETATM   22  C   UNL     1     -42.630  59.861 -50.921  1.00  0.00     0.037 A 
HETATM   23  C   UNL     1     -44.012  59.705 -50.944  1.00  0.00     0.065 A 
HETATM   24  C   UNL     1     -44.649  59.158 -52.050  1.00  0.00     0.037 A 
HETATM   25  C   UNL     1     -43.895  58.762 -53.155  1.00  0.00     0.012 A 
BRANCH  23  26
HETATM   26  O   UNL     1     -44.787  60.081 -49.889  1.00  0.00    -0.361 OA
HETATM   27  H   UNL     1     -45.156  60.962 -50.068  1.00  0.00     0.217 HD
ENDBRANCH  23  26
ENDBRANCH   2  20
BRANCH   6  28
HETATM   28  C   UNL     1     -43.659  57.352 -57.993  1.00  0.00     0.042 A 
HETATM   29  C   UNL     1     -45.044  57.536 -58.099  1.00  0.00     0.030 A 
HETATM   30  C   UNL     1     -45.708  57.196 -59.278  1.00  0.00     0.002 A 
HETATM   31  C   UNL     1     -44.996  56.667 -60.354  1.00  0.00     0.000 A 
HETATM   32  C   UNL     1     -43.618  56.479 -60.255  1.00  0.00     0.002 A 
HETATM   33  C   UNL     1     -42.948  56.822 -59.078  1.00  0.00     0.030 A 
ENDBRANCH   6  28
TORSDOF 5
ENDMDL
MODEL 8
REMARK VINA RESULT:      -7.6      1.840      2.263
REMARK  5 active torsions:
REMARK  status: ('A' for Active; 'I' for Inactive)
REMARK    1  A    between atoms: C_5  and  N_6 
REMARK       I    between atoms: N_6  and  C_7 
REMARK    2  A    between atoms: C_7  and  C_8 
REMARK    3  A    between atoms: C_9  and  C_10 
REMARK    4  A    between atoms: C_13  and  O_14 
REMARK    5  A    between atoms: N_20  and  C_21 
ROOT
HETATM    1  C   UNL     1     -42.388  57.655 -54.735  1.00  0.00     0.060 C 
HETATM    2  C   UNL     1     -41.067  57.169 -54.248  1.00  0.00     0.158 C 
HETATM    3  N   UNL     1     -40.751  57.769 -52.977  1.00  0.00    -0.354 N 
HETATM    4  C   UNL     1     -41.634  58.363 -52.121  1.00  0.00     0.179 C 
HETATM    5  S   UNL     1     -40.992  58.762 -50.617  1.00  0.00    -0.040 SA
HETATM    6  N   UNL     1     -42.935  58.613 -52.619  1.00  0.00    -0.292 N 
HETATM    7  C   UNL     1     -43.270  58.320 -53.963  1.00  0.00     0.030 C 
HETATM    8  C   UNL     1     -44.641  58.708 -54.480  1.00  0.00     0.070 C 
HETATM    9  H   UNL     1     -39.832  57.595 -52.590  1.00  0.00     0.163 HD
ENDROOT
BRANCH   1  10
HETATM   10  C   UNL     1     -42.622  57.500 -56.197  1.00  0.00     0.257 C 
HETATM   11  N   UNL     1     -42.156  58.561 -56.935  1.00  0.00    -0.306 N 
HETATM   12  H   UNL     1     -41.679  59.323 -56.476  1.00  0.00     0.170 HD
HETATM   13  O   UNL     1     -43.192  56.493 -56.597  1.00  0.00    -0.267 OA
BRANCH  11  14
HETATM   14  C   UNL     1     -42.361  58.706 -58.296  1.00  0.00     0.160 A 
HETATM   15  N   UNL     1     -41.782  57.984 -59.257  1.00  0.00    -0.110 NA
HETATM   16  O   UNL     1     -42.290  58.445 -60.454  1.00  0.00    -0.216 OA
HETATM   17  C   UNL     1     -43.182  59.439 -60.212  1.00  0.00     0.078 A 
HETATM   18  C   UNL     1     -43.842  60.036 -61.387  1.00  0.00     0.079 C 
HETATM   19  C   UNL     1     -43.258  59.650 -58.857  1.00  0.00     0.087 A 
ENDBRANCH  11  14
ENDBRANCH   1  10
BRANCH   2  20
HETATM   20  C   UNL     1     -40.994  55.652 -54.123  1.00  0.00    -0.031 A 
HETATM   21  C   UNL     1     -40.186  54.910 -55.002  1.00  0.00     0.012 A 
HETATM   22  C   UNL     1     -40.132  53.516 -54.917  1.00  0.00     0.037 A 
HETATM   23  C   UNL     1     -40.889  52.859 -53.952  1.00  0.00     0.065 A 
HETATM   24  C   UNL     1     -41.694  53.571 -53.072  1.00  0.00     0.037 A 
HETATM   25  C   UNL     1     -41.742  54.962 -53.152  1.00  0.00     0.012 A 
BRANCH  23  26
HETATM   26  O   UNL     1     -40.869  51.502 -53.835  1.00  0.00    -0.361 OA
HETATM   27  H   UNL     1     -41.468  51.239 -53.118  1.00  0.00     0.217 HD
ENDBRANCH  23  26
ENDBRANCH   2  20
BRANCH   6  28
HETATM   28  C   UNL     1     -43.861  59.311 -51.769  1.00  0.00     0.042 A 
HETATM   29  C   UNL     1     -43.803  60.706 -51.653  1.00  0.00     0.030 A 
HETATM   30  C   UNL     1     -44.698  61.379 -50.821  1.00  0.00     0.002 A 
HETATM   31  C   UNL     1     -45.651  60.663 -50.097  1.00  0.00     0.000 A 
HETATM   32  C   UNL     1     -45.713  59.275 -50.205  1.00  0.00     0.002 A 
HETATM   33  C   UNL     1     -44.822  58.597 -51.040  1.00  0.00     0.030 A 
ENDBRANCH   6  28
TORSDOF 5
ENDMDL
MODEL 9
REMARK VINA RESULT:      -7.5      3.539      6.576
REMARK  5 active torsions:
REMARK  status: ('A' for Active; 'I' for Inactive)
REMARK    1  A    between atoms: C_5  and  N_6 
REMARK       I    between atoms: N_6  and  C_7 
REMARK    2  A    between atoms: C_7  and  C_8 
REMARK    3  A    between atoms: C_9  and  C_10 
REMARK    4  A    between atoms: C_13  and  O_14 
REMARK    5  A    between atoms: N_20  and  C_21 
ROOT
HETATM    1  C   UNL     1     -43.955  57.664 -57.468  1.00  0.00     0.060 C 
HETATM    2  C   UNL     1     -44.248  58.825 -56.582  1.00  0.00     0.158 C 
HETATM    3  N   UNL     1     -44.016  58.474 -55.204  1.00  0.00    -0.354 N 
HETATM    4  C   UNL     1     -43.270  57.423 -54.751  1.00  0.00     0.179 C 
HETATM    5  S   UNL     1     -43.003  57.417 -53.090  1.00  0.00    -0.040 SA
HETATM    6  N   UNL     1     -42.874  56.462 -55.711  1.00  0.00    -0.292 N 
HETATM    7  C   UNL     1     -43.295  56.561 -57.059  1.00  0.00     0.030 C 
HETATM    8  C   UNL     1     -42.937  55.449 -58.026  1.00  0.00     0.070 C 
HETATM    9  H   UNL     1     -44.277  59.150 -54.496  1.00  0.00     0.163 HD
ENDROOT
BRANCH   1  10
HETATM   10  C   UNL     1     -44.579  57.721 -58.817  1.00  0.00     0.257 C 
HETATM   11  N   UNL     1     -45.848  57.195 -58.849  1.00  0.00    -0.306 N 
HETATM   12  H   UNL     1     -46.273  56.853 -57.999  1.00  0.00     0.170 HD
HETATM   13  O   UNL     1     -43.936  58.199 -59.743  1.00  0.00    -0.267 OA
BRANCH  11  14
HETATM   14  C   UNL     1     -46.586  57.025 -60.007  1.00  0.00     0.160 A 
HETATM   15  N   UNL     1     -46.671  55.904 -60.726  1.00  0.00    -0.110 NA
HETATM   16  O   UNL     1     -47.527  56.174 -61.773  1.00  0.00    -0.216 OA
HETATM   17  C   UNL     1     -47.963  57.455 -61.680  1.00  0.00     0.078 A 
HETATM   18  C   UNL     1     -48.910  57.909 -62.716  1.00  0.00     0.079 C 
HETATM   19  C   UNL     1     -47.389  58.043 -60.580  1.00  0.00     0.087 A 
ENDBRANCH  11  14
ENDBRANCH   1  10
BRANCH   2  20
HETATM   20  C   UNL     1     -43.437  60.066 -56.931  1.00  0.00    -0.031 A 
HETATM   21  C   UNL     1     -44.015  61.342 -56.815  1.00  0.00     0.012 A 
HETATM   22  C   UNL     1     -43.292  62.487 -57.159  1.00  0.00     0.037 A 
HETATM   23  C   UNL     1     -41.987  62.360 -57.623  1.00  0.00     0.065 A 
HETATM   24  C   UNL     1     -41.394  61.110 -57.745  1.00  0.00     0.037 A 
HETATM   25  C   UNL     1     -42.113  59.967 -57.395  1.00  0.00     0.012 A 
BRANCH  23  26
HETATM   26  O   UNL     1     -41.247  63.449 -57.972  1.00  0.00    -0.361 OA
HETATM   27  H   UNL     1     -41.820  64.086 -58.429  1.00  0.00     0.217 HD
ENDBRANCH  23  26
ENDBRANCH   2  20
BRANCH   6  28
HETATM   28  C   UNL     1     -42.159  55.303 -55.252  1.00  0.00     0.042 A 
HETATM   29  C   UNL     1     -40.758  55.302 -55.219  1.00  0.00     0.030 A 
HETATM   30  C   UNL     1     -40.067  54.171 -54.780  1.00  0.00     0.002 A 
HETATM   31  C   UNL     1     -40.770  53.036 -54.378  1.00  0.00     0.000 A 
HETATM   32  C   UNL     1     -42.163  53.029 -54.411  1.00  0.00     0.002 A 
HETATM   33  C   UNL     1     -42.859  54.160 -54.845  1.00  0.00     0.030 A 
ENDBRANCH   6  28
TORSDOF 5
ENDMDL
MODEL 10
REMARK VINA RESULT:      -7.3      2.654      5.575
REMARK  5 active torsions:
REMARK  status: ('A' for Active; 'I' for Inactive)
REMARK    1  A    between atoms: C_5  and  N_6 
REMARK       I    between atoms: N_6  and  C_7 
REMARK    2  A    between atoms: C_7  and  C_8 
REMARK    3  A    between atoms: C_9  and  C_10 
REMARK    4  A    between atoms: C_13  and  O_14 
REMARK    5  A    between atoms: N_20  and  C_21 
ROOT
HETATM    1  C   UNL     1     -43.660  57.532 -52.870  1.00  0.00     0.060 C 
HETATM    2  C   UNL     1     -44.511  57.634 -54.088  1.00  0.00     0.158 C 
HETATM    3  N   UNL     1     -45.333  58.815 -54.026  1.00  0.00    -0.354 N 
HETATM    4  C   UNL     1     -45.129  59.903 -53.225  1.00  0.00     0.179 C 
HETATM    5  S   UNL     1     -46.134  61.212 -53.551  1.00  0.00    -0.040 SA
HETATM    6  N   UNL     1     -44.155  59.771 -52.207  1.00  0.00    -0.292 N 
HETATM    7  C   UNL     1     -43.483  58.543 -51.995  1.00  0.00     0.030 C 
HETATM    8  C   UNL     1     -42.530  58.418 -50.824  1.00  0.00     0.070 C 
HETATM    9  H   UNL     1     -46.029  58.943 -54.751  1.00  0.00     0.163 HD
ENDROOT
BRANCH   1  10
HETATM   10  C   UNL     1     -43.127  56.173 -52.580  1.00  0.00     0.257 C 
HETATM   11  N   UNL     1     -41.905  55.935 -53.160  1.00  0.00    -0.306 N 
HETATM   12  H   UNL     1     -41.448  56.663 -53.690  1.00  0.00     0.170 HD
HETATM   13  O   UNL     1     -43.797  55.415 -51.890  1.00  0.00    -0.267 OA
BRANCH  11  14
HETATM   14  C   UNL     1     -41.263  54.709 -53.136  1.00  0.00     0.160 A 
HETATM   15  N   UNL     1     -40.534  54.226 -52.127  1.00  0.00    -0.110 NA
HETATM   16  O   UNL     1     -40.107  52.974 -52.517  1.00  0.00    -0.216 OA
HETATM   17  C   UNL     1     -40.585  52.700 -53.757  1.00  0.00     0.078 A 
HETATM   18  C   UNL     1     -40.240  51.384 -54.324  1.00  0.00     0.079 C 
HETATM   19  C   UNL     1     -41.319  53.774 -54.199  1.00  0.00     0.087 A 
ENDBRANCH  11  14
ENDBRANCH   1  10
BRANCH   2  20
HETATM   20  C   UNL     1     -43.706  57.647 -55.383  1.00  0.00    -0.031 A 
HETATM   21  C   UNL     1     -43.033  58.813 -55.784  1.00  0.00     0.012 A 
HETATM   22  C   UNL     1     -42.315  58.847 -56.982  1.00  0.00     0.037 A 
HETATM   23  C   UNL     1     -42.271  57.712 -57.786  1.00  0.00     0.065 A 
HETATM   24  C   UNL     1     -42.927  56.547 -57.410  1.00  0.00     0.037 A 
HETATM   25  C   UNL     1     -43.637  56.512 -56.211  1.00  0.00     0.012 A 
BRANCH  23  26
HETATM   26  O   UNL     1     -41.586  57.701 -58.963  1.00  0.00    -0.361 OA
HETATM   27  H   UNL     1     -41.878  56.939 -59.490  1.00  0.00     0.217 HD
ENDBRANCH  23  26
ENDBRANCH   2  20
BRANCH   6  28
HETATM   28  C   UNL     1     -43.975  60.869 -51.297  1.00  0.00     0.042 A 
HETATM   29  C   UNL     1     -44.697  60.920 -50.098  1.00  0.00     0.030 A 
HETATM   30  C   UNL     1     -44.526  61.993 -49.221  1.00  0.00     0.002 A 
HETATM   31  C   UNL     1     -43.640  63.021 -49.540  1.00  0.00     0.000 A 
HETATM   32  C   UNL     1     -42.921  62.978 -50.733  1.00  0.00     0.002 A 
HETATM   33  C   UNL     1     -43.085  61.905 -51.612  1.00  0.00     0.030 A 
ENDBRANCH   6  28
TORSDOF 5
ENDMDL
