MODEL 1
REMARK VINA RESULT:      -7.9      0.000      0.000
REMARK  8 active torsions:
REMARK  status: ('A' for Active; 'I' for Inactive)
REMARK    1  A    between atoms: C_2  and  C_3 
REMARK    2  A    between atoms: C_3  and  N_4 
REMARK    3  A    between atoms: C_12  and  C_13 
REMARK    4  A    between atoms: C_13  and  N_14 
REMARK    5  A    between atoms: C_22  and  C_23 
REMARK    6  A    between atoms: C_23  and  C_24 
REMARK    7  A    between atoms: C_24  and  N_25 
REMARK       I    between atoms: N_25  and  C_26 
REMARK    8  A    between atoms: C_26  and  C_27 
ROOT
HETATM    1  N   UNL     1     -42.149  55.790 -56.116  1.00  0.00    -0.065 N 
HETATM    2  H   UNL     1     -41.567  56.598 -56.381  1.00  0.00     0.280 HD
HETATM    3  C   UNL     1     -42.928  56.236 -54.880  1.00  0.00     0.255 C 
HETATM    4  C   UNL     1     -43.391  55.073 -54.012  1.00  0.00     0.159 C 
HETATM    5  N   UNL     1     -42.366  54.628 -53.093  1.00  0.00    -0.319 N 
HETATM    6  C   UNL     1     -41.027  54.482 -53.373  1.00  0.00     0.131 A 
HETATM    7  C   UNL     1     -40.329  54.819 -54.644  1.00  0.00     0.108 C 
HETATM    8  C   UNL     1     -41.176  54.631 -55.894  1.00  0.00     0.243 C 
HETATM    9  C   UNL     1     -42.519  54.286 -51.771  1.00  0.00     0.131 A 
HETATM   10  N   UNL     1     -41.350  53.902 -51.306  1.00  0.00    -0.135 NA
HETATM   11  N   UNL     1     -40.421  54.035 -52.298  1.00  0.00    -0.135 NA
ENDROOT
BRANCH   1  12
HETATM   12  C   UNL     1     -43.023  55.530 -57.333  1.00  0.00     0.280 C 
BRANCH  12  13
HETATM   13  C   UNL     1     -42.924  56.579 -58.406  1.00  0.00     0.009 A 
HETATM   14  S   UNL     1     -43.475  58.181 -58.135  1.00  0.00    -0.096 SA
HETATM   15  C   UNL     1     -42.952  58.715 -59.682  1.00  0.00     0.009 A 
HETATM   16  C   UNL     1     -42.382  57.679 -60.396  1.00  0.00     0.017 A 
HETATM   17  C   UNL     1     -42.375  56.451 -59.667  1.00  0.00     0.017 A 
BRANCH  15  18
HETATM   18  C   UNL     1     -43.099  60.163 -60.071  1.00  0.00     0.280 C 
BRANCH  18  19
HETATM   19  N   UNL     1     -41.791  60.930 -60.093  1.00  0.00    -0.067 N 
HETATM   20  H   UNL     1     -41.045  60.239 -60.235  1.00  0.00     0.280 HD
HETATM   21  C   UNL     1     -41.715  61.931 -61.224  1.00  0.00     0.235 C 
HETATM   22  C   UNL     1     -40.332  62.564 -61.250  1.00  0.00     0.028 C 
HETATM   23  C   UNL     1     -39.986  63.213 -59.915  1.00  0.00     0.003 C 
HETATM   24  C   UNL     1     -40.141  62.224 -58.766  1.00  0.00     0.028 C 
HETATM   25  C   UNL     1     -41.523  61.587 -58.753  1.00  0.00     0.235 C 
ENDBRANCH  18  19
ENDBRANCH  15  18
ENDBRANCH  12  13
ENDBRANCH   1  12
BRANCH   9  26
HETATM   26  C   UNL     1     -43.783  54.346 -50.982  1.00  0.00     0.100 C 
BRANCH  26  27
HETATM   27  C   UNL     1     -44.154  55.769 -50.557  1.00  0.00     0.130 C 
BRANCH  27  28
HETATM   28  N   UNL     1     -43.128  56.802 -50.659  1.00  0.00    -0.360 N 
HETATM   29  C   UNL     1     -43.207  57.965 -51.386  1.00  0.00     0.222 C 
HETATM   30  O   UNL     1     -44.100  58.212 -52.193  1.00  0.00    -0.273 OA
HETATM   31  H   UNL     1     -42.383  56.728 -49.974  1.00  0.00     0.162 HD
BRANCH  29  32
HETATM   32  C   UNL     1     -42.026  58.911 -51.138  1.00  0.00     0.082 C 
HETATM   33  C   UNL     1     -40.699  58.266 -51.552  1.00  0.00     0.040 C 
HETATM   34  C   UNL     1     -40.579  58.192 -53.068  1.00  0.00     0.168 C 
HETATM   35  O   UNL     1     -40.725  59.479 -53.671  1.00  0.00    -0.391 OA
HETATM   36  C   UNL     1     -41.961  60.115 -53.365  1.00  0.00     0.168 C 
HETATM   37  C   UNL     1     -42.196  60.247 -51.867  1.00  0.00     0.040 C 
ENDBRANCH  29  32
ENDBRANCH  27  28
ENDBRANCH  26  27
ENDBRANCH   9  26
TORSDOF 8
ENDMDL
MODEL 2
REMARK VINA RESULT:      -7.8      3.447      9.250
REMARK  8 active torsions:
REMARK  status: ('A' for Active; 'I' for Inactive)
REMARK    1  A    between atoms: C_2  and  C_3 
REMARK    2  A    between atoms: C_3  and  N_4 
REMARK    3  A    between atoms: C_12  and  C_13 
REMARK    4  A    between atoms: C_13  and  N_14 
REMARK    5  A    between atoms: C_22  and  C_23 
REMARK    6  A    between atoms: C_23  and  C_24 
REMARK    7  A    between atoms: C_24  and  N_25 
REMARK       I    between atoms: N_25  and  C_26 
REMARK    8  A    between atoms: C_26  and  C_27 
ROOT
HETATM    1  N   UNL     1     -43.745  56.654 -55.536  1.00  0.00    -0.065 N 
HETATM    2  H   UNL     1     -44.665  56.222 -55.365  1.00  0.00     0.280 HD
HETATM    3  C   UNL     1     -44.016  57.844 -56.455  1.00  0.00     0.255 C 
HETATM    4  C   UNL     1     -42.799  58.260 -57.271  1.00  0.00     0.159 C 
HETATM    5  N   UNL     1     -42.651  57.478 -58.479  1.00  0.00    -0.319 N 
HETATM    6  C   UNL     1     -42.837  56.120 -58.600  1.00  0.00     0.131 A 
HETATM    7  C   UNL     1     -43.302  55.176 -57.547  1.00  0.00     0.108 C 
HETATM    8  C   UNL     1     -42.873  55.549 -56.135  1.00  0.00     0.243 C 
HETATM    9  C   UNL     1     -42.319  57.931 -59.733  1.00  0.00     0.131 A 
HETATM   10  N   UNL     1     -42.253  56.895 -60.542  1.00  0.00    -0.135 NA
HETATM   11  N   UNL     1     -42.586  55.772 -59.840  1.00  0.00    -0.135 NA
ENDROOT
BRANCH   1  12
HETATM   12  C   UNL     1     -43.241  57.045 -54.156  1.00  0.00     0.280 C 
BRANCH  12  13
HETATM   13  C   UNL     1     -42.748  55.893 -53.324  1.00  0.00     0.009 A 
HETATM   14  S   UNL     1     -41.116  55.811 -52.800  1.00  0.00    -0.096 SA
HETATM   15  C   UNL     1     -41.386  54.371 -51.902  1.00  0.00     0.009 A 
HETATM   16  C   UNL     1     -42.699  53.956 -52.018  1.00  0.00     0.017 A 
HETATM   17  C   UNL     1     -43.477  54.824 -52.842  1.00  0.00     0.017 A 
BRANCH  15  18
HETATM   18  C   UNL     1     -40.272  53.769 -51.088  1.00  0.00     0.280 C 
BRANCH  18  19
HETATM   19  N   UNL     1     -39.728  52.471 -51.655  1.00  0.00    -0.067 N 
HETATM   20  H   UNL     1     -38.704  52.553 -51.654  1.00  0.00     0.280 HD
HETATM   21  C   UNL     1     -40.096  51.265 -50.821  1.00  0.00     0.235 C 
HETATM   22  C   UNL     1     -39.412  50.029 -51.385  1.00  0.00     0.028 C 
HETATM   23  C   UNL     1     -39.763  49.813 -52.853  1.00  0.00     0.003 C 
HETATM   24  C   UNL     1     -39.467  51.059 -53.678  1.00  0.00     0.028 C 
HETATM   25  C   UNL     1     -40.146  52.292 -53.102  1.00  0.00     0.235 C 
ENDBRANCH  18  19
ENDBRANCH  15  18
ENDBRANCH  12  13
ENDBRANCH   1  12
BRANCH   9  26
HETATM   26  C   UNL     1     -42.082  59.349 -60.128  1.00  0.00     0.100 C 
BRANCH  26  27
HETATM   27  C   UNL     1     -43.135  59.879 -61.105  1.00  0.00     0.130 C 
BRANCH  27  28
HETATM   28  N   UNL     1     -44.518  59.450 -60.919  1.00  0.00    -0.360 N 
HETATM   29  C   UNL     1     -45.445  60.018 -60.080  1.00  0.00     0.222 C 
HETATM   30  O   UNL     1     -45.179  60.873 -59.238  1.00  0.00    -0.273 OA
HETATM   31  H   UNL     1     -44.857  58.799 -61.620  1.00  0.00     0.162 HD
BRANCH  29  32
HETATM   32  C   UNL     1     -46.852  59.432 -60.253  1.00  0.00     0.082 C 
HETATM   33  C   UNL     1     -46.797  57.931 -60.552  1.00  0.00     0.040 C 
HETATM   34  C   UNL     1     -46.405  57.142 -59.310  1.00  0.00     0.168 C 
HETATM   35  O   UNL     1     -47.287  57.408 -58.218  1.00  0.00    -0.391 OA
HETATM   36  C   UNL     1     -47.349  58.783 -57.856  1.00  0.00     0.168 C 
HETATM   37  C   UNL     1     -47.733  59.679 -59.025  1.00  0.00     0.040 C 
ENDBRANCH  29  32
ENDBRANCH  27  28
ENDBRANCH  26  27
ENDBRANCH   9  26
TORSDOF 8
ENDMDL
MODEL 3
REMARK VINA RESULT:      -7.5      3.354      6.184
REMARK  8 active torsions:
REMARK  status: ('A' for Active; 'I' for Inactive)
REMARK    1  A    between atoms: C_2  and  C_3 
REMARK    2  A    between atoms: C_3  and  N_4 
REMARK    3  A    between atoms: C_12  and  C_13 
REMARK    4  A    between atoms: C_13  and  N_14 
REMARK    5  A    between atoms: C_22  and  C_23 
REMARK    6  A    between atoms: C_23  and  C_24 
REMARK    7  A    between atoms: C_24  and  N_25 
REMARK       I    between atoms: N_25  and  C_26 
REMARK    8  A    between atoms: C_26  and  C_27 
ROOT
HETATM    1  N   UNL     1     -44.583  59.687 -52.371  1.00  0.00    -0.065 N 
HETATM    2  H   UNL     1     -44.887  60.484 -51.792  1.00  0.00     0.280 HD
HETATM    3  C   UNL     1     -44.949  58.438 -51.573  1.00  0.00     0.255 C 
HETATM    4  C   UNL     1     -44.111  57.221 -51.946  1.00  0.00     0.159 C 
HETATM    5  N   UNL     1     -42.845  57.187 -51.247  1.00  0.00    -0.319 N 
HETATM    6  C   UNL     1     -42.013  58.257 -51.013  1.00  0.00     0.131 A 
HETATM    7  C   UNL     1     -42.263  59.685 -51.353  1.00  0.00     0.108 C 
HETATM    8  C   UNL     1     -43.088  59.895 -52.614  1.00  0.00     0.243 C 
HETATM    9  C   UNL     1     -42.238  56.098 -50.670  1.00  0.00     0.131 A 
HETATM   10  N   UNL     1     -41.083  56.486 -50.171  1.00  0.00    -0.135 NA
HETATM   11  N   UNL     1     -40.950  57.829 -50.374  1.00  0.00    -0.135 NA
ENDROOT
BRANCH   1  12
HETATM   12  C   UNL     1     -45.362  59.837 -53.668  1.00  0.00     0.280 C 
BRANCH  12  13
HETATM   13  C   UNL     1     -44.591  59.465 -54.905  1.00  0.00     0.009 A 
HETATM   14  S   UNL     1     -44.429  57.827 -55.390  1.00  0.00    -0.096 SA
HETATM   15  C   UNL     1     -43.572  58.245 -56.819  1.00  0.00     0.009 A 
HETATM   16  C   UNL     1     -43.402  59.613 -56.911  1.00  0.00     0.017 A 
HETATM   17  C   UNL     1     -43.978  60.312 -55.807  1.00  0.00     0.017 A 
BRANCH  15  18
HETATM   18  C   UNL     1     -43.165  57.173 -57.796  1.00  0.00     0.280 C 
BRANCH  18  19
HETATM   19  N   UNL     1     -44.331  56.492 -58.484  1.00  0.00    -0.067 N 
HETATM   20  H   UNL     1     -44.826  55.952 -57.764  1.00  0.00     0.280 HD
HETATM   21  C   UNL     1     -45.314  57.471 -59.084  1.00  0.00     0.235 C 
HETATM   22  C   UNL     1     -46.510  56.714 -59.643  1.00  0.00     0.028 C 
HETATM   23  C   UNL     1     -46.084  55.665 -60.663  1.00  0.00     0.003 C 
HETATM   24  C   UNL     1     -45.032  54.728 -60.083  1.00  0.00     0.028 C 
HETATM   25  C   UNL     1     -43.845  55.493 -59.517  1.00  0.00     0.235 C 
ENDBRANCH  18  19
ENDBRANCH  15  18
ENDBRANCH  12  13
ENDBRANCH   1  12
BRANCH   9  26
HETATM   26  C   UNL     1     -42.785  54.712 -50.600  1.00  0.00     0.100 C 
BRANCH  26  27
HETATM   27  C   UNL     1     -42.647  53.951 -51.921  1.00  0.00     0.130 C 
BRANCH  27  28
HETATM   28  N   UNL     1     -41.397  53.240 -52.173  1.00  0.00    -0.360 N 
HETATM   29  C   UNL     1     -41.002  52.678 -53.363  1.00  0.00     0.222 C 
HETATM   30  O   UNL     1     -41.734  52.555 -54.342  1.00  0.00    -0.273 OA
HETATM   31  H   UNL     1     -40.694  53.350 -51.450  1.00  0.00     0.162 HD
BRANCH  29  32
HETATM   32  C   UNL     1     -39.559  52.157 -53.332  1.00  0.00     0.082 C 
HETATM   33  C   UNL     1     -39.236  51.494 -51.990  1.00  0.00     0.040 C 
HETATM   34  C   UNL     1     -39.936  50.148 -51.864  1.00  0.00     0.168 C 
HETATM   35  O   UNL     1     -39.605  49.280 -52.950  1.00  0.00    -0.391 OA
HETATM   36  C   UNL     1     -39.925  49.817 -54.228  1.00  0.00     0.168 C 
HETATM   37  C   UNL     1     -39.278  51.173 -54.471  1.00  0.00     0.040 C 
ENDBRANCH  29  32
ENDBRANCH  27  28
ENDBRANCH  26  27
ENDBRANCH   9  26
TORSDOF 8
ENDMDL
MODEL 4
REMARK VINA RESULT:      -7.4      2.439      5.156
REMARK  8 active torsions:
REMARK  status: ('A' for Active; 'I' for Inactive)
REMARK    1  A    between atoms: C_2  and  C_3 
REMARK    2  A    between atoms: C_3  and  N_4 
REMARK    3  A    between atoms: C_12  and  C_13 
REMARK    4  A    between atoms: C_13  and  N_14 
REMARK    5  A    between atoms: C_22  and  C_23 
REMARK    6  A    between atoms: C_23  and  C_24 
REMARK    7  A    between atoms: C_24  and  N_25 
REMARK       I    between atoms: N_25  and  C_26 
REMARK    8  A    between atoms: C_26  and  C_27 
ROOT
HETATM    1  N   UNL     1     -43.427  60.517 -53.147  1.00  0.00    -0.065 N 
HETATM    2  H   UNL     1     -43.331  61.441 -52.699  1.00  0.00     0.280 HD
HETATM    3  C   UNL     1     -44.284  59.687 -52.193  1.00  0.00     0.255 C 
HETATM    4  C   UNL     1     -44.080  58.186 -52.356  1.00  0.00     0.159 C 
HETATM    5  N   UNL     1     -42.941  57.700 -51.610  1.00  0.00    -0.319 N 
HETATM    6  C   UNL     1     -41.715  58.315 -51.498  1.00  0.00     0.131 A 
HETATM    7  C   UNL     1     -41.318  59.641 -52.047  1.00  0.00     0.108 C 
HETATM    8  C   UNL     1     -42.000  60.007 -53.357  1.00  0.00     0.243 C 
HETATM    9  C   UNL     1     -42.861  56.552 -50.859  1.00  0.00     0.131 A 
HETATM   10  N   UNL     1     -41.640  56.459 -50.376  1.00  0.00    -0.135 NA
HETATM   11  N   UNL     1     -40.933  57.561 -50.763  1.00  0.00    -0.135 NA
ENDROOT
BRANCH   1  12
HETATM   12  C   UNL     1     -44.095  60.805 -54.482  1.00  0.00     0.280 C 
BRANCH  12  13
HETATM   13  C   UNL     1     -43.354  60.272 -55.677  1.00  0.00     0.009 A 
HETATM   14  S   UNL     1     -43.519  58.635 -56.166  1.00  0.00    -0.096 SA
HETATM   15  C   UNL     1     -42.515  58.855 -57.543  1.00  0.00     0.009 A 
HETATM   16  C   UNL     1     -42.051  60.154 -57.613  1.00  0.00     0.017 A 
HETATM   17  C   UNL     1     -42.524  60.964 -56.537  1.00  0.00     0.017 A 
BRANCH  15  18
HETATM   18  C   UNL     1     -42.293  57.718 -58.504  1.00  0.00     0.280 C 
BRANCH  18  19
HETATM   19  N   UNL     1     -43.537  56.898 -58.786  1.00  0.00    -0.067 N 
HETATM   20  H   UNL     1     -43.917  56.614 -57.876  1.00  0.00     0.280 HD
HETATM   21  C   UNL     1     -44.607  57.682 -59.511  1.00  0.00     0.235 C 
HETATM   22  C   UNL     1     -45.860  56.830 -59.644  1.00  0.00     0.028 C 
HETATM   23  C   UNL     1     -45.571  55.511 -60.350  1.00  0.00     0.003 C 
HETATM   24  C   UNL     1     -44.436  54.758 -59.666  1.00  0.00     0.028 C 
HETATM   25  C   UNL     1     -43.190  55.621 -59.527  1.00  0.00     0.235 C 
ENDBRANCH  18  19
ENDBRANCH  15  18
ENDBRANCH  12  13
ENDBRANCH   1  12
BRANCH   9  26
HETATM   26  C   UNL     1     -43.961  55.575 -50.615  1.00  0.00     0.100 C 
BRANCH  26  27
HETATM   27  C   UNL     1     -43.592  54.147 -51.023  1.00  0.00     0.130 C 
BRANCH  27  28
HETATM   28  N   UNL     1     -43.065  53.934 -52.367  1.00  0.00    -0.360 N 
HETATM   29  C   UNL     1     -41.807  53.487 -52.692  1.00  0.00     0.222 C 
HETATM   30  O   UNL     1     -40.891  53.365 -51.883  1.00  0.00    -0.273 OA
HETATM   31  H   UNL     1     -43.765  53.937 -53.101  1.00  0.00     0.162 HD
BRANCH  29  32
HETATM   32  C   UNL     1     -41.635  53.210 -54.191  1.00  0.00     0.082 C 
HETATM   33  C   UNL     1     -42.756  53.859 -55.009  1.00  0.00     0.040 C 
HETATM   34  C   UNL     1     -42.584  55.371 -55.066  1.00  0.00     0.168 C 
HETATM   35  O   UNL     1     -41.304  55.735 -55.583  1.00  0.00    -0.391 OA
HETATM   36  C   UNL     1     -40.214  55.203 -54.839  1.00  0.00     0.168 C 
HETATM   37  C   UNL     1     -40.277  53.687 -54.712  1.00  0.00     0.040 C 
ENDBRANCH  29  32
ENDBRANCH  27  28
ENDBRANCH  26  27
ENDBRANCH   9  26
TORSDOF 8
ENDMDL
MODEL 5
REMARK VINA RESULT:      -7.3      3.493      8.936
REMARK  8 active torsions:
REMARK  status: ('A' for Active; 'I' for Inactive)
REMARK    1  A    between atoms: C_2  and  C_3 
REMARK    2  A    between atoms: C_3  and  N_4 
REMARK    3  A    between atoms: C_12  and  C_13 
REMARK    4  A    between atoms: C_13  and  N_14 
REMARK    5  A    between atoms: C_22  and  C_23 
REMARK    6  A    between atoms: C_23  and  C_24 
REMARK    7  A    between atoms: C_24  and  N_25 
REMARK       I    between atoms: N_25  and  C_26 
REMARK    8  A    between atoms: C_26  and  C_27 
ROOT
HETATM    1  N   UNL     1     -43.286  58.232 -53.080  1.00  0.00    -0.065 N 
HETATM    2  H   UNL     1     -42.256  58.243 -53.081  1.00  0.00     0.280 HD
HETATM    3  C   UNL     1     -43.688  57.462 -54.336  1.00  0.00     0.255 C 
HETATM    4  C   UNL     1     -45.089  57.805 -54.827  1.00  0.00     0.159 C 
HETATM    5  N   UNL     1     -45.109  58.989 -55.658  1.00  0.00    -0.319 N 
HETATM    6  C   UNL     1     -44.407  60.152 -55.437  1.00  0.00     0.131 A 
HETATM    7  C   UNL     1     -43.423  60.419 -54.352  1.00  0.00     0.108 C 
HETATM    8  C   UNL     1     -43.718  59.699 -53.045  1.00  0.00     0.243 C 
HETATM    9  C   UNL     1     -45.807  59.180 -56.825  1.00  0.00     0.131 A 
HETATM   10  N   UNL     1     -45.581  60.407 -57.245  1.00  0.00    -0.135 NA
HETATM   11  N   UNL     1     -44.702  61.006 -56.389  1.00  0.00    -0.135 NA
ENDROOT
BRANCH   1  12
HETATM   12  C   UNL     1     -43.661  57.532 -51.784  1.00  0.00     0.280 C 
BRANCH  12  13
HETATM   13  C   UNL     1     -43.032  56.178 -51.602  1.00  0.00     0.009 A 
HETATM   14  S   UNL     1     -41.379  55.910 -51.977  1.00  0.00    -0.096 SA
HETATM   15  C   UNL     1     -41.432  54.279 -51.438  1.00  0.00     0.009 A 
HETATM   16  C   UNL     1     -42.698  53.946 -50.997  1.00  0.00     0.017 A 
HETATM   17  C   UNL     1     -43.618  55.033 -51.100  1.00  0.00     0.017 A 
BRANCH  15  18
HETATM   18  C   UNL     1     -40.181  53.442 -51.443  1.00  0.00     0.280 C 
BRANCH  18  19
HETATM   19  N   UNL     1     -40.309  52.147 -52.221  1.00  0.00    -0.067 N 
HETATM   20  H   UNL     1     -41.253  51.786 -52.041  1.00  0.00     0.280 HD
HETATM   21  C   UNL     1     -40.164  52.341 -53.713  1.00  0.00     0.235 C 
HETATM   22  C   UNL     1     -40.428  51.022 -54.425  1.00  0.00     0.028 C 
HETATM   23  C   UNL     1     -39.509  49.917 -53.921  1.00  0.00     0.003 C 
HETATM   24  C   UNL     1     -39.595  49.777 -52.406  1.00  0.00     0.028 C 
HETATM   25  C   UNL     1     -39.340  51.102 -51.702  1.00  0.00     0.235 C 
ENDBRANCH  18  19
ENDBRANCH  15  18
ENDBRANCH  12  13
ENDBRANCH   1  12
BRANCH   9  26
HETATM   26  C   UNL     1     -46.668  58.177 -57.517  1.00  0.00     0.100 C 
BRANCH  26  27
HETATM   27  C   UNL     1     -46.347  58.046 -59.008  1.00  0.00     0.130 C 
BRANCH  27  28
HETATM   28  N   UNL     1     -44.946  57.932 -59.399  1.00  0.00    -0.360 N 
HETATM   29  C   UNL     1     -44.271  58.754 -60.269  1.00  0.00     0.222 C 
HETATM   30  O   UNL     1     -44.811  59.606 -60.970  1.00  0.00    -0.273 OA
HETATM   31  H   UNL     1     -44.395  57.306 -58.822  1.00  0.00     0.162 HD
BRANCH  29  32
HETATM   32  C   UNL     1     -42.766  58.461 -60.328  1.00  0.00     0.082 C 
HETATM   33  C   UNL     1     -41.968  59.718 -60.686  1.00  0.00     0.040 C 
HETATM   34  C   UNL     1     -41.935  60.693 -59.517  1.00  0.00     0.168 C 
HETATM   35  O   UNL     1     -41.412  60.082 -58.337  1.00  0.00    -0.391 OA
HETATM   36  C   UNL     1     -42.138  58.931 -57.920  1.00  0.00     0.168 C 
HETATM   37  C   UNL     1     -42.241  57.877 -59.013  1.00  0.00     0.040 C 
ENDBRANCH  29  32
ENDBRANCH  27  28
ENDBRANCH  26  27
ENDBRANCH   9  26
TORSDOF 8
ENDMDL
MODEL 6
REMARK VINA RESULT:      -7.3     17.636     19.723
REMARK  8 active torsions:
REMARK  status: ('A' for Active; 'I' for Inactive)
REMARK    1  A    between atoms: C_2  and  C_3 
REMARK    2  A    between atoms: C_3  and  N_4 
REMARK    3  A    between atoms: C_12  and  C_13 
REMARK    4  A    between atoms: C_13  and  N_14 
REMARK    5  A    between atoms: C_22  and  C_23 
REMARK    6  A    between atoms: C_23  and  C_24 
REMARK    7  A    between atoms: C_24  and  N_25 
REMARK       I    between atoms: N_25  and  C_26 
REMARK    8  A    between atoms: C_26  and  C_27 
ROOT
HETATM    1  N   UNL     1     -36.018  40.465 -57.505  1.00  0.00    -0.065 N 
HETATM    2  H   UNL     1     -36.330  41.109 -58.246  1.00  0.00     0.280 HD
HETATM    3  C   UNL     1     -37.233  40.258 -56.603  1.00  0.00     0.255 C 
HETATM    4  C   UNL     1     -36.864  39.830 -55.188  1.00  0.00     0.159 C 
HETATM    5  N   UNL     1     -36.539  40.955 -54.338  1.00  0.00    -0.319 N 
HETATM    6  C   UNL     1     -35.791  42.055 -54.691  1.00  0.00     0.131 A 
HETATM    7  C   UNL     1     -35.222  42.367 -56.031  1.00  0.00     0.108 C 
HETATM    8  C   UNL     1     -34.818  41.144 -56.842  1.00  0.00     0.243 C 
HETATM    9  C   UNL     1     -36.923  41.156 -53.035  1.00  0.00     0.131 A 
HETATM   10  N   UNL     1     -36.386  42.282 -52.615  1.00  0.00    -0.135 NA
HETATM   11  N   UNL     1     -35.693  42.846 -53.648  1.00  0.00    -0.135 NA
ENDROOT
BRANCH   1  12
HETATM   12  C   UNL     1     -35.581  39.211 -58.245  1.00  0.00     0.280 C 
BRANCH  12  13
HETATM   13  C   UNL     1     -36.340  38.941 -59.516  1.00  0.00     0.009 A 
HETATM   14  S   UNL     1     -36.709  37.339 -60.005  1.00  0.00    -0.096 SA
HETATM   15  C   UNL     1     -37.597  37.870 -61.376  1.00  0.00     0.009 A 
HETATM   16  C   UNL     1     -37.594  39.249 -61.463  1.00  0.00     0.017 A 
HETATM   17  C   UNL     1     -36.864  39.863 -60.400  1.00  0.00     0.017 A 
BRANCH  15  18
HETATM   18  C   UNL     1     -38.292  36.869 -62.261  1.00  0.00     0.280 C 
BRANCH  18  19
HETATM   19  N   UNL     1     -39.805  36.910 -62.167  1.00  0.00    -0.067 N 
HETATM   20  H   UNL     1     -40.139  35.956 -62.344  1.00  0.00     0.280 HD
HETATM   21  C   UNL     1     -40.299  37.328 -60.801  1.00  0.00     0.235 C 
HETATM   22  C   UNL     1     -41.817  37.224 -60.755  1.00  0.00     0.028 C 
HETATM   23  C   UNL     1     -42.470  38.053 -61.855  1.00  0.00     0.003 C 
HETATM   24  C   UNL     1     -41.912  37.687 -63.225  1.00  0.00     0.028 C 
HETATM   25  C   UNL     1     -40.393  37.783 -63.259  1.00  0.00     0.235 C 
ENDBRANCH  18  19
ENDBRANCH  15  18
ENDBRANCH  12  13
ENDBRANCH   1  12
BRANCH   9  26
HETATM   26  C   UNL     1     -37.805  40.268 -52.224  1.00  0.00     0.100 C 
BRANCH  26  27
HETATM   27  C   UNL     1     -37.125  39.755 -50.952  1.00  0.00     0.130 C 
BRANCH  27  28
HETATM   28  N   UNL     1     -35.770  40.214 -50.667  1.00  0.00    -0.360 N 
HETATM   29  C   UNL     1     -34.714  39.440 -50.250  1.00  0.00     0.222 C 
HETATM   30  O   UNL     1     -34.818  38.268 -49.896  1.00  0.00    -0.273 OA
HETATM   31  H   UNL     1     -35.562  41.151 -50.997  1.00  0.00     0.162 HD
BRANCH  29  32
HETATM   32  C   UNL     1     -33.386  40.206 -50.208  1.00  0.00     0.082 C 
HETATM   33  C   UNL     1     -32.192  39.247 -50.156  1.00  0.00     0.040 C 
HETATM   34  C   UNL     1     -31.985  38.563 -51.501  1.00  0.00     0.168 C 
HETATM   35  O   UNL     1     -31.824  39.513 -52.555  1.00  0.00    -0.391 OA
HETATM   36  C   UNL     1     -32.923  40.407 -52.690  1.00  0.00     0.168 C 
HETATM   37  C   UNL     1     -33.230  41.155 -51.399  1.00  0.00     0.040 C 
ENDBRANCH  29  32
ENDBRANCH  27  28
ENDBRANCH  26  27
ENDBRANCH   9  26
TORSDOF 8
ENDMDL
MODEL 7
REMARK VINA RESULT:      -7.2      4.043      8.822
REMARK  8 active torsions:
REMARK  status: ('A' for Active; 'I' for Inactive)
REMARK    1  A    between atoms: C_2  and  C_3 
REMARK    2  A    between atoms: C_3  and  N_4 
REMARK    3  A    between atoms: C_12  and  C_13 
REMARK    4  A    between atoms: C_13  and  N_14 
REMARK    5  A    between atoms: C_22  and  C_23 
REMARK    6  A    between atoms: C_23  and  C_24 
REMARK    7  A    between atoms: C_24  and  N_25 
REMARK       I    between atoms: N_25  and  C_26 
REMARK    8  A    between atoms: C_26  and  C_27 
ROOT
HETATM    1  N   UNL     1     -42.255  58.433 -51.329  1.00  0.00    -0.065 N 
HETATM    2  H   UNL     1     -43.102  58.437 -50.742  1.00  0.00     0.280 HD
HETATM    3  C   UNL     1     -42.654  57.719 -52.618  1.00  0.00     0.255 C 
HETATM    4  C   UNL     1     -41.470  57.107 -53.357  1.00  0.00     0.159 C 
HETATM    5  N   UNL     1     -41.118  55.799 -52.849  1.00  0.00    -0.319 N 
HETATM    6  C   UNL     1     -41.073  55.422 -51.526  1.00  0.00     0.131 A 
HETATM    7  C   UNL     1     -41.448  56.243 -50.342  1.00  0.00     0.108 C 
HETATM    8  C   UNL     1     -41.178  57.732 -50.498  1.00  0.00     0.243 C 
HETATM    9  C   UNL     1     -40.782  54.683 -53.576  1.00  0.00     0.131 A 
HETATM   10  N   UNL     1     -40.496  53.713 -52.733  1.00  0.00    -0.135 NA
HETATM   11  N   UNL     1     -40.689  54.169 -51.461  1.00  0.00    -0.135 NA
ENDROOT
BRANCH   1  12
HETATM   12  C   UNL     1     -41.912  59.901 -51.520  1.00  0.00     0.280 C 
BRANCH  12  13
HETATM   13  C   UNL     1     -42.881  60.856 -50.879  1.00  0.00     0.009 A 
HETATM   14  S   UNL     1     -44.445  60.342 -50.395  1.00  0.00    -0.096 SA
HETATM   15  C   UNL     1     -44.836  61.874 -49.724  1.00  0.00     0.009 A 
HETATM   16  C   UNL     1     -43.792  62.764 -49.884  1.00  0.00     0.017 A 
HETATM   17  C   UNL     1     -42.675  62.183 -50.556  1.00  0.00     0.017 A 
BRANCH  15  18
HETATM   18  C   UNL     1     -46.155  62.078 -49.026  1.00  0.00     0.280 C 
BRANCH  18  19
HETATM   19  N   UNL     1     -46.051  62.116 -47.513  1.00  0.00    -0.067 N 
HETATM   20  H   UNL     1     -46.931  61.735 -47.147  1.00  0.00     0.280 HD
HETATM   21  C   UNL     1     -44.921  61.266 -46.979  1.00  0.00     0.235 C 
HETATM   22  C   UNL     1     -44.964  61.260 -45.458  1.00  0.00     0.028 C 
HETATM   23  C   UNL     1     -44.908  62.673 -44.889  1.00  0.00     0.003 C 
HETATM   24  C   UNL     1     -45.999  63.551 -45.490  1.00  0.00     0.028 C 
HETATM   25  C   UNL     1     -45.956  63.544 -47.011  1.00  0.00     0.235 C 
ENDBRANCH  18  19
ENDBRANCH  15  18
ENDBRANCH  12  13
ENDBRANCH   1  12
BRANCH   9  26
HETATM   26  C   UNL     1     -40.753  54.570 -55.062  1.00  0.00     0.100 C 
BRANCH  26  27
HETATM   27  C   UNL     1     -42.150  54.581 -55.688  1.00  0.00     0.130 C 
BRANCH  27  28
HETATM   28  N   UNL     1     -42.331  55.301 -56.945  1.00  0.00    -0.360 N 
HETATM   29  C   UNL     1     -43.037  56.465 -57.126  1.00  0.00     0.222 C 
HETATM   30  O   UNL     1     -43.760  56.972 -56.271  1.00  0.00    -0.273 OA
HETATM   31  H   UNL     1     -41.715  55.005 -57.694  1.00  0.00     0.162 HD
BRANCH  29  32
HETATM   32  C   UNL     1     -42.885  57.048 -58.536  1.00  0.00     0.082 C 
HETATM   33  C   UNL     1     -42.733  55.940 -59.583  1.00  0.00     0.040 C 
HETATM   34  C   UNL     1     -44.055  55.218 -59.808  1.00  0.00     0.168 C 
HETATM   35  O   UNL     1     -45.093  56.125 -60.180  1.00  0.00    -0.391 OA
HETATM   36  C   UNL     1     -45.320  57.156 -59.225  1.00  0.00     0.168 C 
HETATM   37  C   UNL     1     -44.061  57.953 -58.915  1.00  0.00     0.040 C 
ENDBRANCH  29  32
ENDBRANCH  27  28
ENDBRANCH  26  27
ENDBRANCH   9  26
TORSDOF 8
ENDMDL
MODEL 8
REMARK VINA RESULT:      -7.2      3.336      8.894
REMARK  8 active torsions:
REMARK  status: ('A' for Active; 'I' for Inactive)
REMARK    1  A    between atoms: C_2  and  C_3 
REMARK    2  A    between atoms: C_3  and  N_4 
REMARK    3  A    between atoms: C_12  and  C_13 
REMARK    4  A    between atoms: C_13  and  N_14 
REMARK    5  A    between atoms: C_22  and  C_23 
REMARK    6  A    between atoms: C_23  and  C_24 
REMARK    7  A    between atoms: C_24  and  N_25 
REMARK       I    between atoms: N_25  and  C_26 
REMARK    8  A    between atoms: C_26  and  C_27 
ROOT
HETATM    1  N   UNL     1     -44.243  56.397 -52.486  1.00  0.00    -0.065 N 
HETATM    2  H   UNL     1     -45.168  55.943 -52.499  1.00  0.00     0.280 HD
HETATM    3  C   UNL     1     -44.445  57.759 -53.145  1.00  0.00     0.255 C 
HETATM    4  C   UNL     1     -43.164  58.337 -53.734  1.00  0.00     0.159 C 
HETATM    5  N   UNL     1     -42.893  57.836 -55.063  1.00  0.00    -0.319 N 
HETATM    6  C   UNL     1     -43.046  56.537 -55.493  1.00  0.00     0.131 A 
HETATM    7  C   UNL     1     -43.592  55.389 -54.718  1.00  0.00     0.108 C 
HETATM    8  C   UNL     1     -43.302  55.444 -53.225  1.00  0.00     0.243 C 
HETATM    9  C   UNL     1     -42.452  58.548 -56.152  1.00  0.00     0.131 A 
HETATM   10  N   UNL     1     -42.295  57.713 -57.157  1.00  0.00    -0.135 NA
HETATM   11  N   UNL     1     -42.675  56.466 -56.750  1.00  0.00    -0.135 NA
ENDROOT
BRANCH   1  12
HETATM   12  C   UNL     1     -43.875  56.475 -51.013  1.00  0.00     0.280 C 
BRANCH  12  13
HETATM   13  C   UNL     1     -42.642  55.701 -50.636  1.00  0.00     0.009 A 
HETATM   14  S   UNL     1     -42.620  53.986 -50.688  1.00  0.00    -0.096 SA
HETATM   15  C   UNL     1     -40.962  53.907 -50.249  1.00  0.00     0.009 A 
HETATM   16  C   UNL     1     -40.442  55.172 -50.050  1.00  0.00     0.017 A 
HETATM   17  C   UNL     1     -41.410  56.200 -50.263  1.00  0.00     0.017 A 
BRANCH  15  18
HETATM   18  C   UNL     1     -40.261  52.576 -50.179  1.00  0.00     0.280 C 
BRANCH  18  19
HETATM   19  N   UNL     1     -40.353  51.764 -51.457  1.00  0.00    -0.067 N 
HETATM   20  H   UNL     1     -41.325  51.442 -51.533  1.00  0.00     0.280 HD
HETATM   21  C   UNL     1     -40.036  52.574 -52.693  1.00  0.00     0.235 C 
HETATM   22  C   UNL     1     -40.270  51.724 -53.932  1.00  0.00     0.028 C 
HETATM   23  C   UNL     1     -39.456  50.436 -53.893  1.00  0.00     0.003 C 
HETATM   24  C   UNL     1     -39.716  49.660 -52.608  1.00  0.00     0.028 C 
HETATM   25  C   UNL     1     -39.489  50.520 -51.373  1.00  0.00     0.235 C 
ENDBRANCH  18  19
ENDBRANCH  15  18
ENDBRANCH  12  13
ENDBRANCH   1  12
BRANCH   9  26
HETATM   26  C   UNL     1     -42.201  60.017 -56.206  1.00  0.00     0.100 C 
BRANCH  26  27
HETATM   27  C   UNL     1     -43.282  60.778 -56.978  1.00  0.00     0.130 C 
BRANCH  27  28
HETATM   28  N   UNL     1     -43.719  60.233 -58.260  1.00  0.00    -0.360 N 
HETATM   29  C   UNL     1     -44.870  59.521 -58.496  1.00  0.00     0.222 C 
HETATM   30  O   UNL     1     -45.612  59.100 -57.611  1.00  0.00    -0.273 OA
HETATM   31  H   UNL     1     -43.214  60.587 -59.065  1.00  0.00     0.162 HD
BRANCH  29  32
HETATM   32  C   UNL     1     -45.112  59.244 -59.985  1.00  0.00     0.082 C 
HETATM   33  C   UNL     1     -43.793  59.198 -60.764  1.00  0.00     0.040 C 
HETATM   34  C   UNL     1     -43.019  57.925 -60.449  1.00  0.00     0.168 C 
HETATM   35  O   UNL     1     -43.799  56.757 -60.706  1.00  0.00    -0.391 OA
HETATM   36  C   UNL     1     -45.020  56.713 -59.976  1.00  0.00     0.168 C 
HETATM   37  C   UNL     1     -45.886  57.943 -60.210  1.00  0.00     0.040 C 
ENDBRANCH  29  32
ENDBRANCH  27  28
ENDBRANCH  26  27
ENDBRANCH   9  26
TORSDOF 8
ENDMDL
MODEL 9
REMARK VINA RESULT:      -7.0      3.858      9.051
REMARK  8 active torsions:
REMARK  status: ('A' for Active; 'I' for Inactive)
REMARK    1  A    between atoms: C_2  and  C_3 
REMARK    2  A    between atoms: C_3  and  N_4 
REMARK    3  A    between atoms: C_12  and  C_13 
REMARK    4  A    between atoms: C_13  and  N_14 
REMARK    5  A    between atoms: C_22  and  C_23 
REMARK    6  A    between atoms: C_23  and  C_24 
REMARK    7  A    between atoms: C_24  and  N_25 
REMARK       I    between atoms: N_25  and  C_26 
REMARK    8  A    between atoms: C_26  and  C_27 
ROOT
HETATM    1  N   UNL     1     -41.455  58.400 -52.148  1.00  0.00    -0.065 N 
HETATM    2  H   UNL     1     -40.642  58.995 -51.930  1.00  0.00     0.280 HD
HETATM    3  C   UNL     1     -40.964  57.403 -53.196  1.00  0.00     0.255 C 
HETATM    4  C   UNL     1     -42.087  56.832 -54.053  1.00  0.00     0.159 C 
HETATM    5  N   UNL     1     -42.426  57.693 -55.164  1.00  0.00    -0.319 N 
HETATM    6  C   UNL     1     -42.532  59.065 -55.131  1.00  0.00     0.131 A 
HETATM    7  C   UNL     1     -42.249  59.964 -53.978  1.00  0.00     0.108 C 
HETATM    8  C   UNL     1     -42.554  59.355 -52.617  1.00  0.00     0.243 C 
HETATM    9  C   UNL     1     -42.688  57.322 -56.460  1.00  0.00     0.131 A 
HETATM   10  N   UNL     1     -42.990  58.403 -57.147  1.00  0.00    -0.135 NA
HETATM   11  N   UNL     1     -42.882  59.487 -56.323  1.00  0.00    -0.135 NA
ENDROOT
BRANCH   1  12
HETATM   12  C   UNL     1     -41.831  57.762 -50.821  1.00  0.00     0.280 C 
BRANCH  12  13
HETATM   13  C   UNL     1     -41.826  56.258 -50.829  1.00  0.00     0.009 A 
HETATM   14  S   UNL     1     -40.365  55.375 -50.655  1.00  0.00    -0.096 SA
HETATM   15  C   UNL     1     -41.177  53.861 -50.667  1.00  0.00     0.009 A 
HETATM   16  C   UNL     1     -42.540  54.033 -50.818  1.00  0.00     0.017 A 
HETATM   17  C   UNL     1     -42.910  55.408 -50.921  1.00  0.00     0.017 A 
BRANCH  15  18
HETATM   18  C   UNL     1     -40.401  52.586 -50.471  1.00  0.00     0.280 C 
BRANCH  18  19
HETATM   19  N   UNL     1     -40.417  51.664 -51.675  1.00  0.00    -0.067 N 
HETATM   20  H   UNL     1     -41.370  51.289 -51.748  1.00  0.00     0.280 HD
HETATM   21  C   UNL     1     -40.101  52.379 -52.968  1.00  0.00     0.235 C 
HETATM   22  C   UNL     1     -40.259  51.415 -54.134  1.00  0.00     0.028 C 
HETATM   23  C   UNL     1     -39.389  50.176 -53.962  1.00  0.00     0.003 C 
HETATM   24  C   UNL     1     -39.651  49.502 -52.621  1.00  0.00     0.028 C 
HETATM   25  C   UNL     1     -39.500  50.475 -51.461  1.00  0.00     0.235 C 
ENDBRANCH  18  19
ENDBRANCH  15  18
ENDBRANCH  12  13
ENDBRANCH   1  12
BRANCH   9  26
HETATM   26  C   UNL     1     -42.632  55.938 -57.014  1.00  0.00     0.100 C 
BRANCH  26  27
HETATM   27  C   UNL     1     -43.352  55.804 -58.358  1.00  0.00     0.130 C 
BRANCH  27  28
HETATM   28  N   UNL     1     -44.692  56.370 -58.475  1.00  0.00    -0.360 N 
HETATM   29  C   UNL     1     -45.244  56.942 -59.596  1.00  0.00     0.222 C 
HETATM   30  O   UNL     1     -44.610  57.206 -60.615  1.00  0.00    -0.273 OA
HETATM   31  H   UNL     1     -45.319  56.136 -57.713  1.00  0.00     0.162 HD
BRANCH  29  32
HETATM   32  C   UNL     1     -46.730  57.280 -59.430  1.00  0.00     0.082 C 
HETATM   33  C   UNL     1     -47.007  57.918 -58.066  1.00  0.00     0.040 C 
HETATM   34  C   UNL     1     -46.473  59.343 -58.013  1.00  0.00     0.168 C 
HETATM   35  O   UNL     1     -47.010  60.146 -59.066  1.00  0.00    -0.391 OA
HETATM   36  C   UNL     1     -46.747  59.633 -60.366  1.00  0.00     0.168 C 
HETATM   37  C   UNL     1     -47.238  58.202 -60.541  1.00  0.00     0.040 C 
ENDBRANCH  29  32
ENDBRANCH  27  28
ENDBRANCH  26  27
ENDBRANCH   9  26
TORSDOF 8
ENDMDL
MODEL 10
REMARK VINA RESULT:      -7.0      4.132      8.451
REMARK  8 active torsions:
REMARK  status: ('A' for Active; 'I' for Inactive)
REMARK    1  A    between atoms: C_2  and  C_3 
REMARK    2  A    between atoms: C_3  and  N_4 
REMARK    3  A    between atoms: C_12  and  C_13 
REMARK    4  A    between atoms: C_13  and  N_14 
REMARK    5  A    between atoms: C_22  and  C_23 
REMARK    6  A    between atoms: C_23  and  C_24 
REMARK    7  A    between atoms: C_24  and  N_25 
REMARK       I    between atoms: N_25  and  C_26 
REMARK    8  A    between atoms: C_26  and  C_27 
ROOT
HETATM    1  N   UNL     1     -42.036  59.597 -53.017  1.00  0.00    -0.065 N 
HETATM    2  H   UNL     1     -42.013  60.503 -53.507  1.00  0.00     0.280 HD
HETATM    3  C   UNL     1     -40.815  58.829 -53.519  1.00  0.00     0.255 C 
HETATM    4  C   UNL     1     -40.959  57.318 -53.382  1.00  0.00     0.159 C 
HETATM    5  N   UNL     1     -41.673  56.729 -54.493  1.00  0.00    -0.319 N 
HETATM    6  C   UNL     1     -42.796  57.239 -55.105  1.00  0.00     0.131 A 
HETATM    7  C   UNL     1     -43.470  58.534 -54.815  1.00  0.00     0.108 C 
HETATM    8  C   UNL     1     -43.389  58.973 -53.360  1.00  0.00     0.243 C 
HETATM    9  C   UNL     1     -41.369  55.568 -55.162  1.00  0.00     0.131 A 
HETATM   10  N   UNL     1     -42.289  55.367 -56.081  1.00  0.00    -0.135 NA
HETATM   11  N   UNL     1     -43.168  56.412 -56.052  1.00  0.00    -0.135 NA
ENDROOT
BRANCH   1  12
HETATM   12  C   UNL     1     -41.971  59.957 -51.541  1.00  0.00     0.280 C 
BRANCH  12  13
HETATM   13  C   UNL     1     -43.031  60.925 -51.089  1.00  0.00     0.009 A 
HETATM   14  S   UNL     1     -44.484  60.373 -50.364  1.00  0.00    -0.096 SA
HETATM   15  C   UNL     1     -45.049  61.970 -50.077  1.00  0.00     0.009 A 
HETATM   16  C   UNL     1     -44.145  62.905 -50.545  1.00  0.00     0.017 A 
HETATM   17  C   UNL     1     -42.992  62.304 -51.135  1.00  0.00     0.017 A 
BRANCH  15  18
HETATM   18  C   UNL     1     -46.348  62.193 -49.349  1.00  0.00     0.280 C 
BRANCH  18  19
HETATM   19  N   UNL     1     -46.204  62.971 -48.056  1.00  0.00    -0.067 N 
HETATM   20  H   UNL     1     -45.662  63.815 -48.277  1.00  0.00     0.280 HD
HETATM   21  C   UNL     1     -47.532  63.412 -47.483  1.00  0.00     0.235 C 
HETATM   22  C   UNL     1     -47.293  64.287 -46.261  1.00  0.00     0.028 C 
HETATM   23  C   UNL     1     -46.450  63.571 -45.213  1.00  0.00     0.003 C 
HETATM   24  C   UNL     1     -45.147  63.056 -45.812  1.00  0.00     0.028 C 
HETATM   25  C   UNL     1     -45.394  62.190 -47.039  1.00  0.00     0.235 C 
ENDBRANCH  18  19
ENDBRANCH  15  18
ENDBRANCH  12  13
ENDBRANCH   1  12
BRANCH   9  26
HETATM   26  C   UNL     1     -40.194  54.684 -54.910  1.00  0.00     0.100 C 
BRANCH  26  27
HETATM   27  C   UNL     1     -40.588  53.322 -54.334  1.00  0.00     0.130 C 
BRANCH  27  28
HETATM   28  N   UNL     1     -41.392  53.301 -53.116  1.00  0.00    -0.360 N 
HETATM   29  C   UNL     1     -40.947  53.535 -51.837  1.00  0.00     0.222 C 
HETATM   30  O   UNL     1     -39.761  53.629 -51.528  1.00  0.00    -0.273 OA
HETATM   31  H   UNL     1     -42.395  53.303 -53.271  1.00  0.00     0.162 HD
BRANCH  29  32
HETATM   32  C   UNL     1     -42.082  53.605 -50.808  1.00  0.00     0.082 C 
HETATM   33  C   UNL     1     -41.718  54.527 -49.640  1.00  0.00     0.040 C 
HETATM   34  C   UNL     1     -41.747  55.988 -50.069  1.00  0.00     0.168 C 
HETATM   35  O   UNL     1     -43.014  56.348 -50.621  1.00  0.00    -0.391 OA
HETATM   36  C   UNL     1     -43.394  55.560 -51.743  1.00  0.00     0.168 C 
HETATM   37  C   UNL     1     -43.400  54.069 -51.435  1.00  0.00     0.040 C 
ENDBRANCH  29  32
ENDBRANCH  27  28
ENDBRANCH  26  27
ENDBRANCH   9  26
TORSDOF 8
ENDMDL
