MODEL 1
REMARK VINA RESULT:      -6.4      0.000      0.000
REMARK  11 active torsions:
REMARK  status: ('A' for Active; 'I' for Inactive)
REMARK    1  A    between atoms: C_1  and  C_17 
REMARK    2  A    between atoms: C_1  and  S_18 
REMARK    3  A    between atoms: C_2  and  N_23 
REMARK    4  A    between atoms: C_3  and  C_13 
REMARK    5  A    between atoms: C_6  and  S_18 
REMARK    6  A    between atoms: C_6  and  S_19 
REMARK    7  A    between atoms: C_7  and  C_20 
REMARK    8  A    between atoms: C_7  and  C_21 
REMARK    9  A    between atoms: C_9  and  C_24 
REMARK   10  A    between atoms: C_16  and  C_17 
REMARK   11  A    between atoms: S_19  and  C_20 
ROOT
HETATM    1  C           1     -43.903  56.231 -53.819  0.00  0.00     0.092 C 
HETATM    2  C           1     -44.645  58.426 -53.167  0.00  0.00     0.156 C 
HETATM    3  C           1     -42.873  56.777 -52.871  0.00  0.00     0.127 C 
HETATM    4  C           1     -43.092  58.306 -53.001  0.00  0.00     0.136 C 
HETATM    5  C           1     -42.415  58.835 -54.224  0.00  0.00     0.079 C 
HETATM    6  N           1     -41.735  59.164 -55.105  0.00  0.00    -0.196 NA
HETATM    7  C           1     -41.309  56.524 -52.896  0.00  0.00     0.248 C 
HETATM    8  C           1     -41.204  58.415 -51.289  0.00  0.00     0.105 C 
HETATM    9  N           1     -44.866  57.109 -53.940  0.00  0.00    -0.350 N 
HETATM   10  N           1     -40.630  57.117 -51.619  0.00  0.00    -0.040 N 
HETATM   11  C           1     -40.482  59.158 -50.192  0.00  0.00     0.075 C 
HETATM   12  C           1     -42.314  58.939 -51.861  0.00  0.00     0.036 C 
HETATM   13  H           1     -45.700  56.937 -54.516  0.00  0.00     0.163 HD
HETATM   14  H           1     -39.618  57.259 -51.844  0.00  0.00     0.284 HD
HETATM   15  H           1     -40.682  56.464 -50.810  0.00  0.00     0.284 HD
ENDROOT
BRANCH   2  16
HETATM   16  S           1     -45.138  59.808 -54.249  0.00  0.00    -0.125 SA
BRANCH  16  17
HETATM   17  C           1     -45.484  58.981 -55.829  0.00  0.00     0.077 C 
BRANCH  17  18
HETATM   18  C           1     -44.818  59.777 -56.962  0.00  0.00     0.010 C 
BRANCH  18  19
HETATM   19  C           1     -44.088  58.851 -57.951  0.00  0.00    -0.004 C 
HETATM   20  C           1     -43.984  57.416 -57.418  0.00  0.00     0.005 C 
ENDBRANCH  18  19
ENDBRANCH  17  18
ENDBRANCH  16  17
ENDBRANCH   2  16
BRANCH   2  21
HETATM   21  S           1     -45.470  58.310 -51.544  0.00  0.00    -0.125 SA
BRANCH  21  22
HETATM   22  C           1     -46.162  59.989 -51.405  0.00  0.00     0.077 C 
BRANCH  22  23
HETATM   23  C           1     -45.349  60.774 -50.363  0.00  0.00     0.010 C 
BRANCH  23  24
HETATM   24  C           1     -44.503  61.877 -51.019  0.00  0.00    -0.004 C 
HETATM   25  C           1     -43.233  62.180 -50.213  0.00  0.00     0.005 C 
ENDBRANCH  23  24
ENDBRANCH  22  23
ENDBRANCH  21  22
ENDBRANCH   2  21
BRANCH   3  26
HETATM   26  C           1     -43.103  56.305 -51.481  0.00  0.00     0.105 C 
HETATM   27  N           1     -43.760  55.505 -50.959  0.00  0.00    -0.151 N 
ENDBRANCH   3  26
BRANCH   1  28
HETATM   28  N           1     -43.899  55.077 -54.342  0.00  0.00    -0.388 N 
HETATM   29  H           1     -44.802  54.599 -54.590  0.00  0.00     0.157 HD
HETATM   30  H           1     -42.997  54.579 -54.536  0.00  0.00     0.157 HD
ENDBRANCH   1  28
BRANCH   7  31
HETATM   31  C           1     -40.944  55.063 -53.107  0.00  0.00    -0.026 A 
HETATM   32  C           1     -40.929  54.157 -52.112  0.00  0.00     0.009 A 
HETATM   33  C           1     -40.609  52.873 -52.341  0.00  0.00     0.001 A 
HETATM   34  C           1     -40.293  52.468 -53.579  0.00  0.00     0.000 A 
HETATM   35  C           1     -40.292  53.358 -54.582  0.00  0.00     0.001 A 
HETATM   36  C           1     -40.609  54.639 -54.340  0.00  0.00     0.009 A 
ENDBRANCH   7  31
TORSDOF 11
ENDMDL
MODEL 2
REMARK VINA RESULT:      -6.2      1.709      4.706
REMARK  11 active torsions:
REMARK  status: ('A' for Active; 'I' for Inactive)
REMARK    1  A    between atoms: C_1  and  C_17 
REMARK    2  A    between atoms: C_1  and  S_18 
REMARK    3  A    between atoms: C_2  and  N_23 
REMARK    4  A    between atoms: C_3  and  C_13 
REMARK    5  A    between atoms: C_6  and  S_18 
REMARK    6  A    between atoms: C_6  and  S_19 
REMARK    7  A    between atoms: C_7  and  C_20 
REMARK    8  A    between atoms: C_7  and  C_21 
REMARK    9  A    between atoms: C_9  and  C_24 
REMARK   10  A    between atoms: C_16  and  C_17 
REMARK   11  A    between atoms: S_19  and  C_20 
ROOT
HETATM    1  C           1     -41.034  55.987 -54.204  0.00  0.00     0.092 C 
HETATM    2  C           1     -42.469  57.765 -53.448  0.00  0.00     0.156 C 
HETATM    3  C           1     -41.925  55.407 -53.142  0.00  0.00     0.127 C 
HETATM    4  C           1     -42.332  56.668 -52.338  0.00  0.00     0.136 C 
HETATM    5  C           1     -41.251  57.057 -51.381  0.00  0.00     0.079 C 
HETATM    6  N           1     -40.424  57.182 -50.577  0.00  0.00    -0.196 NA
HETATM    7  C           1     -41.564  54.277 -52.091  0.00  0.00     0.248 C 
HETATM    8  C           1     -43.655  54.984 -50.951  0.00  0.00     0.105 C 
HETATM    9  N           1     -41.361  57.241 -54.385  0.00  0.00    -0.350 N 
HETATM   10  N           1     -42.835  53.831 -51.298  0.00  0.00    -0.040 N 
HETATM   11  C           1     -44.799  54.681 -50.014  0.00  0.00     0.075 C 
HETATM   12  C           1     -43.472  56.238 -51.431  0.00  0.00     0.036 C 
HETATM   13  H           1     -40.905  57.835 -55.091  0.00  0.00     0.163 HD
HETATM   14  H           1     -42.505  53.389 -50.408  0.00  0.00     0.284 HD
HETATM   15  H           1     -43.388  53.117 -51.816  0.00  0.00     0.284 HD
ENDROOT
BRANCH   2  16
HETATM   16  S           1     -41.987  59.425 -52.870  0.00  0.00    -0.125 SA
BRANCH  16  17
HETATM   17  C           1     -43.582  60.182 -52.442  0.00  0.00     0.077 C 
BRANCH  17  18
HETATM   18  C           1     -43.878  59.908 -50.958  0.00  0.00     0.010 C 
BRANCH  18  19
HETATM   19  C           1     -45.313  59.392 -50.755  0.00  0.00    -0.004 C 
HETATM   20  C           1     -46.323  60.152 -51.624  0.00  0.00     0.005 C 
ENDBRANCH  18  19
ENDBRANCH  17  18
ENDBRANCH  16  17
ENDBRANCH   2  16
BRANCH   2  21
HETATM   21  S           1     -44.081  57.619 -54.291  0.00  0.00    -0.125 SA
BRANCH  21  22
HETATM   22  C           1     -43.668  58.321 -55.919  0.00  0.00     0.077 C 
BRANCH  22  23
HETATM   23  C           1     -44.080  57.318 -57.009  0.00  0.00     0.010 C 
BRANCH  23  24
HETATM   24  C           1     -42.858  56.618 -57.626  0.00  0.00    -0.004 C 
HETATM   25  C           1     -43.231  55.814 -58.878  0.00  0.00     0.005 C 
ENDBRANCH  23  24
ENDBRANCH  22  23
ENDBRANCH  21  22
ENDBRANCH   2  21
BRANCH   3  26
HETATM   26  C           1     -43.107  54.726 -53.731  0.00  0.00     0.105 C 
HETATM   27  N           1     -43.487  54.465 -54.794  0.00  0.00    -0.151 N 
ENDBRANCH   3  26
BRANCH   1  28
HETATM   28  N           1     -40.174  55.353 -54.886  0.00  0.00    -0.388 N 
HETATM   29  H           1     -39.497  55.866 -55.503  0.00  0.00     0.157 HD
HETATM   30  H           1     -40.124  54.306 -54.845  0.00  0.00     0.157 HD
ENDBRANCH   1  28
BRANCH   7  31
HETATM   31  C           1     -40.838  53.095 -52.713  0.00  0.00    -0.026 A 
HETATM   32  C           1     -41.164  52.578 -53.912  0.00  0.00     0.009 A 
HETATM   33  C           1     -40.492  51.538 -54.430  0.00  0.00     0.001 A 
HETATM   34  C           1     -39.475  50.987 -53.752  0.00  0.00     0.000 A 
HETATM   35  C           1     -39.141  51.481 -52.551  0.00  0.00     0.001 A 
HETATM   36  C           1     -39.822  52.519 -52.042  0.00  0.00     0.009 A 
ENDBRANCH   7  31
TORSDOF 11
ENDMDL
MODEL 3
REMARK VINA RESULT:      -6.1      2.083      6.786
REMARK  11 active torsions:
REMARK  status: ('A' for Active; 'I' for Inactive)
REMARK    1  A    between atoms: C_1  and  C_17 
REMARK    2  A    between atoms: C_1  and  S_18 
REMARK    3  A    between atoms: C_2  and  N_23 
REMARK    4  A    between atoms: C_3  and  C_13 
REMARK    5  A    between atoms: C_6  and  S_18 
REMARK    6  A    between atoms: C_6  and  S_19 
REMARK    7  A    between atoms: C_7  and  C_20 
REMARK    8  A    between atoms: C_7  and  C_21 
REMARK    9  A    between atoms: C_9  and  C_24 
REMARK   10  A    between atoms: C_16  and  C_17 
REMARK   11  A    between atoms: S_19  and  C_20 
ROOT
HETATM    1  C           1     -43.278  58.430 -51.881  0.00  0.00     0.092 C 
HETATM    2  C           1     -42.443  57.011 -53.636  0.00  0.00     0.156 C 
HETATM    3  C           1     -43.067  59.303 -53.086  0.00  0.00     0.127 C 
HETATM    4  C           1     -42.016  58.497 -53.890  0.00  0.00     0.136 C 
HETATM    5  C           1     -40.643  58.723 -53.342  0.00  0.00     0.079 C 
HETATM    6  N           1     -39.615  59.082 -52.940  0.00  0.00    -0.196 NA
HETATM    7  C           1     -42.612  60.821 -53.109  0.00  0.00     0.248 C 
HETATM    8  C           1     -42.232  60.436 -55.533  0.00  0.00     0.105 C 
HETATM    9  N           1     -42.975  57.198 -52.200  0.00  0.00    -0.350 N 
HETATM   10  N           1     -42.706  61.406 -54.556  0.00  0.00    -0.040 N 
HETATM   11  C           1     -42.096  60.975 -56.936  0.00  0.00     0.075 C 
HETATM   12  C           1     -41.960  59.136 -55.266  0.00  0.00     0.036 C 
HETATM   13  H           1     -43.074  56.416 -51.539  0.00  0.00     0.163 HD
HETATM   14  H           1     -42.073  62.239 -54.594  0.00  0.00     0.284 HD
HETATM   15  H           1     -43.668  61.733 -54.783  0.00  0.00     0.284 HD
ENDROOT
BRANCH   2  16
HETATM   16  S           1     -41.026  55.866 -53.573  0.00  0.00    -0.125 SA
BRANCH  16  17
HETATM   17  C           1     -41.496  54.716 -52.246  0.00  0.00     0.077 C 
BRANCH  17  18
HETATM   18  C           1     -40.673  53.426 -52.393  0.00  0.00     0.010 C 
BRANCH  18  19
HETATM   19  C           1     -40.759  52.860 -53.821  0.00  0.00    -0.004 C 
HETATM   20  C           1     -40.002  51.533 -53.957  0.00  0.00     0.005 C 
ENDBRANCH  18  19
ENDBRANCH  17  18
ENDBRANCH  16  17
ENDBRANCH   2  16
BRANCH   2  21
HETATM   21  S           1     -43.829  56.552 -54.731  0.00  0.00    -0.125 SA
BRANCH  21  22
HETATM   22  C           1     -43.117  55.104 -55.576  0.00  0.00     0.077 C 
BRANCH  22  23
HETATM   23  C           1     -42.796  55.490 -57.029  0.00  0.00     0.010 C 
BRANCH  23  24
HETATM   24  C           1     -43.505  56.791 -57.439  0.00  0.00    -0.004 C 
HETATM   25  C           1     -42.789  57.489 -58.603  0.00  0.00     0.005 C 
ENDBRANCH  23  24
ENDBRANCH  22  23
ENDBRANCH  21  22
ENDBRANCH   2  21
BRANCH   3  26
HETATM   26  C           1     -44.325  59.487 -53.855  0.00  0.00     0.105 C 
HETATM   27  N           1     -45.461  59.365 -53.657  0.00  0.00    -0.151 N 
ENDBRANCH   3  26
BRANCH   1  28
HETATM   28  N           1     -43.759  58.797 -50.767  0.00  0.00    -0.388 N 
HETATM   29  H           1     -43.152  58.846 -49.912  0.00  0.00     0.157 HD
HETATM   30  H           1     -44.772  59.058 -50.681  0.00  0.00     0.157 HD
ENDBRANCH   1  28
BRANCH   7  31
HETATM   31  C           1     -43.353  61.682 -52.098  0.00  0.00    -0.026 A 
HETATM   32  C           1     -44.492  62.339 -52.386  0.00  0.00     0.009 A 
HETATM   33  C           1     -45.121  63.083 -51.461  0.00  0.00     0.001 A 
HETATM   34  C           1     -44.617  63.187 -50.223  0.00  0.00     0.000 A 
HETATM   35  C           1     -43.478  62.549 -49.921  0.00  0.00     0.001 A 
HETATM   36  C           1     -42.856  61.811 -50.853  0.00  0.00     0.009 A 
ENDBRANCH   7  31
TORSDOF 11
ENDMDL
MODEL 4
REMARK VINA RESULT:      -6.0      2.050      6.602
REMARK  11 active torsions:
REMARK  status: ('A' for Active; 'I' for Inactive)
REMARK    1  A    between atoms: C_1  and  C_17 
REMARK    2  A    between atoms: C_1  and  S_18 
REMARK    3  A    between atoms: C_2  and  N_23 
REMARK    4  A    between atoms: C_3  and  C_13 
REMARK    5  A    between atoms: C_6  and  S_18 
REMARK    6  A    between atoms: C_6  and  S_19 
REMARK    7  A    between atoms: C_7  and  C_20 
REMARK    8  A    between atoms: C_7  and  C_21 
REMARK    9  A    between atoms: C_9  and  C_24 
REMARK   10  A    between atoms: C_16  and  C_17 
REMARK   11  A    between atoms: S_19  and  C_20 
ROOT
HETATM    1  C           1     -42.612  58.666 -51.541  0.00  0.00     0.092 C 
HETATM    2  C           1     -42.186  56.814 -53.018  0.00  0.00     0.156 C 
HETATM    3  C           1     -43.660  58.715 -52.617  0.00  0.00     0.127 C 
HETATM    4  C           1     -42.976  57.938 -53.771  0.00  0.00     0.136 C 
HETATM    5  C           1     -42.016  58.819 -54.505  0.00  0.00     0.079 C 
HETATM    6  N           1     -41.417  59.620 -55.094  0.00  0.00    -0.196 NA
HETATM    7  C           1     -44.331  60.002 -53.253  0.00  0.00     0.248 C 
HETATM    8  C           1     -45.158  58.436 -54.994  0.00  0.00     0.105 C 
HETATM    9  N           1     -41.852  57.622 -51.747  0.00  0.00    -0.350 N 
HETATM   10  N           1     -45.511  59.604 -54.198  0.00  0.00    -0.040 N 
HETATM   11  C           1     -46.151  58.094 -56.078  0.00  0.00     0.075 C 
HETATM   12  C           1     -44.063  57.664 -54.795  0.00  0.00     0.036 C 
HETATM   13  H           1     -41.082  57.366 -51.114  0.00  0.00     0.163 HD
HETATM   14  H           1     -45.667  60.406 -54.852  0.00  0.00     0.284 HD
HETATM   15  H           1     -46.397  59.450 -53.674  0.00  0.00     0.284 HD
ENDROOT
BRANCH   2  16
HETATM   16  S           1     -40.619  56.375 -53.840  0.00  0.00    -0.125 SA
BRANCH  16  17
HETATM   17  C           1     -41.128  55.088 -55.017  0.00  0.00     0.077 C 
BRANCH  17  18
HETATM   18  C           1     -40.231  53.855 -54.822  0.00  0.00     0.010 C 
BRANCH  18  19
HETATM   19  C           1     -41.016  52.673 -54.227  0.00  0.00    -0.004 C 
HETATM   20  C           1     -40.208  51.369 -54.275  0.00  0.00     0.005 C 
ENDBRANCH  18  19
ENDBRANCH  17  18
ENDBRANCH  16  17
ENDBRANCH   2  16
BRANCH   2  21
HETATM   21  S           1     -43.301  55.439 -52.575  0.00  0.00    -0.125 SA
BRANCH  21  22
HETATM   22  C           1     -42.779  55.130 -50.859  0.00  0.00     0.077 C 
BRANCH  22  23
HETATM   23  C           1     -41.774  53.965 -50.851  0.00  0.00     0.010 C 
BRANCH  23  24
HETATM   24  C           1     -40.397  54.409 -50.333  0.00  0.00    -0.004 C 
HETATM   25  C           1     -40.245  54.156 -48.826  0.00  0.00     0.005 C 
ENDBRANCH  23  24
ENDBRANCH  22  23
ENDBRANCH  21  22
ENDBRANCH   2  21
BRANCH   3  26
HETATM   26  C           1     -44.920  58.058 -52.184  0.00  0.00     0.105 C 
HETATM   27  N           1     -45.374  57.676 -51.188  0.00  0.00    -0.151 N 
ENDBRANCH   3  26
BRANCH   1  28
HETATM   28  N           1     -42.530  59.443 -50.544  0.00  0.00    -0.388 N 
HETATM   29  H           1     -41.973  60.332 -50.603  0.00  0.00     0.157 HD
HETATM   30  H           1     -43.015  59.213 -49.643  0.00  0.00     0.157 HD
ENDBRANCH   1  28
BRANCH   7  31
HETATM   31  C           1     -44.757  61.027 -52.213  0.00  0.00    -0.026 A 
HETATM   32  C           1     -43.947  62.006 -51.770  0.00  0.00     0.009 A 
HETATM   33  C           1     -44.365  62.898 -50.856  0.00  0.00     0.001 A 
HETATM   34  C           1     -45.609  62.823 -50.361  0.00  0.00     0.000 A 
HETATM   35  C           1     -46.427  61.848 -50.782  0.00  0.00     0.001 A 
HETATM   36  C           1     -45.998  60.962 -51.693  0.00  0.00     0.009 A 
ENDBRANCH   7  31
TORSDOF 11
ENDMDL
MODEL 5
REMARK VINA RESULT:      -5.9      1.385      2.382
REMARK  11 active torsions:
REMARK  status: ('A' for Active; 'I' for Inactive)
REMARK    1  A    between atoms: C_1  and  C_17 
REMARK    2  A    between atoms: C_1  and  S_18 
REMARK    3  A    between atoms: C_2  and  N_23 
REMARK    4  A    between atoms: C_3  and  C_13 
REMARK    5  A    between atoms: C_6  and  S_18 
REMARK    6  A    between atoms: C_6  and  S_19 
REMARK    7  A    between atoms: C_7  and  C_20 
REMARK    8  A    between atoms: C_7  and  C_21 
REMARK    9  A    between atoms: C_9  and  C_24 
REMARK   10  A    between atoms: C_16  and  C_17 
REMARK   11  A    between atoms: S_19  and  C_20 
ROOT
HETATM    1  C           1     -44.026  56.796 -53.898  0.00  0.00     0.092 C 
HETATM    2  C           1     -44.625  59.023 -53.210  0.00  0.00     0.156 C 
HETATM    3  C           1     -42.912  57.297 -53.022  0.00  0.00     0.127 C 
HETATM    4  C           1     -43.071  58.834 -53.144  0.00  0.00     0.136 C 
HETATM    5  C           1     -42.453  59.331 -54.412  0.00  0.00     0.079 C 
HETATM    6  N           1     -41.817  59.627 -55.337  0.00  0.00    -0.196 NA
HETATM    7  C           1     -41.366  56.974 -53.148  0.00  0.00     0.248 C 
HETATM    8  C           1     -41.072  58.861 -51.560  0.00  0.00     0.105 C 
HETATM    9  N           1     -44.954  57.716 -53.960  0.00  0.00    -0.350 N 
HETATM   10  N           1     -40.579  57.539 -51.921  0.00  0.00    -0.040 N 
HETATM   11  C           1     -40.247  59.573 -50.516  0.00  0.00     0.075 C 
HETATM   12  C           1     -42.193  59.434 -52.060  0.00  0.00     0.036 C 
HETATM   13  H           1     -45.832  57.581 -54.480  0.00  0.00     0.163 HD
HETATM   14  H           1     -39.579  57.634 -52.212  0.00  0.00     0.284 HD
HETATM   15  H           1     -40.608  56.890 -51.107  0.00  0.00     0.284 HD
ENDROOT
BRANCH   2  16
HETATM   16  S           1     -45.126  60.425 -54.263  0.00  0.00    -0.125 SA
BRANCH  16  17
HETATM   17  C           1     -44.200  61.816 -53.550  0.00  0.00     0.077 C 
BRANCH  17  18
HETATM   18  C           1     -45.036  63.097 -53.701  0.00  0.00     0.010 C 
BRANCH  18  19
HETATM   19  C           1     -44.593  64.181 -52.703  0.00  0.00    -0.004 C 
HETATM   20  C           1     -43.093  64.095 -52.395  0.00  0.00     0.005 C 
ENDBRANCH  18  19
ENDBRANCH  17  18
ENDBRANCH  16  17
ENDBRANCH   2  16
BRANCH   2  21
HETATM   21  S           1     -45.347  58.947 -51.536  0.00  0.00    -0.125 SA
BRANCH  21  22
HETATM   22  C           1     -46.544  60.316 -51.630  0.00  0.00     0.077 C 
BRANCH  22  23
HETATM   23  C           1     -46.165  61.376 -50.581  0.00  0.00     0.010 C 
BRANCH  23  24
HETATM   24  C           1     -45.013  60.897 -49.684  0.00  0.00    -0.004 C 
HETATM   25  C           1     -43.863  61.912 -49.641  0.00  0.00     0.005 C 
ENDBRANCH  23  24
ENDBRANCH  22  23
ENDBRANCH  21  22
ENDBRANCH   2  21
BRANCH   3  26
HETATM   26  C           1     -43.072  56.838 -51.618  0.00  0.00     0.105 C 
HETATM   27  N           1     -43.738  56.079 -51.049  0.00  0.00    -0.151 N 
ENDBRANCH   3  26
BRANCH   1  28
HETATM   28  N           1     -44.108  55.642 -54.415  0.00  0.00    -0.388 N 
HETATM   29  H           1     -44.985  55.073 -54.316  0.00  0.00     0.157 HD
HETATM   30  H           1     -43.302  55.235 -54.950  0.00  0.00     0.157 HD
ENDBRANCH   1  28
BRANCH   7  31
HETATM   31  C           1     -41.082  55.498 -53.375  0.00  0.00    -0.026 A 
HETATM   32  C           1     -41.074  54.588 -52.383  0.00  0.00     0.009 A 
HETATM   33  C           1     -40.827  53.291 -52.627  0.00  0.00     0.001 A 
HETATM   34  C           1     -40.576  52.876 -53.878  0.00  0.00     0.000 A 
HETATM   35  C           1     -40.568  53.769 -54.878  0.00  0.00     0.001 A 
HETATM   36  C           1     -40.814  55.063 -54.622  0.00  0.00     0.009 A 
ENDBRANCH   7  31
TORSDOF 11
ENDMDL
MODEL 6
REMARK VINA RESULT:      -5.8      2.156      5.393
REMARK  11 active torsions:
REMARK  status: ('A' for Active; 'I' for Inactive)
REMARK    1  A    between atoms: C_1  and  C_17 
REMARK    2  A    between atoms: C_1  and  S_18 
REMARK    3  A    between atoms: C_2  and  N_23 
REMARK    4  A    between atoms: C_3  and  C_13 
REMARK    5  A    between atoms: C_6  and  S_18 
REMARK    6  A    between atoms: C_6  and  S_19 
REMARK    7  A    between atoms: C_7  and  C_20 
REMARK    8  A    between atoms: C_7  and  C_21 
REMARK    9  A    between atoms: C_9  and  C_24 
REMARK   10  A    between atoms: C_16  and  C_17 
REMARK   11  A    between atoms: S_19  and  C_20 
ROOT
HETATM    1  C           1     -42.284  58.659 -50.964  0.00  0.00     0.092 C 
HETATM    2  C           1     -43.535  60.531 -51.815  0.00  0.00     0.156 C 
HETATM    3  C           1     -43.057  58.163 -52.154  0.00  0.00     0.127 C 
HETATM    4  C           1     -44.220  59.185 -52.232  0.00  0.00     0.136 C 
HETATM    5  C           1     -45.292  58.842 -51.248  0.00  0.00     0.079 C 
HETATM    6  N           1     -46.123  58.406 -50.565  0.00  0.00    -0.196 NA
HETATM    7  C           1     -43.683  56.723 -52.366  0.00  0.00     0.248 C 
HETATM    8  C           1     -44.914  57.781 -54.247  0.00  0.00     0.105 C 
HETATM    9  N           1     -42.520  59.937 -50.816  0.00  0.00    -0.350 N 
HETATM   10  N           1     -44.233  56.566 -53.821  0.00  0.00    -0.040 N 
HETATM   11  C           1     -45.651  57.661 -55.558  0.00  0.00     0.075 C 
HETATM   12  C           1     -44.886  58.959 -53.578  0.00  0.00     0.036 C 
HETATM   13  H           1     -42.071  60.500 -50.081  0.00  0.00     0.163 HD
HETATM   14  H           1     -44.936  55.791 -53.804  0.00  0.00     0.284 HD
HETATM   15  H           1     -43.486  56.296 -54.494  0.00  0.00     0.284 HD
ENDROOT
BRANCH   2  16
HETATM   16  S           1     -44.653  61.641 -50.897  0.00  0.00    -0.125 SA
BRANCH  16  17
HETATM   17  C           1     -44.075  61.468 -49.183  0.00  0.00     0.077 C 
BRANCH  17  18
HETATM   18  C           1     -45.284  61.176 -48.279  0.00  0.00     0.010 C 
BRANCH  18  19
HETATM   19  C           1     -44.873  61.079 -46.800  0.00  0.00    -0.004 C 
HETATM   20  C           1     -45.927  60.343 -45.961  0.00  0.00     0.005 C 
ENDBRANCH  18  19
ENDBRANCH  17  18
ENDBRANCH  16  17
ENDBRANCH   2  16
BRANCH   2  21
HETATM   21  S           1     -42.631  61.250 -53.227  0.00  0.00    -0.125 SA
BRANCH  21  22
HETATM   22  C           1     -43.890  62.395 -53.877  0.00  0.00     0.077 C 
BRANCH  22  23
HETATM   23  C           1     -44.057  62.140 -55.384  0.00  0.00     0.010 C 
BRANCH  23  24
HETATM   24  C           1     -43.031  61.120 -55.903  0.00  0.00    -0.004 C 
HETATM   25  C           1     -43.560  60.345 -57.118  0.00  0.00     0.005 C 
ENDBRANCH  23  24
ENDBRANCH  22  23
ENDBRANCH  21  22
ENDBRANCH   2  21
BRANCH   3  26
HETATM   26  C           1     -42.230  58.177 -53.388  0.00  0.00     0.105 C 
HETATM   27  N           1     -41.108  58.303 -53.651  0.00  0.00    -0.151 N 
ENDBRANCH   3  26
BRANCH   1  28
HETATM   28  N           1     -41.463  57.984 -50.273  0.00  0.00    -0.388 N 
HETATM   29  H           1     -41.770  57.519 -49.383  0.00  0.00     0.157 HD
HETATM   30  H           1     -40.465  57.879 -50.578  0.00  0.00     0.157 HD
ENDBRANCH   1  28
BRANCH   7  31
HETATM   31  C           1     -42.730  55.598 -51.994  0.00  0.00    -0.026 A 
HETATM   32  C           1     -41.866  55.047 -52.865  0.00  0.00     0.009 A 
HETATM   33  C           1     -41.035  54.059 -52.494  0.00  0.00     0.001 A 
HETATM   34  C           1     -41.055  53.599 -51.235  0.00  0.00     0.000 A 
HETATM   35  C           1     -41.916  54.128 -50.355  0.00  0.00     0.001 A 
HETATM   36  C           1     -42.745  55.112 -50.738  0.00  0.00     0.009 A 
ENDBRANCH   7  31
TORSDOF 11
ENDMDL
MODEL 7
REMARK VINA RESULT:      -5.6     17.955     21.498
REMARK  11 active torsions:
REMARK  status: ('A' for Active; 'I' for Inactive)
REMARK    1  A    between atoms: C_1  and  C_17 
REMARK    2  A    between atoms: C_1  and  S_18 
REMARK    3  A    between atoms: C_2  and  N_23 
REMARK    4  A    between atoms: C_3  and  C_13 
REMARK    5  A    between atoms: C_6  and  S_18 
REMARK    6  A    between atoms: C_6  and  S_19 
REMARK    7  A    between atoms: C_7  and  C_20 
REMARK    8  A    between atoms: C_7  and  C_21 
REMARK    9  A    between atoms: C_9  and  C_24 
REMARK   10  A    between atoms: C_16  and  C_17 
REMARK   11  A    between atoms: S_19  and  C_20 
ROOT
HETATM    1  C           1     -32.899  37.776 -54.566  0.00  0.00     0.092 C 
HETATM    2  C           1     -33.396  37.903 -56.917  0.00  0.00     0.156 C 
HETATM    3  C           1     -33.535  39.116 -54.806  0.00  0.00     0.127 C 
HETATM    4  C           1     -33.254  39.342 -56.314  0.00  0.00     0.136 C 
HETATM    5  C           1     -31.858  39.836 -56.524  0.00  0.00     0.079 C 
HETATM    6  N           1     -30.821  40.355 -56.563  0.00  0.00    -0.196 NA
HETATM    7  C           1     -33.221  40.480 -54.063  0.00  0.00     0.248 C 
HETATM    8  C           1     -34.511  41.525 -55.911  0.00  0.00     0.105 C 
HETATM    9  N           1     -32.865  37.121 -55.698  0.00  0.00    -0.350 N 
HETATM   10  N           1     -34.242  41.588 -54.481  0.00  0.00    -0.040 N 
HETATM   11  C           1     -35.328  42.675 -56.446  0.00  0.00     0.075 C 
HETATM   12  C           1     -34.116  40.520 -56.730  0.00  0.00     0.036 C 
HETATM   13  H           1     -32.500  36.162 -55.770  0.00  0.00     0.163 HD
HETATM   14  H           1     -33.797  42.512 -54.275  0.00  0.00     0.284 HD
HETATM   15  H           1     -35.123  41.535 -53.929  0.00  0.00     0.284 HD
ENDROOT
BRANCH   2  16
HETATM   16  S           1     -32.268  37.605 -58.318  0.00  0.00    -0.125 SA
BRANCH  16  17
HETATM   17  C           1     -30.918  36.658 -57.555  0.00  0.00     0.077 C 
BRANCH  17  18
HETATM   18  C           1     -29.575  37.249 -58.015  0.00  0.00     0.010 C 
BRANCH  18  19
HETATM   19  C           1     -28.592  37.397 -56.841  0.00  0.00    -0.004 C 
HETATM   20  C           1     -29.296  37.261 -55.485  0.00  0.00     0.005 C 
ENDBRANCH  18  19
ENDBRANCH  17  18
ENDBRANCH  16  17
ENDBRANCH   2  16
BRANCH   2  21
HETATM   21  S           1     -35.155  37.490 -57.170  0.00  0.00    -0.125 SA
BRANCH  21  22
HETATM   22  C           1     -35.376  38.027 -58.896  0.00  0.00     0.077 C 
BRANCH  22  23
HETATM   23  C           1     -36.797  38.590 -59.060  0.00  0.00     0.010 C 
BRANCH  23  24
HETATM   24  C           1     -36.825  39.780 -60.033  0.00  0.00    -0.004 C 
HETATM   25  C           1     -37.162  41.096 -59.317  0.00  0.00     0.005 C 
ENDBRANCH  23  24
ENDBRANCH  22  23
ENDBRANCH  21  22
ENDBRANCH   2  21
BRANCH   3  26
HETATM   26  C           1     -34.992  39.091 -54.517  0.00  0.00     0.105 C 
HETATM   27  N           1     -35.731  38.386 -53.969  0.00  0.00    -0.151 N 
ENDBRANCH   3  26
BRANCH   1  28
HETATM   28  N           1     -32.542  37.310 -53.443  0.00  0.00    -0.388 N 
HETATM   29  H           1     -32.689  37.864 -52.563  0.00  0.00     0.157 HD
HETATM   30  H           1     -32.095  36.364 -53.373  0.00  0.00     0.157 HD
ENDBRANCH   1  28
BRANCH   7  31
HETATM   31  C           1     -33.134  40.329 -52.552  0.00  0.00    -0.026 A 
HETATM   32  C           1     -34.203  40.415 -51.740  0.00  0.00     0.009 A 
HETATM   33  C           1     -34.084  40.267 -50.411  0.00  0.00     0.001 A 
HETATM   34  C           1     -32.883  40.032 -49.863  0.00  0.00     0.000 A 
HETATM   35  C           1     -31.804  39.953 -50.654  0.00  0.00     0.001 A 
HETATM   36  C           1     -31.934  40.106 -51.981  0.00  0.00     0.009 A 
ENDBRANCH   7  31
TORSDOF 11
ENDMDL
MODEL 8
REMARK VINA RESULT:      -5.5      1.198      1.773
REMARK  11 active torsions:
REMARK  status: ('A' for Active; 'I' for Inactive)
REMARK    1  A    between atoms: C_1  and  C_17 
REMARK    2  A    between atoms: C_1  and  S_18 
REMARK    3  A    between atoms: C_2  and  N_23 
REMARK    4  A    between atoms: C_3  and  C_13 
REMARK    5  A    between atoms: C_6  and  S_18 
REMARK    6  A    between atoms: C_6  and  S_19 
REMARK    7  A    between atoms: C_7  and  C_20 
REMARK    8  A    between atoms: C_7  and  C_21 
REMARK    9  A    between atoms: C_9  and  C_24 
REMARK   10  A    between atoms: C_16  and  C_17 
REMARK   11  A    between atoms: S_19  and  C_20 
ROOT
HETATM    1  C           1     -43.942  56.161 -54.003  0.00  0.00     0.092 C 
HETATM    2  C           1     -44.611  58.431 -53.566  0.00  0.00     0.156 C 
HETATM    3  C           1     -42.848  56.790 -53.186  0.00  0.00     0.127 C 
HETATM    4  C           1     -43.053  58.298 -53.478  0.00  0.00     0.136 C 
HETATM    5  C           1     -42.444  58.670 -54.792  0.00  0.00     0.079 C 
HETATM    6  N           1     -41.814  58.881 -55.743  0.00  0.00    -0.196 NA
HETATM    7  C           1     -41.292  56.502 -53.274  0.00  0.00     0.248 C 
HETATM    8  C           1     -41.062  58.561 -51.904  0.00  0.00     0.105 C 
HETATM    9  N           1     -44.897  57.040 -54.167  0.00  0.00    -0.350 N 
HETATM   10  N           1     -40.528  57.223 -52.116  0.00  0.00    -0.040 N 
HETATM   11  C           1     -40.264  59.410 -50.945  0.00  0.00     0.075 C 
HETATM   12  C           1     -42.198  59.041 -52.466  0.00  0.00     0.036 C 
HETATM   13  H           1     -45.768  56.821 -54.670  0.00  0.00     0.163 HD
HETATM   14  H           1     -39.530  57.316 -52.415  0.00  0.00     0.284 HD
HETATM   15  H           1     -40.541  56.668 -51.235  0.00  0.00     0.284 HD
ENDROOT
BRANCH   2  16
HETATM   16  S           1     -45.150  59.692 -54.768  0.00  0.00    -0.125 SA
BRANCH  16  17
HETATM   17  C           1     -45.676  58.692 -56.191  0.00  0.00     0.077 C 
BRANCH  17  18
HETATM   18  C           1     -45.826  59.612 -57.414  0.00  0.00     0.010 C 
BRANCH  18  19
HETATM   19  C           1     -46.980  59.156 -58.325  0.00  0.00    -0.004 C 
HETATM   20  C           1     -46.868  57.670 -58.689  0.00  0.00     0.005 C 
ENDBRANCH  18  19
ENDBRANCH  17  18
ENDBRANCH  16  17
ENDBRANCH   2  16
BRANCH   2  21
HETATM   21  S           1     -45.338  58.519 -51.894  0.00  0.00    -0.125 SA
BRANCH  21  22
HETATM   22  C           1     -45.508  60.322 -51.702  0.00  0.00     0.077 C 
BRANCH  22  23
HETATM   23  C           1     -47.001  60.685 -51.758  0.00  0.00     0.010 C 
BRANCH  23  24
HETATM   24  C           1     -47.232  62.021 -52.482  0.00  0.00    -0.004 C 
HETATM   25  C           1     -48.696  62.194 -52.910  0.00  0.00     0.005 C 
ENDBRANCH  23  24
ENDBRANCH  22  23
ENDBRANCH  21  22
ENDBRANCH   2  21
BRANCH   3  26
HETATM   26  C           1     -43.000  56.484 -51.740  0.00  0.00     0.105 C 
HETATM   27  N           1     -43.661  55.788 -51.089  0.00  0.00    -0.151 N 
ENDBRANCH   3  26
BRANCH   1  28
HETATM   28  N           1     -43.987  54.955 -54.389  0.00  0.00    -0.388 N 
HETATM   29  H           1     -43.410  54.634 -55.206  0.00  0.00     0.157 HD
HETATM   30  H           1     -44.599  54.257 -53.900  0.00  0.00     0.157 HD
ENDBRANCH   1  28
BRANCH   7  31
HETATM   31  C           1     -40.962  55.019 -53.336  0.00  0.00    -0.026 A 
HETATM   32  C           1     -40.765  54.357 -54.491  0.00  0.00     0.009 A 
HETATM   33  C           1     -40.467  53.047 -54.503  0.00  0.00     0.001 A 
HETATM   34  C           1     -40.364  52.369 -53.350  0.00  0.00     0.000 A 
HETATM   35  C           1     -40.568  53.009 -52.190  0.00  0.00     0.001 A 
HETATM   36  C           1     -40.869  54.317 -52.191  0.00  0.00     0.009 A 
ENDBRANCH   7  31
TORSDOF 11
ENDMDL
MODEL 9
REMARK VINA RESULT:      -5.4     17.726     20.742
REMARK  11 active torsions:
REMARK  status: ('A' for Active; 'I' for Inactive)
REMARK    1  A    between atoms: C_1  and  C_17 
REMARK    2  A    between atoms: C_1  and  S_18 
REMARK    3  A    between atoms: C_2  and  N_23 
REMARK    4  A    between atoms: C_3  and  C_13 
REMARK    5  A    between atoms: C_6  and  S_18 
REMARK    6  A    between atoms: C_6  and  S_19 
REMARK    7  A    between atoms: C_7  and  C_20 
REMARK    8  A    between atoms: C_7  and  C_21 
REMARK    9  A    between atoms: C_9  and  C_24 
REMARK   10  A    between atoms: C_16  and  C_17 
REMARK   11  A    between atoms: S_19  and  C_20 
ROOT
HETATM    1  C           1     -33.312  40.340 -53.774  0.00  0.00     0.092 C 
HETATM    2  C           1     -35.706  40.520 -53.610  0.00  0.00     0.156 C 
HETATM    3  C           1     -33.889  39.495 -54.874  0.00  0.00     0.127 C 
HETATM    4  C           1     -35.309  39.189 -54.335  0.00  0.00     0.136 C 
HETATM    5  C           1     -35.268  38.072 -53.342  0.00  0.00     0.079 C 
HETATM    6  N           1     -35.147  37.108 -52.706  0.00  0.00    -0.196 NA
HETATM    7  C           1     -33.308  38.142 -55.458  0.00  0.00     0.248 C 
HETATM    8  C           1     -35.536  37.908 -56.529  0.00  0.00     0.105 C 
HETATM    9  N           1     -34.294  40.913 -53.128  0.00  0.00    -0.350 N 
HETATM   10  N           1     -34.109  37.694 -56.724  0.00  0.00    -0.040 N 
HETATM   11  C           1     -36.411  37.324 -57.612  0.00  0.00     0.075 C 
HETATM   12  C           1     -36.083  38.600 -55.501  0.00  0.00     0.036 C 
HETATM   13  H           1     -34.136  41.567 -52.349  0.00  0.00     0.163 HD
HETATM   14  H           1     -33.949  36.666 -56.843  0.00  0.00     0.284 HD
HETATM   15  H           1     -33.771  38.166 -57.588  0.00  0.00     0.284 HD
ENDROOT
BRANCH   2  16
HETATM   16  S           1     -36.752  40.245 -52.142  0.00  0.00    -0.125 SA
BRANCH  16  17
HETATM   17  C           1     -35.642  40.676 -50.770  0.00  0.00     0.077 C 
BRANCH  17  18
HETATM   18  C           1     -35.451  39.438 -49.878  0.00  0.00     0.010 C 
BRANCH  18  19
HETATM   19  C           1     -33.974  39.016 -49.807  0.00  0.00    -0.004 C 
HETATM   20  C           1     -33.029  40.219 -49.929  0.00  0.00     0.005 C 
ENDBRANCH  18  19
ENDBRANCH  17  18
ENDBRANCH  16  17
ENDBRANCH   2  16
BRANCH   2  21
HETATM   21  S           1     -36.288  41.755 -54.821  0.00  0.00    -0.125 SA
BRANCH  21  22
HETATM   22  C           1     -38.015  41.218 -55.036  0.00  0.00     0.077 C 
BRANCH  22  23
HETATM   23  C           1     -38.308  41.090 -56.540  0.00  0.00     0.010 C 
BRANCH  23  24
HETATM   24  C           1     -37.250  41.816 -57.386  0.00  0.00    -0.004 C 
HETATM   25  C           1     -36.868  41.012 -58.636  0.00  0.00     0.005 C 
ENDBRANCH  23  24
ENDBRANCH  22  23
ENDBRANCH  21  22
ENDBRANCH   2  21
BRANCH   3  26
HETATM   26  C           1     -33.939  40.234 -56.163  0.00  0.00     0.105 C 
HETATM   27  N           1     -33.577  41.260 -56.562  0.00  0.00    -0.151 N 
ENDBRANCH   3  26
BRANCH   1  28
HETATM   28  N           1     -32.080  40.548 -53.560  0.00  0.00    -0.388 N 
HETATM   29  H           1     -31.772  41.230 -52.823  0.00  0.00     0.157 HD
HETATM   30  H           1     -31.347  40.043 -54.116  0.00  0.00     0.157 HD
ENDBRANCH   1  28
BRANCH   7  31
HETATM   31  C           1     -31.811  38.202 -55.725  0.00  0.00    -0.026 A 
HETATM   32  C           1     -31.271  38.910 -56.734  0.00  0.00     0.009 A 
HETATM   33  C           1     -29.943  38.943 -56.930  0.00  0.00     0.001 A 
HETATM   34  C           1     -29.124  38.262 -56.117  0.00  0.00     0.000 A 
HETATM   35  C           1     -29.644  37.542 -55.112  0.00  0.00     0.001 A 
HETATM   36  C           1     -30.972  37.513 -54.928  0.00  0.00     0.009 A 
ENDBRANCH   7  31
TORSDOF 11
ENDMDL
MODEL 10
REMARK VINA RESULT:      -5.4      1.863      3.969
REMARK  11 active torsions:
REMARK  status: ('A' for Active; 'I' for Inactive)
REMARK    1  A    between atoms: C_1  and  C_17 
REMARK    2  A    between atoms: C_1  and  S_18 
REMARK    3  A    between atoms: C_2  and  N_23 
REMARK    4  A    between atoms: C_3  and  C_13 
REMARK    5  A    between atoms: C_6  and  S_18 
REMARK    6  A    between atoms: C_6  and  S_19 
REMARK    7  A    between atoms: C_7  and  C_20 
REMARK    8  A    between atoms: C_7  and  C_21 
REMARK    9  A    between atoms: C_9  and  C_24 
REMARK   10  A    between atoms: C_16  and  C_17 
REMARK   11  A    between atoms: S_19  and  C_20 
ROOT
HETATM    1  C           1     -43.220  57.265 -52.758  0.00  0.00     0.092 C 
HETATM    2  C           1     -43.948  59.516 -53.201  0.00  0.00     0.156 C 
HETATM    3  C           1     -42.737  57.616 -54.137  0.00  0.00     0.127 C 
HETATM    4  C           1     -43.719  58.744 -54.546  0.00  0.00     0.136 C 
HETATM    5  C           1     -45.015  58.170 -55.020  0.00  0.00     0.079 C 
HETATM    6  N           1     -45.916  57.624 -55.507  0.00  0.00    -0.196 NA
HETATM    7  C           1     -42.590  56.649 -55.383  0.00  0.00     0.248 C 
HETATM    8  C           1     -42.346  58.743 -56.696  0.00  0.00     0.105 C 
HETATM    9  N           1     -43.834  58.304 -52.253  0.00  0.00    -0.350 N 
HETATM   10  N           1     -41.869  57.373 -56.566  0.00  0.00    -0.040 N 
HETATM   11  C           1     -41.859  59.462 -57.930  0.00  0.00     0.075 C 
HETATM   12  C           1     -43.132  59.379 -55.794  0.00  0.00     0.036 C 
HETATM   13  H           1     -44.223  58.307 -51.300  0.00  0.00     0.163 HD
HETATM   14  H           1     -42.119  56.859 -57.442  0.00  0.00     0.284 HD
HETATM   15  H           1     -40.833  57.342 -56.470  0.00  0.00     0.284 HD
ENDROOT
BRANCH   2  16
HETATM   16  S           1     -45.632  60.198 -53.052  0.00  0.00    -0.125 SA
BRANCH  16  17
HETATM   17  C           1     -45.377  61.971 -53.361  0.00  0.00     0.077 C 
BRANCH  17  18
HETATM   18  C           1     -46.153  62.774 -52.304  0.00  0.00     0.010 C 
BRANCH  18  19
HETATM   19  C           1     -45.388  64.041 -51.885  0.00  0.00    -0.004 C 
HETATM   20  C           1     -44.147  64.275 -52.756  0.00  0.00     0.005 C 
ENDBRANCH  18  19
ENDBRANCH  17  18
ENDBRANCH  16  17
ENDBRANCH   2  16
BRANCH   2  21
HETATM   21  S           1     -42.561  60.657 -52.879  0.00  0.00    -0.125 SA
BRANCH  21  22
HETATM   22  C           1     -42.351  60.423 -51.085  0.00  0.00     0.077 C 
BRANCH  22  23
HETATM   23  C           1     -42.992  61.614 -50.353  0.00  0.00     0.010 C 
BRANCH  23  24
HETATM   24  C           1     -44.236  61.186 -49.559  0.00  0.00    -0.004 C 
HETATM   25  C           1     -44.652  62.249 -48.532  0.00  0.00     0.005 C 
ENDBRANCH  23  24
ENDBRANCH  22  23
ENDBRANCH  21  22
ENDBRANCH   2  21
BRANCH   3  26
HETATM   26  C           1     -41.330  58.093 -54.119  0.00  0.00     0.105 C 
HETATM   27  N           1     -40.463  58.137 -53.350  0.00  0.00    -0.151 N 
ENDBRANCH   3  26
BRANCH   1  28
HETATM   28  N           1     -42.991  56.182 -52.140  0.00  0.00    -0.388 N 
HETATM   29  H           1     -43.744  55.724 -51.568  0.00  0.00     0.157 HD
HETATM   30  H           1     -42.048  55.727 -52.188  0.00  0.00     0.157 HD
ENDBRANCH   1  28
BRANCH   7  31
HETATM   31  C           1     -41.924  55.327 -55.036  0.00  0.00    -0.026 A 
HETATM   32  C           1     -40.591  55.144 -55.065  0.00  0.00     0.009 A 
HETATM   33  C           1     -40.041  53.961 -54.743  0.00  0.00     0.001 A 
HETATM   34  C           1     -40.821  52.930 -54.386  0.00  0.00     0.000 A 
HETATM   35  C           1     -42.151  53.090 -54.362  0.00  0.00     0.001 A 
HETATM   36  C           1     -42.690  54.274 -54.689  0.00  0.00     0.009 A 
ENDBRANCH   7  31
TORSDOF 11
ENDMDL
