MODEL 1
REMARK VINA RESULT:      -8.0      0.000      0.000
REMARK  6 active torsions:
REMARK  status: ('A' for Active; 'I' for Inactive)
REMARK    1  A    between atoms: C_7  and  S_8 
REMARK    2  A    between atoms: S_8  and  C_9 
REMARK    3  A    between atoms: C_9  and  C_10 
REMARK    4  A    between atoms: C_18  and  C_19 
REMARK    5  A    between atoms: C_26  and  C_27 
REMARK    6  A    between atoms: C_27  and  O_28 
ROOT
HETATM    1  C   UNL     1     -43.892  57.223 -57.719  1.00  0.00     0.070 C 
HETATM    2  C   UNL     1     -43.572  57.237 -56.245  1.00  0.00     0.037 C 
HETATM    3  N   UNL     1     -43.803  56.041 -55.568  1.00  0.00    -0.192 N 
HETATM    4  C   UNL     1     -43.326  55.799 -54.331  1.00  0.00     0.726 A 
HETATM    5  N   UNL     1     -42.775  56.821 -53.611  1.00  0.00    -0.082 N 
HETATM    6  N   UNL     1     -42.256  56.378 -52.447  1.00  0.00    -0.128 NA
HETATM    7  C   UNL     1     -42.558  55.074 -52.520  1.00  0.00     0.226 A 
HETATM    8  N   UNL     1     -43.230  54.688 -53.654  1.00  0.00    -0.035 NA
HETATM    9  C   UNL     1     -42.672  58.201 -54.100  1.00  0.00     0.203 C 
HETATM   10  C   UNL     1     -43.028  58.289 -55.582  1.00  0.00     0.070 C 
HETATM   11  H   UNL     1     -44.116  55.245 -56.120  1.00  0.00     0.184 HD
ENDROOT
BRANCH   7  12
HETATM   12  S   UNL     1     -42.087  53.910 -51.314  1.00  0.00    -0.083 SA
BRANCH  12  13
HETATM   13  C   UNL     1     -40.322  53.707 -51.677  1.00  0.00     0.123 C 
BRANCH  13  14
HETATM   14  C   UNL     1     -40.039  52.320 -52.211  1.00  0.00    -0.027 A 
HETATM   15  C   UNL     1     -40.032  52.016 -53.583  1.00  0.00     0.041 A 
HETATM   16 CL   UNL     1     -40.313  53.218 -54.793  1.00  0.00    -0.084 Cl
HETATM   17  C   UNL     1     -39.800  50.707 -54.020  1.00  0.00     0.024 A 
HETATM   18  C   UNL     1     -39.582  49.684 -53.098  1.00  0.00     0.002 A 
HETATM   19  C   UNL     1     -39.594  49.967 -51.736  1.00  0.00     0.001 A 
HETATM   20  C   UNL     1     -39.821  51.272 -51.296  1.00  0.00     0.009 A 
ENDBRANCH  13  14
ENDBRANCH  12  13
ENDBRANCH   7  12
BRANCH   9  21
HETATM   21  C   UNL     1     -43.542  59.128 -53.250  1.00  0.00    -0.026 A 
HETATM   22  C   UNL     1     -42.934  60.053 -52.383  1.00  0.00     0.033 A 
HETATM   23  C   UNL     1     -43.713  60.924 -51.622  1.00  0.00     0.034 A 
HETATM   24 CL   UNL     1     -42.953  62.053 -50.568  1.00  0.00    -0.084 Cl
HETATM   25  C   UNL     1     -45.102  60.894 -51.712  1.00  0.00     0.024 A 
HETATM   26  C   UNL     1     -45.720  59.988 -52.573  1.00  0.00     0.002 A 
HETATM   27  C   UNL     1     -44.946  59.114 -53.339  1.00  0.00     0.010 A 
ENDBRANCH   9  21
BRANCH  10  28
HETATM   28  C   UNL     1     -42.656  59.581 -56.196  1.00  0.00     0.293 C 
HETATM   29  O   UNL     1     -41.492  59.929 -56.340  1.00  0.00    -0.259 OA
BRANCH  28  30
HETATM   30  O   UNL     1     -43.749  60.318 -56.502  1.00  0.00    -0.323 OA
HETATM   31  C   UNL     1     -43.745  61.627 -55.929  1.00  0.00     0.213 C 
ENDBRANCH  28  30
ENDBRANCH  10  28
TORSDOF 6
ENDMDL
MODEL 2
REMARK VINA RESULT:      -7.9      1.992      2.461
REMARK  6 active torsions:
REMARK  status: ('A' for Active; 'I' for Inactive)
REMARK    1  A    between atoms: C_7  and  S_8 
REMARK    2  A    between atoms: S_8  and  C_9 
REMARK    3  A    between atoms: C_9  and  C_10 
REMARK    4  A    between atoms: C_18  and  C_19 
REMARK    5  A    between atoms: C_26  and  C_27 
REMARK    6  A    between atoms: C_27  and  O_28 
ROOT
HETATM    1  C   UNL     1     -44.985  59.139 -56.860  1.00  0.00     0.070 C 
HETATM    2  C   UNL     1     -43.994  58.368 -56.025  1.00  0.00     0.037 C 
HETATM    3  N   UNL     1     -44.307  57.029 -55.802  1.00  0.00    -0.192 N 
HETATM    4  C   UNL     1     -43.416  56.142 -55.318  1.00  0.00     0.726 A 
HETATM    5  N   UNL     1     -42.224  56.590 -54.821  1.00  0.00    -0.082 N 
HETATM    6  N   UNL     1     -41.417  55.564 -54.480  1.00  0.00    -0.128 NA
HETATM    7  C   UNL     1     -42.205  54.519 -54.773  1.00  0.00     0.226 A 
HETATM    8  N   UNL     1     -43.444  54.839 -55.273  1.00  0.00    -0.035 NA
HETATM    9  C   UNL     1     -41.842  58.006 -54.769  1.00  0.00     0.203 C 
HETATM   10  C   UNL     1     -42.824  58.872 -55.554  1.00  0.00     0.070 C 
HETATM   11  H   UNL     1     -45.141  56.663 -56.257  1.00  0.00     0.184 HD
ENDROOT
BRANCH   7  12
HETATM   12  S   UNL     1     -41.701  52.861 -54.613  1.00  0.00    -0.083 SA
BRANCH  12  13
HETATM   13  C   UNL     1     -40.128  53.044 -53.731  1.00  0.00     0.123 C 
BRANCH  13  14
HETATM   14  C   UNL     1     -39.993  51.996 -52.648  1.00  0.00    -0.027 A 
HETATM   15  C   UNL     1     -39.676  50.655 -52.917  1.00  0.00     0.041 A 
HETATM   16 CL   UNL     1     -39.374  50.085 -54.521  1.00  0.00    -0.084 Cl
HETATM   17  C   UNL     1     -39.601  49.719 -51.879  1.00  0.00     0.024 A 
HETATM   18  C   UNL     1     -39.849  50.106 -50.563  1.00  0.00     0.002 A 
HETATM   19  C   UNL     1     -40.172  51.429 -50.280  1.00  0.00     0.001 A 
HETATM   20  C   UNL     1     -40.244  52.366 -51.313  1.00  0.00     0.009 A 
ENDBRANCH  13  14
ENDBRANCH  12  13
ENDBRANCH   7  12
BRANCH   9  21
HETATM   21  C   UNL     1     -41.714  58.466 -53.316  1.00  0.00    -0.026 A 
HETATM   22  C   UNL     1     -40.439  58.680 -52.763  1.00  0.00     0.033 A 
HETATM   23  C   UNL     1     -40.306  59.125 -51.447  1.00  0.00     0.034 A 
HETATM   24 CL   UNL     1     -38.739  59.385 -50.786  1.00  0.00    -0.084 Cl
HETATM   25  C   UNL     1     -41.433  59.369 -50.665  1.00  0.00     0.024 A 
HETATM   26  C   UNL     1     -42.704  59.169 -51.203  1.00  0.00     0.002 A 
HETATM   27  C   UNL     1     -42.844  58.724 -52.519  1.00  0.00     0.010 A 
ENDBRANCH   9  21
BRANCH  10  28
HETATM   28  C   UNL     1     -42.333  60.246 -55.790  1.00  0.00     0.293 C 
HETATM   29  O   UNL     1     -42.840  61.225 -55.261  1.00  0.00    -0.259 OA
BRANCH  28  30
HETATM   30  O   UNL     1     -41.325  60.264 -56.692  1.00  0.00    -0.323 OA
HETATM   31  C   UNL     1     -41.753  60.479 -58.039  1.00  0.00     0.213 C 
ENDBRANCH  28  30
ENDBRANCH  10  28
TORSDOF 6
ENDMDL
MODEL 3
REMARK VINA RESULT:      -7.7      3.075      3.693
REMARK  6 active torsions:
REMARK  status: ('A' for Active; 'I' for Inactive)
REMARK    1  A    between atoms: C_7  and  S_8 
REMARK    2  A    between atoms: S_8  and  C_9 
REMARK    3  A    between atoms: C_9  and  C_10 
REMARK    4  A    between atoms: C_18  and  C_19 
REMARK    5  A    between atoms: C_26  and  C_27 
REMARK    6  A    between atoms: C_27  and  O_28 
ROOT
HETATM    1  C   UNL     1     -44.018  55.142 -60.020  1.00  0.00     0.070 C 
HETATM    2  C   UNL     1     -43.563  55.961 -58.838  1.00  0.00     0.037 C 
HETATM    3  N   UNL     1     -43.621  55.320 -57.603  1.00  0.00    -0.192 N 
HETATM    4  C   UNL     1     -43.010  55.799 -56.502  1.00  0.00     0.726 A 
HETATM    5  N   UNL     1     -42.489  57.062 -56.519  1.00  0.00    -0.082 N 
HETATM    6  N   UNL     1     -41.825  57.336 -55.377  1.00  0.00    -0.128 NA
HETATM    7  C   UNL     1     -42.014  56.194 -54.699  1.00  0.00     0.226 A 
HETATM    8  N   UNL     1     -42.751  55.237 -55.353  1.00  0.00    -0.035 NA
HETATM    9  C   UNL     1     -42.558  57.958 -57.680  1.00  0.00     0.203 C 
HETATM   10  C   UNL     1     -43.057  57.218 -58.918  1.00  0.00     0.070 C 
HETATM   11  H   UNL     1     -43.911  54.344 -57.597  1.00  0.00     0.184 HD
ENDROOT
BRANCH   7  12
HETATM   12  S   UNL     1     -41.329  55.883 -53.130  1.00  0.00    -0.083 SA
BRANCH  12  13
HETATM   13  C   UNL     1     -42.128  54.315 -52.690  1.00  0.00     0.123 C 
BRANCH  13  14
HETATM   14  C   UNL     1     -41.165  53.159 -52.846  1.00  0.00    -0.027 A 
HETATM   15  C   UNL     1     -40.287  52.753 -51.828  1.00  0.00     0.041 A 
HETATM   16 CL   UNL     1     -40.254  53.523 -50.280  1.00  0.00    -0.084 Cl
HETATM   17  C   UNL     1     -39.390  51.699 -52.040  1.00  0.00     0.024 A 
HETATM   18  C   UNL     1     -39.352  51.043 -53.270  1.00  0.00     0.002 A 
HETATM   19  C   UNL     1     -40.210  51.439 -54.291  1.00  0.00     0.001 A 
HETATM   20  C   UNL     1     -41.108  52.487 -54.082  1.00  0.00     0.009 A 
ENDBRANCH  13  14
ENDBRANCH  12  13
ENDBRANCH   7  12
BRANCH   9  21
HETATM   21  C   UNL     1     -43.424  59.176 -57.357  1.00  0.00    -0.026 A 
HETATM   22  C   UNL     1     -42.844  60.456 -57.333  1.00  0.00     0.033 A 
HETATM   23  C   UNL     1     -43.627  61.580 -57.066  1.00  0.00     0.034 A 
HETATM   24 CL   UNL     1     -42.903  63.142 -57.045  1.00  0.00    -0.084 Cl
HETATM   25  C   UNL     1     -44.993  61.451 -56.825  1.00  0.00     0.024 A 
HETATM   26  C   UNL     1     -45.583  60.188 -56.852  1.00  0.00     0.002 A 
HETATM   27  C   UNL     1     -44.806  59.059 -57.120  1.00  0.00     0.010 A 
ENDBRANCH   9  21
BRANCH  10  28
HETATM   28  C   UNL     1     -42.862  57.978 -60.171  1.00  0.00     0.293 C 
HETATM   29  O   UNL     1     -41.753  58.226 -60.623  1.00  0.00    -0.259 OA
BRANCH  28  30
HETATM   30  O   UNL     1     -44.041  58.399 -60.685  1.00  0.00    -0.323 OA
HETATM   31  C   UNL     1     -44.133  59.816 -60.845  1.00  0.00     0.213 C 
ENDBRANCH  28  30
ENDBRANCH  10  28
TORSDOF 6
ENDMDL
MODEL 4
REMARK VINA RESULT:      -7.6      2.991      5.106
REMARK  6 active torsions:
REMARK  status: ('A' for Active; 'I' for Inactive)
REMARK    1  A    between atoms: C_7  and  S_8 
REMARK    2  A    between atoms: S_8  and  C_9 
REMARK    3  A    between atoms: C_9  and  C_10 
REMARK    4  A    between atoms: C_18  and  C_19 
REMARK    5  A    between atoms: C_26  and  C_27 
REMARK    6  A    between atoms: C_27  and  O_28 
ROOT
HETATM    1  C   UNL     1     -43.315  62.693 -56.850  1.00  0.00     0.070 C 
HETATM    2  C   UNL     1     -43.120  61.226 -56.558  1.00  0.00     0.037 C 
HETATM    3  N   UNL     1     -42.099  60.921 -55.661  1.00  0.00    -0.192 N 
HETATM    4  C   UNL     1     -41.967  59.708 -55.090  1.00  0.00     0.726 A 
HETATM    5  N   UNL     1     -42.719  58.664 -55.550  1.00  0.00    -0.082 N 
HETATM    6  N   UNL     1     -42.537  57.558 -54.797  1.00  0.00    -0.128 NA
HETATM    7  C   UNL     1     -41.634  58.005 -53.913  1.00  0.00     0.226 A 
HETATM    8  N   UNL     1     -41.250  59.314 -54.073  1.00  0.00    -0.035 NA
HETATM    9  C   UNL     1     -43.677  58.772 -56.656  1.00  0.00     0.203 C 
HETATM   10  C   UNL     1     -43.900  60.230 -57.052  1.00  0.00     0.070 C 
HETATM   11  H   UNL     1     -41.604  61.702 -55.235  1.00  0.00     0.184 HD
ENDROOT
BRANCH   7  12
HETATM   12  S   UNL     1     -41.023  57.045 -52.596  1.00  0.00    -0.083 SA
BRANCH  12  13
HETATM   13  C   UNL     1     -42.166  55.637 -52.612  1.00  0.00     0.123 C 
BRANCH  13  14
HETATM   14  C   UNL     1     -41.422  54.344 -52.859  1.00  0.00    -0.027 A 
HETATM   15  C   UNL     1     -41.496  53.639 -54.071  1.00  0.00     0.041 A 
HETATM   16 CL   UNL     1     -42.423  54.211 -55.413  1.00  0.00    -0.084 Cl
HETATM   17  C   UNL     1     -40.816  52.426 -54.232  1.00  0.00     0.024 A 
HETATM   18  C   UNL     1     -40.061  51.897 -53.185  1.00  0.00     0.002 A 
HETATM   19  C   UNL     1     -39.984  52.578 -51.975  1.00  0.00     0.001 A 
HETATM   20  C   UNL     1     -40.658  53.790 -51.812  1.00  0.00     0.009 A 
ENDBRANCH  13  14
ENDBRANCH  12  13
ENDBRANCH   7  12
BRANCH   9  21
HETATM   21  C   UNL     1     -43.213  57.926 -57.842  1.00  0.00    -0.026 A 
HETATM   22  C   UNL     1     -43.871  56.720 -58.137  1.00  0.00     0.033 A 
HETATM   23  C   UNL     1     -43.476  55.950 -59.232  1.00  0.00     0.034 A 
HETATM   24 CL   UNL     1     -44.295  54.477 -59.582  1.00  0.00    -0.084 Cl
HETATM   25  C   UNL     1     -42.429  56.367 -60.050  1.00  0.00     0.024 A 
HETATM   26  C   UNL     1     -41.772  57.565 -59.775  1.00  0.00     0.002 A 
HETATM   27  C   UNL     1     -42.162  58.341 -58.681  1.00  0.00     0.010 A 
ENDBRANCH   9  21
BRANCH  10  28
HETATM   28  C   UNL     1     -45.064  60.422 -57.942  1.00  0.00     0.293 C 
HETATM   29  O   UNL     1     -46.214  60.248 -57.566  1.00  0.00    -0.259 OA
BRANCH  28  30
HETATM   30  O   UNL     1     -44.679  60.741 -59.200  1.00  0.00    -0.323 OA
HETATM   31  C   UNL     1     -45.207  59.874 -60.206  1.00  0.00     0.213 C 
ENDBRANCH  28  30
ENDBRANCH  10  28
TORSDOF 6
ENDMDL
MODEL 5
REMARK VINA RESULT:      -7.6      2.364      4.001
REMARK  6 active torsions:
REMARK  status: ('A' for Active; 'I' for Inactive)
REMARK    1  A    between atoms: C_7  and  S_8 
REMARK    2  A    between atoms: S_8  and  C_9 
REMARK    3  A    between atoms: C_9  and  C_10 
REMARK    4  A    between atoms: C_18  and  C_19 
REMARK    5  A    between atoms: C_26  and  C_27 
REMARK    6  A    between atoms: C_27  and  O_28 
ROOT
HETATM    1  C   UNL     1     -42.348  60.938 -50.401  1.00  0.00     0.070 C 
HETATM    2  C   UNL     1     -42.578  59.572 -51.000  1.00  0.00     0.037 C 
HETATM    3  N   UNL     1     -41.630  58.605 -50.675  1.00  0.00    -0.192 N 
HETATM    4  C   UNL     1     -41.823  57.290 -50.896  1.00  0.00     0.726 A 
HETATM    5  N   UNL     1     -42.884  56.886 -51.656  1.00  0.00    -0.082 N 
HETATM    6  N   UNL     1     -42.985  55.541 -51.684  1.00  0.00    -0.128 NA
HETATM    7  C   UNL     1     -41.926  55.196 -50.937  1.00  0.00     0.226 A 
HETATM    8  N   UNL     1     -41.182  56.244 -50.452  1.00  0.00    -0.035 NA
HETATM    9  C   UNL     1     -43.846  57.808 -52.272  1.00  0.00     0.203 C 
HETATM   10  C   UNL     1     -43.654  59.231 -51.755  1.00  0.00     0.070 C 
HETATM   11  H   UNL     1     -40.894  58.873 -50.025  1.00  0.00     0.184 HD
ENDROOT
BRANCH   7  12
HETATM   12  S   UNL     1     -41.532  53.551 -50.530  1.00  0.00    -0.083 SA
BRANCH  12  13
HETATM   13  C   UNL     1     -39.899  53.368 -51.297  1.00  0.00     0.123 C 
BRANCH  13  14
HETATM   14  C   UNL     1     -39.878  52.186 -52.240  1.00  0.00    -0.027 A 
HETATM   15  C   UNL     1     -40.196  52.290 -53.604  1.00  0.00     0.041 A 
HETATM   16 CL   UNL     1     -40.609  53.798 -54.340  1.00  0.00    -0.084 Cl
HETATM   17  C   UNL     1     -40.196  51.155 -54.424  1.00  0.00     0.024 A 
HETATM   18  C   UNL     1     -39.888  49.903 -53.893  1.00  0.00     0.002 A 
HETATM   19  C   UNL     1     -39.578  49.781 -52.542  1.00  0.00     0.001 A 
HETATM   20  C   UNL     1     -39.573  50.911 -51.723  1.00  0.00     0.009 A 
ENDBRANCH  13  14
ENDBRANCH  12  13
ENDBRANCH   7  12
BRANCH   9  21
HETATM   21  C   UNL     1     -43.746  57.737 -53.796  1.00  0.00    -0.026 A 
HETATM   22  C   UNL     1     -44.905  57.879 -54.578  1.00  0.00     0.033 A 
HETATM   23  C   UNL     1     -44.825  57.843 -55.971  1.00  0.00     0.034 A 
HETATM   24 CL   UNL     1     -46.254  58.022 -56.914  1.00  0.00    -0.084 Cl
HETATM   25  C   UNL     1     -43.597  57.673 -56.605  1.00  0.00     0.024 A 
HETATM   26  C   UNL     1     -42.438  57.539 -55.843  1.00  0.00     0.002 A 
HETATM   27  C   UNL     1     -42.510  57.574 -54.449  1.00  0.00     0.010 A 
ENDBRANCH   9  21
BRANCH  10  28
HETATM   28  C   UNL     1     -44.771  60.135 -52.102  1.00  0.00     0.293 C 
HETATM   29  O   UNL     1     -45.891  60.007 -51.629  1.00  0.00    -0.259 OA
BRANCH  28  30
HETATM   30  O   UNL     1     -44.402  61.045 -53.033  1.00  0.00    -0.323 OA
HETATM   31  C   UNL     1     -44.884  62.366 -52.777  1.00  0.00     0.213 C 
ENDBRANCH  28  30
ENDBRANCH  10  28
TORSDOF 6
ENDMDL
MODEL 6
REMARK VINA RESULT:      -7.6      4.119      7.246
REMARK  6 active torsions:
REMARK  status: ('A' for Active; 'I' for Inactive)
REMARK    1  A    between atoms: C_7  and  S_8 
REMARK    2  A    between atoms: S_8  and  C_9 
REMARK    3  A    between atoms: C_9  and  C_10 
REMARK    4  A    between atoms: C_18  and  C_19 
REMARK    5  A    between atoms: C_26  and  C_27 
REMARK    6  A    between atoms: C_27  and  O_28 
ROOT
HETATM    1  C   UNL     1     -42.514  60.820 -50.427  1.00  0.00     0.070 C 
HETATM    2  C   UNL     1     -42.297  60.250 -51.806  1.00  0.00     0.037 C 
HETATM    3  N   UNL     1     -43.023  60.857 -52.829  1.00  0.00    -0.192 N 
HETATM    4  C   UNL     1     -42.752  60.659 -54.133  1.00  0.00     0.726 A 
HETATM    5  N   UNL     1     -41.880  59.671 -54.496  1.00  0.00    -0.082 N 
HETATM    6  N   UNL     1     -41.647  59.684 -55.824  1.00  0.00    -0.128 NA
HETATM    7  C   UNL     1     -42.440  60.696 -56.207  1.00  0.00     0.226 A 
HETATM    8  N   UNL     1     -43.145  61.304 -55.197  1.00  0.00    -0.035 NA
HETATM    9  C   UNL     1     -41.209  58.783 -53.539  1.00  0.00     0.203 C 
HETATM   10  C   UNL     1     -41.417  59.261 -52.104  1.00  0.00     0.070 C 
HETATM   11  H   UNL     1     -43.596  61.661 -52.581  1.00  0.00     0.184 HD
ENDROOT
BRANCH   7  12
HETATM   12  S   UNL     1     -42.540  61.272 -57.846  1.00  0.00    -0.083 SA
BRANCH  12  13
HETATM   13  C   UNL     1     -43.923  60.292 -58.491  1.00  0.00     0.123 C 
BRANCH  13  14
HETATM   14  C   UNL     1     -43.479  58.883 -58.815  1.00  0.00    -0.027 A 
HETATM   15  C   UNL     1     -43.791  57.778 -58.006  1.00  0.00     0.041 A 
HETATM   16 CL   UNL     1     -44.751  57.927 -56.576  1.00  0.00    -0.084 Cl
HETATM   17  C   UNL     1     -43.323  56.501 -58.334  1.00  0.00     0.024 A 
HETATM   18  C   UNL     1     -42.530  56.310 -59.465  1.00  0.00     0.002 A 
HETATM   19  C   UNL     1     -42.204  57.396 -60.272  1.00  0.00     0.001 A 
HETATM   20  C   UNL     1     -42.673  58.670 -59.950  1.00  0.00     0.009 A 
ENDBRANCH  13  14
ENDBRANCH  12  13
ENDBRANCH   7  12
BRANCH   9  21
HETATM   21  C   UNL     1     -41.683  57.342 -53.733  1.00  0.00    -0.026 A 
HETATM   22  C   UNL     1     -40.792  56.377 -54.232  1.00  0.00     0.033 A 
HETATM   23  C   UNL     1     -41.202  55.052 -54.390  1.00  0.00     0.034 A 
HETATM   24 CL   UNL     1     -40.097  53.882 -55.000  1.00  0.00    -0.084 Cl
HETATM   25  C   UNL     1     -42.496  54.666 -54.049  1.00  0.00     0.024 A 
HETATM   26  C   UNL     1     -43.389  55.611 -53.545  1.00  0.00     0.002 A 
HETATM   27  C   UNL     1     -42.985  56.938 -53.384  1.00  0.00     0.010 A 
ENDBRANCH   9  21
BRANCH  10  28
HETATM   28  C   UNL     1     -40.527  58.593 -51.131  1.00  0.00     0.293 C 
HETATM   29  O   UNL     1     -40.938  57.783 -50.312  1.00  0.00    -0.259 OA
BRANCH  28  30
HETATM   30  O   UNL     1     -39.254  59.042 -51.233  1.00  0.00    -0.323 OA
HETATM   31  C   UNL     1     -38.854  59.903 -50.165  1.00  0.00     0.213 C 
ENDBRANCH  28  30
ENDBRANCH  10  28
TORSDOF 6
ENDMDL
MODEL 7
REMARK VINA RESULT:      -7.4      3.497      7.045
REMARK  6 active torsions:
REMARK  status: ('A' for Active; 'I' for Inactive)
REMARK    1  A    between atoms: C_7  and  S_8 
REMARK    2  A    between atoms: S_8  and  C_9 
REMARK    3  A    between atoms: C_9  and  C_10 
REMARK    4  A    between atoms: C_18  and  C_19 
REMARK    5  A    between atoms: C_26  and  C_27 
REMARK    6  A    between atoms: C_27  and  O_28 
ROOT
HETATM    1  C   UNL     1     -42.423  60.730 -50.802  1.00  0.00     0.070 C 
HETATM    2  C   UNL     1     -42.659  59.781 -51.950  1.00  0.00     0.037 C 
HETATM    3  N   UNL     1     -43.961  59.746 -52.445  1.00  0.00    -0.192 N 
HETATM    4  C   UNL     1     -44.280  59.170 -53.620  1.00  0.00     0.726 A 
HETATM    5  N   UNL     1     -43.352  58.401 -54.265  1.00  0.00    -0.082 N 
HETATM    6  N   UNL     1     -43.803  57.994 -55.470  1.00  0.00    -0.128 NA
HETATM    7  C   UNL     1     -45.031  58.534 -55.472  1.00  0.00     0.226 A 
HETATM    8  N   UNL     1     -45.362  59.247 -54.346  1.00  0.00    -0.035 NA
HETATM    9  C   UNL     1     -42.002  58.147 -53.750  1.00  0.00     0.203 C 
HETATM   10  C   UNL     1     -41.693  59.037 -52.548  1.00  0.00     0.070 C 
HETATM   11  H   UNL     1     -44.633  60.393 -52.036  1.00  0.00     0.184 HD
ENDROOT
BRANCH   7  12
HETATM   12  S   UNL     1     -46.128  58.421 -56.818  1.00  0.00    -0.083 SA
BRANCH  12  13
HETATM   13  C   UNL     1     -44.990  58.540 -58.225  1.00  0.00     0.123 C 
BRANCH  13  14
HETATM   14  C   UNL     1     -44.984  57.255 -59.022  1.00  0.00    -0.027 A 
HETATM   15  C   UNL     1     -43.852  56.431 -59.137  1.00  0.00     0.041 A 
HETATM   16 CL   UNL     1     -42.363  56.798 -58.340  1.00  0.00    -0.084 Cl
HETATM   17  C   UNL     1     -43.892  55.271 -59.919  1.00  0.00     0.024 A 
HETATM   18  C   UNL     1     -45.057  54.923 -60.603  1.00  0.00     0.002 A 
HETATM   19  C   UNL     1     -46.184  55.732 -60.507  1.00  0.00     0.001 A 
HETATM   20  C   UNL     1     -46.149  56.888 -59.724  1.00  0.00     0.009 A 
ENDBRANCH  13  14
ENDBRANCH  12  13
ENDBRANCH   7  12
BRANCH   9  21
HETATM   21  C   UNL     1     -41.833  56.664 -53.417  1.00  0.00    -0.026 A 
HETATM   22  C   UNL     1     -41.110  55.832 -54.289  1.00  0.00     0.033 A 
HETATM   23  C   UNL     1     -40.925  54.483 -53.985  1.00  0.00     0.034 A 
HETATM   24 CL   UNL     1     -40.033  53.479 -55.062  1.00  0.00    -0.084 Cl
HETATM   25  C   UNL     1     -41.449  53.942 -52.814  1.00  0.00     0.024 A 
HETATM   26  C   UNL     1     -42.163  54.757 -51.936  1.00  0.00     0.002 A 
HETATM   27  C   UNL     1     -42.351  56.108 -52.232  1.00  0.00     0.010 A 
ENDBRANCH   9  21
BRANCH  10  28
HETATM   28  C   UNL     1     -40.262  59.045 -52.179  1.00  0.00     0.293 C 
HETATM   29  O   UNL     1     -39.371  59.180 -53.005  1.00  0.00    -0.259 OA
BRANCH  28  30
HETATM   30  O   UNL     1     -40.091  58.823 -50.855  1.00  0.00    -0.323 OA
HETATM   31  C   UNL     1     -39.012  59.561 -50.277  1.00  0.00     0.213 C 
ENDBRANCH  28  30
ENDBRANCH  10  28
TORSDOF 6
ENDMDL
MODEL 8
REMARK VINA RESULT:      -7.4      3.073      5.289
REMARK  6 active torsions:
REMARK  status: ('A' for Active; 'I' for Inactive)
REMARK    1  A    between atoms: C_7  and  S_8 
REMARK    2  A    between atoms: S_8  and  C_9 
REMARK    3  A    between atoms: C_9  and  C_10 
REMARK    4  A    between atoms: C_18  and  C_19 
REMARK    5  A    between atoms: C_26  and  C_27 
REMARK    6  A    between atoms: C_27  and  O_28 
ROOT
HETATM    1  C   UNL     1     -41.695  61.352 -57.709  1.00  0.00     0.070 C 
HETATM    2  C   UNL     1     -42.410  60.081 -57.326  1.00  0.00     0.037 C 
HETATM    3  N   UNL     1     -41.751  59.277 -56.398  1.00  0.00    -0.192 N 
HETATM    4  C   UNL     1     -42.357  58.261 -55.752  1.00  0.00     0.726 A 
HETATM    5  N   UNL     1     -43.596  57.851 -56.157  1.00  0.00    -0.082 N 
HETATM    6  N   UNL     1     -44.092  56.903 -55.336  1.00  0.00    -0.128 NA
HETATM    7  C   UNL     1     -43.079  56.768 -54.469  1.00  0.00     0.226 A 
HETATM    8  N   UNL     1     -41.992  57.574 -54.705  1.00  0.00    -0.035 NA
HETATM    9  C   UNL     1     -44.327  58.449 -57.281  1.00  0.00     0.203 C 
HETATM   10  C   UNL     1     -43.643  59.724 -57.767  1.00  0.00     0.070 C 
HETATM   11  H   UNL     1     -40.876  59.627 -56.015  1.00  0.00     0.184 HD
ENDROOT
BRANCH   7  12
HETATM   12  S   UNL     1     -43.129  55.710 -53.088  1.00  0.00    -0.083 SA
BRANCH  12  13
HETATM   13  C   UNL     1     -41.376  55.619 -52.637  1.00  0.00     0.123 C 
BRANCH  13  14
HETATM   14  C   UNL     1     -40.841  54.218 -52.836  1.00  0.00    -0.027 A 
HETATM   15  C   UNL     1     -40.296  53.452 -51.792  1.00  0.00     0.041 A 
HETATM   16 CL   UNL     1     -40.220  54.034 -50.166  1.00  0.00    -0.084 Cl
HETATM   17  C   UNL     1     -39.782  52.174 -52.041  1.00  0.00     0.024 A 
HETATM   18  C   UNL     1     -39.796  51.648 -53.332  1.00  0.00     0.002 A 
HETATM   19  C   UNL     1     -40.325  52.397 -54.379  1.00  0.00     0.001 A 
HETATM   20  C   UNL     1     -40.842  53.670 -54.133  1.00  0.00     0.009 A 
ENDBRANCH  13  14
ENDBRANCH  12  13
ENDBRANCH   7  12
BRANCH   9  21
HETATM   21  C   UNL     1     -44.493  57.428 -58.406  1.00  0.00    -0.026 A 
HETATM   22  C   UNL     1     -45.741  57.282 -59.037  1.00  0.00     0.033 A 
HETATM   23  C   UNL     1     -45.902  56.374 -60.083  1.00  0.00     0.034 A 
HETATM   24 CL   UNL     1     -47.436  56.210 -60.847  1.00  0.00    -0.084 Cl
HETATM   25  C   UNL     1     -44.828  55.602 -60.522  1.00  0.00     0.024 A 
HETATM   26  C   UNL     1     -43.583  55.741 -59.912  1.00  0.00     0.002 A 
HETATM   27  C   UNL     1     -43.414  56.649 -58.864  1.00  0.00     0.010 A 
ENDBRANCH   9  21
BRANCH  10  28
HETATM   28  C   UNL     1     -44.483  60.525 -58.683  1.00  0.00     0.293 C 
HETATM   29  O   UNL     1     -45.502  61.091 -58.313  1.00  0.00    -0.259 OA
BRANCH  28  30
HETATM   30  O   UNL     1     -44.013  60.485 -59.951  1.00  0.00    -0.323 OA
HETATM   31  C   UNL     1     -45.025  60.285 -60.940  1.00  0.00     0.213 C 
ENDBRANCH  28  30
ENDBRANCH  10  28
TORSDOF 6
ENDMDL
MODEL 9
REMARK VINA RESULT:      -7.3      2.161      3.760
REMARK  6 active torsions:
REMARK  status: ('A' for Active; 'I' for Inactive)
REMARK    1  A    between atoms: C_7  and  S_8 
REMARK    2  A    between atoms: S_8  and  C_9 
REMARK    3  A    between atoms: C_9  and  C_10 
REMARK    4  A    between atoms: C_18  and  C_19 
REMARK    5  A    between atoms: C_26  and  C_27 
REMARK    6  A    between atoms: C_27  and  O_28 
ROOT
HETATM    1  C   UNL     1     -43.201  61.253 -50.354  1.00  0.00     0.070 C 
HETATM    2  C   UNL     1     -43.354  59.955 -51.106  1.00  0.00     0.037 C 
HETATM    3  N   UNL     1     -42.386  58.989 -50.842  1.00  0.00    -0.192 N 
HETATM    4  C   UNL     1     -42.520  57.700 -51.212  1.00  0.00     0.726 A 
HETATM    5  N   UNL     1     -43.532  57.347 -52.061  1.00  0.00    -0.082 N 
HETATM    6  N   UNL     1     -43.581  56.011 -52.238  1.00  0.00    -0.128 NA
HETATM    7  C   UNL     1     -42.543  55.621 -51.483  1.00  0.00     0.226 A 
HETATM    8  N   UNL     1     -41.861  56.633 -50.853  1.00  0.00    -0.035 NA
HETATM    9  C   UNL     1     -44.499  58.299 -52.618  1.00  0.00     0.203 C 
HETATM   10  C   UNL     1     -44.383  59.664 -51.943  1.00  0.00     0.070 C 
HETATM   11  H   UNL     1     -41.689  59.208 -50.133  1.00  0.00     0.184 HD
ENDROOT
BRANCH   7  12
HETATM   12  S   UNL     1     -42.106  53.954 -51.236  1.00  0.00    -0.083 SA
BRANCH  12  13
HETATM   13  C   UNL     1     -40.466  53.892 -52.007  1.00  0.00     0.123 C 
BRANCH  13  14
HETATM   14  C   UNL     1     -40.129  52.483 -52.440  1.00  0.00    -0.027 A 
HETATM   15  C   UNL     1     -40.127  52.076 -53.785  1.00  0.00     0.041 A 
HETATM   16 CL   UNL     1     -40.479  53.169 -55.077  1.00  0.00    -0.084 Cl
HETATM   17  C   UNL     1     -39.844  50.748 -54.126  1.00  0.00     0.024 A 
HETATM   18  C   UNL     1     -39.567  49.809 -53.134  1.00  0.00     0.002 A 
HETATM   19  C   UNL     1     -39.572  50.194 -51.797  1.00  0.00     0.001 A 
HETATM   20  C   UNL     1     -39.851  51.518 -51.453  1.00  0.00     0.009 A 
ENDBRANCH  13  14
ENDBRANCH  12  13
ENDBRANCH   7  12
BRANCH   9  21
HETATM   21  C   UNL     1     -44.330  58.398 -54.134  1.00  0.00    -0.026 A 
HETATM   22  C   UNL     1     -43.266  59.145 -54.670  1.00  0.00     0.033 A 
HETATM   23  C   UNL     1     -43.083  59.223 -56.051  1.00  0.00     0.034 A 
HETATM   24 CL   UNL     1     -41.773  60.138 -56.690  1.00  0.00    -0.084 Cl
HETATM   25  C   UNL     1     -43.947  58.559 -56.918  1.00  0.00     0.024 A 
HETATM   26  C   UNL     1     -45.002  57.808 -56.402  1.00  0.00     0.002 A 
HETATM   27  C   UNL     1     -45.191  57.725 -55.020  1.00  0.00     0.010 A 
ENDBRANCH   9  21
BRANCH  10  28
HETATM   28  C   UNL     1     -45.516  60.563 -52.243  1.00  0.00     0.293 C 
HETATM   29  O   UNL     1     -46.659  60.323 -51.881  1.00  0.00    -0.259 OA
BRANCH  28  30
HETATM   30  O   UNL     1     -45.129  61.614 -53.003  1.00  0.00    -0.323 OA
HETATM   31  C   UNL     1     -46.106  62.032 -53.959  1.00  0.00     0.213 C 
ENDBRANCH  28  30
ENDBRANCH  10  28
TORSDOF 6
ENDMDL
MODEL 10
REMARK VINA RESULT:      -7.2      3.547      7.319
REMARK  6 active torsions:
REMARK  status: ('A' for Active; 'I' for Inactive)
REMARK    1  A    between atoms: C_7  and  S_8 
REMARK    2  A    between atoms: S_8  and  C_9 
REMARK    3  A    between atoms: C_9  and  C_10 
REMARK    4  A    between atoms: C_18  and  C_19 
REMARK    5  A    between atoms: C_26  and  C_27 
REMARK    6  A    between atoms: C_27  and  O_28 
ROOT
HETATM    1  C   UNL     1     -41.075  52.789 -54.254  1.00  0.00     0.070 C 
HETATM    2  C   UNL     1     -41.718  54.133 -54.490  1.00  0.00     0.037 C 
HETATM    3  N   UNL     1     -41.690  54.590 -55.806  1.00  0.00    -0.192 N 
HETATM    4  C   UNL     1     -42.442  55.622 -56.236  1.00  0.00     0.726 A 
HETATM    5  N   UNL     1     -43.103  56.398 -55.324  1.00  0.00    -0.082 N 
HETATM    6  N   UNL     1     -43.887  57.312 -55.933  1.00  0.00    -0.128 NA
HETATM    7  C   UNL     1     -43.625  57.046 -57.221  1.00  0.00     0.226 A 
HETATM    8  N   UNL     1     -42.730  56.028 -57.442  1.00  0.00    -0.035 NA
HETATM    9  C   UNL     1     -43.040  56.184 -53.874  1.00  0.00     0.203 C 
HETATM   10  C   UNL     1     -42.357  54.861 -53.539  1.00  0.00     0.070 C 
HETATM   11  H   UNL     1     -41.292  53.970 -56.508  1.00  0.00     0.184 HD
ENDROOT
BRANCH   7  12
HETATM   12  S   UNL     1     -44.398  57.866 -58.548  1.00  0.00    -0.083 SA
BRANCH  12  13
HETATM   13  C   UNL     1     -44.410  59.580 -57.958  1.00  0.00     0.123 C 
BRANCH  13  14
HETATM   14  C   UNL     1     -43.185  60.323 -58.442  1.00  0.00    -0.027 A 
HETATM   15  C   UNL     1     -42.126  60.687 -57.594  1.00  0.00     0.041 A 
HETATM   16 CL   UNL     1     -42.113  60.282 -55.913  1.00  0.00    -0.084 Cl
HETATM   17  C   UNL     1     -41.033  61.408 -58.088  1.00  0.00     0.024 A 
HETATM   18  C   UNL     1     -40.985  61.782 -59.431  1.00  0.00     0.002 A 
HETATM   19  C   UNL     1     -42.029  61.437 -60.283  1.00  0.00     0.001 A 
HETATM   20  C   UNL     1     -43.119  60.715 -59.794  1.00  0.00     0.009 A 
ENDBRANCH  13  14
ENDBRANCH  12  13
ENDBRANCH   7  12
BRANCH   9  21
HETATM   21  C   UNL     1     -42.350  57.368 -53.195  1.00  0.00    -0.026 A 
HETATM   22  C   UNL     1     -43.078  58.187 -52.314  1.00  0.00     0.033 A 
HETATM   23  C   UNL     1     -42.455  59.254 -51.666  1.00  0.00     0.034 A 
HETATM   24 CL   UNL     1     -43.359  60.245 -50.587  1.00  0.00    -0.084 Cl
HETATM   25  C   UNL     1     -41.105  59.521 -51.878  1.00  0.00     0.024 A 
HETATM   26  C   UNL     1     -40.368  58.713 -52.743  1.00  0.00     0.002 A 
HETATM   27  C   UNL     1     -40.985  57.642 -53.394  1.00  0.00     0.010 A 
ENDBRANCH   9  21
BRANCH  10  28
HETATM   28  C   UNL     1     -42.533  54.452 -52.130  1.00  0.00     0.293 C 
HETATM   29  O   UNL     1     -43.587  54.004 -51.702  1.00  0.00    -0.259 OA
BRANCH  28  30
HETATM   30  O   UNL     1     -41.421  54.700 -51.399  1.00  0.00    -0.323 OA
HETATM   31  C   UNL     1     -41.681  55.314 -50.135  1.00  0.00     0.213 C 
ENDBRANCH  28  30
ENDBRANCH  10  28
TORSDOF 6
ENDMDL
