MODEL 1
REMARK VINA RESULT:      -7.8      0.000      0.000
REMARK  6 active torsions:
REMARK  status: ('A' for Active; 'I' for Inactive)
REMARK    1  A    between atoms: C_2  and  N_3 
REMARK    2  A    between atoms: C_2  and  C_16 
REMARK    3  A    between atoms: N_3  and  C_6 
REMARK    4  A    between atoms: C_16  and  C_17 
REMARK       I    between atoms: C_17  and  N_18 
REMARK    5  A    between atoms: N_18  and  C_19 
REMARK    6  A    between atoms: C_21  and  O_22 
ROOT
HETATM    1  C   UNL     1     -42.465  57.983 -51.556  1.00  0.00     0.040 C 
HETATM    2  C   UNL     1     -42.003  57.174 -52.762  1.00  0.00     0.191 C 
ENDROOT
BRANCH   2   3
HETATM    3  N   UNL     1     -41.329  55.897 -52.313  1.00  0.00    -0.063 N 
HETATM    4  H   UNL     1     -40.462  55.810 -52.886  1.00  0.00     0.278 HD
HETATM    5  H   UNL     1     -40.972  56.064 -51.364  1.00  0.00     0.278 HD
BRANCH   3   6
HETATM    6  C   UNL     1     -42.049  54.574 -52.336  1.00  0.00     0.221 C 
HETATM    7  C   UNL     1     -41.171  53.403 -52.686  1.00  0.00    -0.011 A 
HETATM    8  C   UNL     1     -40.221  52.938 -51.763  1.00  0.00     0.009 A 
HETATM    9  C   UNL     1     -41.295  52.755 -53.928  1.00  0.00     0.011 A 
HETATM   10  C   UNL     1     -39.370  51.886 -52.110  1.00  0.00     0.019 A 
HETATM   11  S   UNL     1     -40.032  53.699 -50.165  1.00  0.00    -0.129 SA
HETATM   12  C   UNL     1     -39.485  51.266 -53.353  1.00  0.00     0.001 A 
HETATM   13  C   UNL     1     -40.452  51.694 -54.259  1.00  0.00     0.001 A 
HETATM   14  C   UNL     1     -41.737  54.222 -49.789  1.00  0.00     0.082 C 
HETATM   15  C   UNL     1     -42.699  54.319 -50.971  1.00  0.00     0.048 C 
ENDBRANCH   3   6
ENDBRANCH   2   3
BRANCH   2  16
HETATM   16  C   UNL     1     -43.128  56.948 -53.779  1.00  0.00     0.135 C 
BRANCH  16  17
HETATM   17  C   UNL     1     -42.570  56.744 -55.170  1.00  0.00     0.224 C 
HETATM   18  N   UNL     1     -43.393  57.232 -56.159  1.00  0.00    -0.327 N 
HETATM   19  H   UNL     1     -44.335  57.503 -55.898  1.00  0.00     0.169 HD
HETATM   20  O   UNL     1     -41.507  56.144 -55.311  1.00  0.00    -0.273 OA
BRANCH  18  21
HETATM   21  C   UNL     1     -43.125  57.265 -57.545  1.00  0.00     0.037 A 
HETATM   22  C   UNL     1     -43.720  56.403 -58.471  1.00  0.00     0.066 A 
HETATM   23  C   UNL     1     -43.371  56.475 -59.824  1.00  0.00     0.070 A 
HETATM   24  C   UNL     1     -42.466  57.443 -60.259  1.00  0.00     0.037 A 
HETATM   25  C   UNL     1     -41.866  58.303 -59.343  1.00  0.00     0.005 A 
HETATM   26  C   UNL     1     -42.183  58.203 -57.988  1.00  0.00     0.029 A 
BRANCH  23  27
HETATM   27  O   UNL     1     -43.875  55.666 -60.807  1.00  0.00    -0.356 OA
HETATM   28  C   UNL     1     -44.897  54.767 -60.392  1.00  0.00     0.210 C 
ENDBRANCH  23  27
ENDBRANCH  18  21
ENDBRANCH  16  17
ENDBRANCH   2  16
TORSDOF 6
ENDMDL
MODEL 2
REMARK VINA RESULT:      -7.3      3.028      8.357
REMARK  6 active torsions:
REMARK  status: ('A' for Active; 'I' for Inactive)
REMARK    1  A    between atoms: C_2  and  N_3 
REMARK    2  A    between atoms: C_2  and  C_16 
REMARK    3  A    between atoms: N_3  and  C_6 
REMARK    4  A    between atoms: C_16  and  C_17 
REMARK       I    between atoms: C_17  and  N_18 
REMARK    5  A    between atoms: N_18  and  C_19 
REMARK    6  A    between atoms: C_21  and  O_22 
ROOT
HETATM    1  C   UNL     1     -43.141  57.208 -55.374  1.00  0.00     0.040 C 
HETATM    2  C   UNL     1     -43.195  56.404 -56.667  1.00  0.00     0.191 C 
ENDROOT
BRANCH   2   3
HETATM    3  N   UNL     1     -42.219  56.963 -57.677  1.00  0.00    -0.063 N 
HETATM    4  H   UNL     1     -42.238  57.999 -57.555  1.00  0.00     0.278 HD
HETATM    5  H   UNL     1     -41.277  56.703 -57.360  1.00  0.00     0.278 HD
BRANCH   3   6
HETATM    6  C   UNL     1     -42.339  56.655 -59.147  1.00  0.00     0.221 C 
HETATM    7  C   UNL     1     -43.750  56.412 -59.611  1.00  0.00    -0.011 A 
HETATM    8  C   UNL     1     -44.652  57.483 -59.701  1.00  0.00     0.009 A 
HETATM    9  C   UNL     1     -44.178  55.121 -59.968  1.00  0.00     0.011 A 
HETATM   10  C   UNL     1     -45.976  57.248 -60.081  1.00  0.00     0.019 A 
HETATM   11  S   UNL     1     -44.163  59.144 -59.287  1.00  0.00    -0.129 SA
HETATM   12  C   UNL     1     -46.397  55.961 -60.410  1.00  0.00     0.001 A 
HETATM   13  C   UNL     1     -45.498  54.899 -60.363  1.00  0.00     0.001 A 
HETATM   14  C   UNL     1     -42.412  59.162 -59.791  1.00  0.00     0.082 C 
HETATM   15  C   UNL     1     -41.736  57.803 -59.964  1.00  0.00     0.048 C 
ENDBRANCH   3   6
ENDBRANCH   2   3
BRANCH   2  16
HETATM   16  C   UNL     1     -43.030  54.899 -56.424  1.00  0.00     0.135 C 
BRANCH  16  17
HETATM   17  C   UNL     1     -41.882  54.624 -55.479  1.00  0.00     0.224 C 
HETATM   18  N   UNL     1     -42.116  53.556 -54.642  1.00  0.00    -0.327 N 
HETATM   19  H   UNL     1     -43.058  53.183 -54.604  1.00  0.00     0.169 HD
HETATM   20  O   UNL     1     -40.900  55.363 -55.490  1.00  0.00    -0.273 OA
BRANCH  18  21
HETATM   21  C   UNL     1     -41.217  53.001 -53.705  1.00  0.00     0.037 A 
HETATM   22  C   UNL     1     -41.040  53.498 -52.410  1.00  0.00     0.066 A 
HETATM   23  C   UNL     1     -40.099  52.915 -51.555  1.00  0.00     0.070 A 
HETATM   24  C   UNL     1     -39.372  51.801 -51.976  1.00  0.00     0.037 A 
HETATM   25  C   UNL     1     -39.539  51.301 -53.265  1.00  0.00     0.005 A 
HETATM   26  C   UNL     1     -40.448  51.910 -54.132  1.00  0.00     0.029 A 
BRANCH  23  27
HETATM   27  O   UNL     1     -39.831  53.336 -50.281  1.00  0.00    -0.356 OA
HETATM   28  C   UNL     1     -40.315  54.635 -49.953  1.00  0.00     0.210 C 
ENDBRANCH  23  27
ENDBRANCH  18  21
ENDBRANCH  16  17
ENDBRANCH   2  16
TORSDOF 6
ENDMDL
MODEL 3
REMARK VINA RESULT:      -7.2      3.148      6.435
REMARK  6 active torsions:
REMARK  status: ('A' for Active; 'I' for Inactive)
REMARK    1  A    between atoms: C_2  and  N_3 
REMARK    2  A    between atoms: C_2  and  C_16 
REMARK    3  A    between atoms: N_3  and  C_6 
REMARK    4  A    between atoms: C_16  and  C_17 
REMARK       I    between atoms: C_17  and  N_18 
REMARK    5  A    between atoms: N_18  and  C_19 
REMARK    6  A    between atoms: C_21  and  O_22 
ROOT
HETATM    1  C   UNL     1     -43.053  59.533 -54.955  1.00  0.00     0.040 C 
HETATM    2  C   UNL     1     -42.730  58.136 -54.440  1.00  0.00     0.191 C 
ENDROOT
BRANCH   2   3
HETATM    3  N   UNL     1     -43.784  57.678 -53.459  1.00  0.00    -0.063 N 
HETATM    4  H   UNL     1     -44.499  58.437 -53.426  1.00  0.00     0.278 HD
HETATM    5  H   UNL     1     -44.286  56.897 -53.900  1.00  0.00     0.278 HD
BRANCH   3   6
HETATM    6  C   UNL     1     -43.435  57.293 -52.045  1.00  0.00     0.221 C 
HETATM    7  C   UNL     1     -42.385  58.165 -51.412  1.00  0.00    -0.011 A 
HETATM    8  C   UNL     1     -42.698  59.481 -51.039  1.00  0.00     0.009 A 
HETATM    9  C   UNL     1     -41.088  57.674 -51.177  1.00  0.00     0.011 A 
HETATM   10  C   UNL     1     -41.707  60.307 -50.502  1.00  0.00     0.019 A 
HETATM   11  S   UNL     1     -44.327  60.152 -51.288  1.00  0.00    -0.129 SA
HETATM   12  C   UNL     1     -40.418  59.818 -50.294  1.00  0.00     0.001 A 
HETATM   13  C   UNL     1     -40.110  58.501 -50.623  1.00  0.00     0.001 A 
HETATM   14  C   UNL     1     -45.383  58.684 -51.056  1.00  0.00     0.082 C 
HETATM   15  C   UNL     1     -44.699  57.324 -51.177  1.00  0.00     0.048 C 
ENDBRANCH   3   6
ENDBRANCH   2   3
BRANCH   2  16
HETATM   16  C   UNL     1     -42.477  57.139 -55.578  1.00  0.00     0.135 C 
BRANCH  16  17
HETATM   17  C   UNL     1     -42.332  55.732 -55.044  1.00  0.00     0.224 C 
HETATM   18  N   UNL     1     -41.107  55.500 -54.461  1.00  0.00    -0.327 N 
HETATM   19  H   UNL     1     -40.380  56.194 -54.596  1.00  0.00     0.169 HD
HETATM   20  O   UNL     1     -43.246  54.927 -55.208  1.00  0.00    -0.273 OA
BRANCH  18  21
HETATM   21  C   UNL     1     -40.691  54.321 -53.804  1.00  0.00     0.037 A 
HETATM   22  C   UNL     1     -40.191  53.198 -54.470  1.00  0.00     0.066 A 
HETATM   23  C   UNL     1     -39.836  52.052 -53.749  1.00  0.00     0.070 A 
HETATM   24  C   UNL     1     -39.932  52.049 -52.357  1.00  0.00     0.037 A 
HETATM   25  C   UNL     1     -40.433  53.161 -51.686  1.00  0.00     0.005 A 
HETATM   26  C   UNL     1     -40.826  54.288 -52.410  1.00  0.00     0.029 A 
BRANCH  23  27
HETATM   27  O   UNL     1     -39.359  50.895 -54.302  1.00  0.00    -0.356 OA
HETATM   28  C   UNL     1     -40.274  49.804 -54.318  1.00  0.00     0.210 C 
ENDBRANCH  23  27
ENDBRANCH  18  21
ENDBRANCH  16  17
ENDBRANCH   2  16
TORSDOF 6
ENDMDL
MODEL 4
REMARK VINA RESULT:      -7.2      1.535      1.997
REMARK  6 active torsions:
REMARK  status: ('A' for Active; 'I' for Inactive)
REMARK    1  A    between atoms: C_2  and  N_3 
REMARK    2  A    between atoms: C_2  and  C_16 
REMARK    3  A    between atoms: N_3  and  C_6 
REMARK    4  A    between atoms: C_16  and  C_17 
REMARK       I    between atoms: C_17  and  N_18 
REMARK    5  A    between atoms: N_18  and  C_19 
REMARK    6  A    between atoms: C_21  and  O_22 
ROOT
HETATM    1  C   UNL     1     -42.309  57.634 -53.911  1.00  0.00     0.040 C 
HETATM    2  C   UNL     1     -41.150  56.647 -53.835  1.00  0.00     0.191 C 
ENDROOT
BRANCH   2   3
HETATM    3  N   UNL     1     -41.257  55.804 -52.585  1.00  0.00    -0.063 N 
HETATM    4  H   UNL     1     -40.278  55.630 -52.269  1.00  0.00     0.278 HD
HETATM    5  H   UNL     1     -41.641  56.408 -51.848  1.00  0.00     0.278 HD
BRANCH   3   6
HETATM    6  C   UNL     1     -42.000  54.494 -52.576  1.00  0.00     0.221 C 
HETATM    7  C   UNL     1     -41.125  53.289 -52.796  1.00  0.00    -0.011 A 
HETATM    8  C   UNL     1     -40.248  52.867 -51.786  1.00  0.00     0.009 A 
HETATM    9  C   UNL     1     -41.181  52.569 -54.003  1.00  0.00     0.011 A 
HETATM   10  C   UNL     1     -39.397  51.781 -52.011  1.00  0.00     0.019 A 
HETATM   11  S   UNL     1     -40.148  53.721 -50.228  1.00  0.00    -0.129 SA
HETATM   12  C   UNL     1     -39.443  51.088 -53.220  1.00  0.00     0.001 A 
HETATM   13  C   UNL     1     -40.340  51.476 -54.212  1.00  0.00     0.001 A 
HETATM   14  C   UNL     1     -41.863  54.294 -49.998  1.00  0.00     0.082 C 
HETATM   15  C   UNL     1     -42.744  54.334 -51.245  1.00  0.00     0.048 C 
ENDBRANCH   3   6
ENDBRANCH   2   3
BRANCH   2  16
HETATM   16  C   UNL     1     -41.002  55.823 -55.120  1.00  0.00     0.135 C 
BRANCH  16  17
HETATM   17  C   UNL     1     -42.295  55.804 -55.905  1.00  0.00     0.224 C 
HETATM   18  N   UNL     1     -42.218  56.504 -57.087  1.00  0.00    -0.327 N 
HETATM   19  H   UNL     1     -41.407  57.095 -57.235  1.00  0.00     0.169 HD
HETATM   20  O   UNL     1     -43.280  55.241 -55.433  1.00  0.00    -0.273 OA
BRANCH  18  21
HETATM   21  C   UNL     1     -43.221  56.611 -58.076  1.00  0.00     0.037 A 
HETATM   22  C   UNL     1     -44.339  57.442 -57.959  1.00  0.00     0.066 A 
HETATM   23  C   UNL     1     -45.310  57.461 -58.967  1.00  0.00     0.070 A 
HETATM   24  C   UNL     1     -45.136  56.690 -60.115  1.00  0.00     0.037 A 
HETATM   25  C   UNL     1     -44.027  55.856 -60.238  1.00  0.00     0.005 A 
HETATM   26  C   UNL     1     -43.081  55.806 -59.214  1.00  0.00     0.029 A 
BRANCH  23  27
HETATM   27  O   UNL     1     -46.450  58.219 -58.942  1.00  0.00    -0.356 OA
HETATM   28  C   UNL     1     -47.211  58.136 -57.742  1.00  0.00     0.210 C 
ENDBRANCH  23  27
ENDBRANCH  18  21
ENDBRANCH  16  17
ENDBRANCH   2  16
TORSDOF 6
ENDMDL
MODEL 5
REMARK VINA RESULT:      -7.2      3.265      7.479
REMARK  6 active torsions:
REMARK  status: ('A' for Active; 'I' for Inactive)
REMARK    1  A    between atoms: C_2  and  N_3 
REMARK    2  A    between atoms: C_2  and  C_16 
REMARK    3  A    between atoms: N_3  and  C_6 
REMARK    4  A    between atoms: C_16  and  C_17 
REMARK       I    between atoms: C_17  and  N_18 
REMARK    5  A    between atoms: N_18  and  C_19 
REMARK    6  A    between atoms: C_21  and  O_22 
ROOT
HETATM    1  C   UNL     1     -46.129  58.657 -56.954  1.00  0.00     0.040 C 
HETATM    2  C   UNL     1     -44.955  57.814 -56.472  1.00  0.00     0.191 C 
ENDROOT
BRANCH   2   3
HETATM    3  N   UNL     1     -43.661  58.329 -57.060  1.00  0.00    -0.063 N 
HETATM    4  H   UNL     1     -43.911  59.177 -57.613  1.00  0.00     0.278 HD
HETATM    5  H   UNL     1     -43.106  58.706 -56.281  1.00  0.00     0.278 HD
BRANCH   3   6
HETATM    6  C   UNL     1     -42.774  57.453 -57.906  1.00  0.00     0.221 C 
HETATM    7  C   UNL     1     -43.523  56.528 -58.827  1.00  0.00    -0.011 A 
HETATM    8  C   UNL     1     -44.187  57.043 -59.950  1.00  0.00     0.009 A 
HETATM    9  C   UNL     1     -43.558  55.143 -58.583  1.00  0.00     0.011 A 
HETATM   10  C   UNL     1     -44.926  56.191 -60.774  1.00  0.00     0.019 A 
HETATM   11  S   UNL     1     -44.159  58.783 -60.326  1.00  0.00    -0.129 SA
HETATM   12  C   UNL     1     -44.974  54.822 -60.511  1.00  0.00     0.001 A 
HETATM   13  C   UNL     1     -44.284  54.297 -59.422  1.00  0.00     0.001 A 
HETATM   14  C   UNL     1     -42.509  59.275 -59.728  1.00  0.00     0.082 C 
HETATM   15  C   UNL     1     -41.831  58.329 -58.739  1.00  0.00     0.048 C 
ENDBRANCH   3   6
ENDBRANCH   2   3
BRANCH   2  16
HETATM   16  C   UNL     1     -44.923  57.679 -54.944  1.00  0.00     0.135 C 
BRANCH  16  17
HETATM   17  C   UNL     1     -43.614  57.081 -54.480  1.00  0.00     0.224 C 
HETATM   18  N   UNL     1     -43.563  55.713 -54.630  1.00  0.00    -0.327 N 
HETATM   19  H   UNL     1     -44.426  55.229 -54.852  1.00  0.00     0.169 HD
HETATM   20  O   UNL     1     -42.760  57.810 -53.982  1.00  0.00    -0.273 OA
BRANCH  18  21
HETATM   21  C   UNL     1     -42.459  54.872 -54.365  1.00  0.00     0.037 A 
HETATM   22  C   UNL     1     -42.245  54.237 -53.138  1.00  0.00     0.066 A 
HETATM   23  C   UNL     1     -41.105  53.451 -52.943  1.00  0.00     0.070 A 
HETATM   24  C   UNL     1     -40.205  53.256 -53.991  1.00  0.00     0.037 A 
HETATM   25  C   UNL     1     -40.408  53.888 -55.215  1.00  0.00     0.005 A 
HETATM   26  C   UNL     1     -41.524  54.707 -55.395  1.00  0.00     0.029 A 
BRANCH  23  27
HETATM   27  O   UNL     1     -40.789  52.805 -51.778  1.00  0.00    -0.356 OA
HETATM   28  C   UNL     1     -39.631  51.978 -51.833  1.00  0.00     0.210 C 
ENDBRANCH  23  27
ENDBRANCH  18  21
ENDBRANCH  16  17
ENDBRANCH   2  16
TORSDOF 6
ENDMDL
MODEL 6
REMARK VINA RESULT:      -7.0      1.853      3.844
REMARK  6 active torsions:
REMARK  status: ('A' for Active; 'I' for Inactive)
REMARK    1  A    between atoms: C_2  and  N_3 
REMARK    2  A    between atoms: C_2  and  C_16 
REMARK    3  A    between atoms: N_3  and  C_6 
REMARK    4  A    between atoms: C_16  and  C_17 
REMARK       I    between atoms: C_17  and  N_18 
REMARK    5  A    between atoms: N_18  and  C_19 
REMARK    6  A    between atoms: C_21  and  O_22 
ROOT
HETATM    1  C   UNL     1     -40.081  52.314 -54.040  1.00  0.00     0.040 C 
HETATM    2  C   UNL     1     -41.288  53.214 -54.274  1.00  0.00     0.191 C 
ENDROOT
BRANCH   2   3
HETATM    3  N   UNL     1     -41.746  53.832 -52.973  1.00  0.00    -0.063 N 
HETATM    4  H   UNL     1     -42.719  54.169 -53.138  1.00  0.00     0.278 HD
HETATM    5  H   UNL     1     -41.871  53.062 -52.303  1.00  0.00     0.278 HD
BRANCH   3   6
HETATM    6  C   UNL     1     -40.967  54.935 -52.304  1.00  0.00     0.221 C 
HETATM    7  C   UNL     1     -41.519  56.313 -52.550  1.00  0.00    -0.011 A 
HETATM    8  C   UNL     1     -42.718  56.707 -51.937  1.00  0.00     0.009 A 
HETATM    9  C   UNL     1     -40.842  57.222 -53.382  1.00  0.00     0.011 A 
HETATM   10  C   UNL     1     -43.258  57.967 -52.208  1.00  0.00     0.019 A 
HETATM   11  S   UNL     1     -43.609  55.611 -50.854  1.00  0.00    -0.129 SA
HETATM   12  C   UNL     1     -42.591  58.853 -53.053  1.00  0.00     0.001 A 
HETATM   13  C   UNL     1     -41.380  58.485 -53.634  1.00  0.00     0.001 A 
HETATM   14  C   UNL     1     -42.259  54.664 -50.077  1.00  0.00     0.082 C 
HETATM   15  C   UNL     1     -40.911  54.682 -50.793  1.00  0.00     0.048 C 
ENDBRANCH   3   6
ENDBRANCH   2   3
BRANCH   2  16
HETATM   16  C   UNL     1     -41.044  54.240 -55.387  1.00  0.00     0.135 C 
BRANCH  16  17
HETATM   17  C   UNL     1     -42.348  54.820 -55.887  1.00  0.00     0.224 C 
HETATM   18  N   UNL     1     -42.207  55.538 -57.053  1.00  0.00    -0.327 N 
HETATM   19  H   UNL     1     -41.267  55.762 -57.360  1.00  0.00     0.169 HD
HETATM   20  O   UNL     1     -43.371  54.662 -55.226  1.00  0.00    -0.273 OA
BRANCH  18  21
HETATM   21  C   UNL     1     -43.239  56.135 -57.810  1.00  0.00     0.037 A 
HETATM   22  C   UNL     1     -43.858  55.517 -58.901  1.00  0.00     0.066 A 
HETATM   23  C   UNL     1     -44.846  56.192 -59.625  1.00  0.00     0.070 A 
HETATM   24  C   UNL     1     -45.254  57.465 -59.226  1.00  0.00     0.037 A 
HETATM   25  C   UNL     1     -44.641  58.090 -58.143  1.00  0.00     0.005 A 
HETATM   26  C   UNL     1     -43.625  57.433 -57.447  1.00  0.00     0.029 A 
BRANCH  23  27
HETATM   27  O   UNL     1     -45.498  55.689 -60.718  1.00  0.00    -0.356 OA
HETATM   28  C   UNL     1     -46.808  56.201 -60.937  1.00  0.00     0.210 C 
ENDBRANCH  23  27
ENDBRANCH  18  21
ENDBRANCH  16  17
ENDBRANCH   2  16
TORSDOF 6
ENDMDL
MODEL 7
REMARK VINA RESULT:      -6.9      2.026      2.795
REMARK  6 active torsions:
REMARK  status: ('A' for Active; 'I' for Inactive)
REMARK    1  A    between atoms: C_2  and  N_3 
REMARK    2  A    between atoms: C_2  and  C_16 
REMARK    3  A    between atoms: N_3  and  C_6 
REMARK    4  A    between atoms: C_16  and  C_17 
REMARK       I    between atoms: C_17  and  N_18 
REMARK    5  A    between atoms: N_18  and  C_19 
REMARK    6  A    between atoms: C_21  and  O_22 
ROOT
HETATM    1  C   UNL     1     -42.184  57.540 -53.419  1.00  0.00     0.040 C 
HETATM    2  C   UNL     1     -41.744  56.475 -54.415  1.00  0.00     0.191 C 
ENDROOT
BRANCH   2   3
HETATM    3  N   UNL     1     -41.133  55.296 -53.692  1.00  0.00    -0.063 N 
HETATM    4  H   UNL     1     -40.238  55.085 -54.185  1.00  0.00     0.278 HD
HETATM    5  H   UNL     1     -40.825  55.635 -52.772  1.00  0.00     0.278 HD
BRANCH   3   6
HETATM    6  C   UNL     1     -41.888  54.006 -53.505  1.00  0.00     0.221 C 
HETATM    7  C   UNL     1     -41.008  52.792 -53.371  1.00  0.00    -0.011 A 
HETATM    8  C   UNL     1     -40.261  52.594 -52.201  1.00  0.00     0.009 A 
HETATM    9  C   UNL     1     -40.931  51.842 -54.405  1.00  0.00     0.011 A 
HETATM   10  C   UNL     1     -39.403  51.496 -52.099  1.00  0.00     0.019 A 
HETATM   11  S   UNL     1     -40.335  53.748 -50.847  1.00  0.00    -0.129 SA
HETATM   12  C   UNL     1     -39.315  50.571 -53.139  1.00  0.00     0.001 A 
HETATM   13  C   UNL     1     -40.084  50.739 -54.288  1.00  0.00     0.001 A 
HETATM   14  C   UNL     1     -42.058  54.335 -50.942  1.00  0.00     0.082 C 
HETATM   15  C   UNL     1     -42.785  54.110 -52.266  1.00  0.00     0.048 C 
ENDBRANCH   3   6
ENDBRANCH   2   3
BRANCH   2  16
HETATM   16  C   UNL     1     -42.866  56.084 -55.385  1.00  0.00     0.135 C 
BRANCH  16  17
HETATM   17  C   UNL     1     -43.121  57.184 -56.392  1.00  0.00     0.224 C 
HETATM   18  N   UNL     1     -42.062  57.387 -57.248  1.00  0.00    -0.327 N 
HETATM   19  H   UNL     1     -41.181  56.937 -57.025  1.00  0.00     0.169 HD
HETATM   20  O   UNL     1     -44.173  57.815 -56.342  1.00  0.00    -0.273 OA
BRANCH  18  21
HETATM   21  C   UNL     1     -42.016  58.279 -58.341  1.00  0.00     0.037 A 
HETATM   22  C   UNL     1     -41.990  59.671 -58.206  1.00  0.00     0.066 A 
HETATM   23  C   UNL     1     -41.985  60.488 -59.341  1.00  0.00     0.070 A 
HETATM   24  C   UNL     1     -41.953  59.914 -60.612  1.00  0.00     0.037 A 
HETATM   25  C   UNL     1     -41.982  58.529 -60.756  1.00  0.00     0.005 A 
HETATM   26  C   UNL     1     -42.030  57.715 -59.624  1.00  0.00     0.029 A 
BRANCH  23  27
HETATM   27  O   UNL     1     -41.982  61.857 -59.322  1.00  0.00    -0.356 OA
HETATM   28  C   UNL     1     -42.960  62.457 -58.479  1.00  0.00     0.210 C 
ENDBRANCH  23  27
ENDBRANCH  18  21
ENDBRANCH  16  17
ENDBRANCH   2  16
TORSDOF 6
ENDMDL
MODEL 8
REMARK VINA RESULT:      -6.7     15.626     18.547
REMARK  6 active torsions:
REMARK  status: ('A' for Active; 'I' for Inactive)
REMARK    1  A    between atoms: C_2  and  N_3 
REMARK    2  A    between atoms: C_2  and  C_16 
REMARK    3  A    between atoms: N_3  and  C_6 
REMARK    4  A    between atoms: C_16  and  C_17 
REMARK       I    between atoms: C_17  and  N_18 
REMARK    5  A    between atoms: N_18  and  C_19 
REMARK    6  A    between atoms: C_21  and  O_22 
ROOT
HETATM    1  C   UNL     1     -33.202  38.882 -57.297  1.00  0.00     0.040 C 
HETATM    2  C   UNL     1     -32.868  40.219 -56.648  1.00  0.00     0.191 C 
ENDROOT
BRANCH   2   3
HETATM    3  N   UNL     1     -34.050  40.730 -55.857  1.00  0.00    -0.063 N 
HETATM    4  H   UNL     1     -34.662  39.903 -55.683  1.00  0.00     0.278 HD
HETATM    5  H   UNL     1     -33.702  40.971 -54.920  1.00  0.00     0.278 HD
BRANCH   3   6
HETATM    6  C   UNL     1     -34.909  41.861 -56.360  1.00  0.00     0.221 C 
HETATM    7  C   UNL     1     -36.148  41.413 -57.089  1.00  0.00    -0.011 A 
HETATM    8  C   UNL     1     -37.213  40.842 -56.376  1.00  0.00     0.009 A 
HETATM    9  C   UNL     1     -36.259  41.570 -58.482  1.00  0.00     0.011 A 
HETATM   10  C   UNL     1     -38.339  40.379 -57.059  1.00  0.00     0.019 A 
HETATM   11  S   UNL     1     -37.142  40.640 -54.609  1.00  0.00    -0.129 SA
HETATM   12  C   UNL     1     -38.431  40.517 -58.444  1.00  0.00     0.001 A 
HETATM   13  C   UNL     1     -37.396  41.119 -59.154  1.00  0.00     0.001 A 
HETATM   14  C   UNL     1     -36.153  42.084 -54.100  1.00  0.00     0.082 C 
HETATM   15  C   UNL     1     -35.318  42.758 -55.187  1.00  0.00     0.048 C 
ENDBRANCH   3   6
ENDBRANCH   2   3
BRANCH   2  16
HETATM   16  C   UNL     1     -31.566  40.166 -55.839  1.00  0.00     0.135 C 
BRANCH  16  17
HETATM   17  C   UNL     1     -31.805  39.585 -54.463  1.00  0.00     0.224 C 
HETATM   18  N   UNL     1     -32.065  40.544 -53.511  1.00  0.00    -0.327 N 
HETATM   19  H   UNL     1     -31.900  41.513 -53.759  1.00  0.00     0.169 HD
HETATM   20  O   UNL     1     -31.704  38.372 -54.294  1.00  0.00    -0.273 OA
BRANCH  18  21
HETATM   21  C   UNL     1     -32.405  40.324 -52.158  1.00  0.00     0.037 A 
HETATM   22  C   UNL     1     -31.465  40.064 -51.155  1.00  0.00     0.066 A 
HETATM   23  C   UNL     1     -31.886  39.817 -49.844  1.00  0.00     0.070 A 
HETATM   24  C   UNL     1     -33.242  39.883 -49.524  1.00  0.00     0.037 A 
HETATM   25  C   UNL     1     -34.185  40.137 -50.517  1.00  0.00     0.005 A 
HETATM   26  C   UNL     1     -33.768  40.341 -51.833  1.00  0.00     0.029 A 
BRANCH  23  27
HETATM   27  O   UNL     1     -31.055  39.532 -48.795  1.00  0.00    -0.356 OA
HETATM   28  C   UNL     1     -31.705  39.140 -47.590  1.00  0.00     0.210 C 
ENDBRANCH  23  27
ENDBRANCH  18  21
ENDBRANCH  16  17
ENDBRANCH   2  16
TORSDOF 6
ENDMDL
MODEL 9
REMARK VINA RESULT:      -6.6      3.056      7.423
REMARK  6 active torsions:
REMARK  status: ('A' for Active; 'I' for Inactive)
REMARK    1  A    between atoms: C_2  and  N_3 
REMARK    2  A    between atoms: C_2  and  C_16 
REMARK    3  A    between atoms: N_3  and  C_6 
REMARK    4  A    between atoms: C_16  and  C_17 
REMARK       I    between atoms: C_17  and  N_18 
REMARK    5  A    between atoms: N_18  and  C_19 
REMARK    6  A    between atoms: C_21  and  O_22 
ROOT
HETATM    1  C   UNL     1     -41.959  59.670 -54.799  1.00  0.00     0.040 C 
HETATM    2  C   UNL     1     -43.363  59.150 -54.519  1.00  0.00     0.191 C 
ENDROOT
BRANCH   2   3
HETATM    3  N   UNL     1     -43.943  58.505 -55.756  1.00  0.00    -0.063 N 
HETATM    4  H   UNL     1     -43.767  57.481 -55.659  1.00  0.00     0.278 HD
HETATM    5  H   UNL     1     -44.966  58.579 -55.683  1.00  0.00     0.278 HD
BRANCH   3   6
HETATM    6  C   UNL     1     -43.524  58.930 -57.140  1.00  0.00     0.221 C 
HETATM    7  C   UNL     1     -43.678  57.858 -58.185  1.00  0.00    -0.011 A 
HETATM    8  C   UNL     1     -44.958  57.485 -58.623  1.00  0.00     0.009 A 
HETATM    9  C   UNL     1     -42.551  57.228 -58.742  1.00  0.00     0.011 A 
HETATM   10  C   UNL     1     -45.102  56.453 -59.553  1.00  0.00     0.019 A 
HETATM   11  S   UNL     1     -46.422  58.262 -57.975  1.00  0.00    -0.129 SA
HETATM   12  C   UNL     1     -43.979  55.818 -60.082  1.00  0.00     0.001 A 
HETATM   13  C   UNL     1     -42.704  56.210 -59.683  1.00  0.00     0.001 A 
HETATM   14  C   UNL     1     -45.843  59.961 -57.657  1.00  0.00     0.082 C 
HETATM   15  C   UNL     1     -44.332  60.161 -57.566  1.00  0.00     0.048 C 
ENDBRANCH   3   6
ENDBRANCH   2   3
BRANCH   2  16
HETATM   16  C   UNL     1     -43.414  58.250 -53.278  1.00  0.00     0.135 C 
BRANCH  16  17
HETATM   17  C   UNL     1     -43.110  56.813 -53.636  1.00  0.00     0.224 C 
HETATM   18  N   UNL     1     -41.796  56.468 -53.411  1.00  0.00    -0.327 N 
HETATM   19  H   UNL     1     -41.139  57.213 -53.212  1.00  0.00     0.169 HD
HETATM   20  O   UNL     1     -43.993  56.112 -54.124  1.00  0.00    -0.273 OA
BRANCH  18  21
HETATM   21  C   UNL     1     -41.217  55.189 -53.568  1.00  0.00     0.037 A 
HETATM   22  C   UNL     1     -41.082  54.265 -52.527  1.00  0.00     0.066 A 
HETATM   23  C   UNL     1     -40.460  53.033 -52.756  1.00  0.00     0.070 A 
HETATM   24  C   UNL     1     -40.021  52.703 -54.038  1.00  0.00     0.037 A 
HETATM   25  C   UNL     1     -40.148  53.618 -55.080  1.00  0.00     0.005 A 
HETATM   26  C   UNL     1     -40.730  54.864 -54.841  1.00  0.00     0.029 A 
BRANCH  23  27
HETATM   27  O   UNL     1     -40.257  52.069 -51.806  1.00  0.00    -0.356 OA
HETATM   28  C   UNL     1     -40.277  52.528 -50.458  1.00  0.00     0.210 C 
ENDBRANCH  23  27
ENDBRANCH  18  21
ENDBRANCH  16  17
ENDBRANCH   2  16
TORSDOF 6
ENDMDL
MODEL 10
REMARK VINA RESULT:      -6.4     14.882     18.031
REMARK  6 active torsions:
REMARK  status: ('A' for Active; 'I' for Inactive)
REMARK    1  A    between atoms: C_2  and  N_3 
REMARK    2  A    between atoms: C_2  and  C_16 
REMARK    3  A    between atoms: N_3  and  C_6 
REMARK    4  A    between atoms: C_16  and  C_17 
REMARK       I    between atoms: C_17  and  N_18 
REMARK    5  A    between atoms: N_18  and  C_19 
REMARK    6  A    between atoms: C_21  and  O_22 
ROOT
HETATM    1  C   UNL     1     -36.873  41.836 -58.639  1.00  0.00     0.040 C 
HETATM    2  C   UNL     1     -37.298  41.251 -57.297  1.00  0.00     0.191 C 
ENDROOT
BRANCH   2   3
HETATM    3  N   UNL     1     -36.456  40.043 -56.958  1.00  0.00    -0.063 N 
HETATM    4  H   UNL     1     -36.227  40.125 -55.943  1.00  0.00     0.278 HD
HETATM    5  H   UNL     1     -37.076  39.224 -56.997  1.00  0.00     0.278 HD
BRANCH   3   6
HETATM    6  C   UNL     1     -35.188  39.727 -57.707  1.00  0.00     0.221 C 
HETATM    7  C   UNL     1     -34.024  39.371 -56.822  1.00  0.00    -0.011 A 
HETATM    8  C   UNL     1     -34.005  38.139 -56.152  1.00  0.00     0.009 A 
HETATM    9  C   UNL     1     -32.942  40.256 -56.665  1.00  0.00     0.011 A 
HETATM   10  C   UNL     1     -32.950  37.832 -55.289  1.00  0.00     0.019 A 
HETATM   11  S   UNL     1     -35.332  36.966 -56.330  1.00  0.00    -0.129 SA
HETATM   12  C   UNL     1     -31.893  38.726 -55.121  1.00  0.00     0.001 A 
HETATM   13  C   UNL     1     -31.884  39.933 -55.815  1.00  0.00     0.001 A 
HETATM   14  C   UNL     1     -35.863  37.251 -58.050  1.00  0.00     0.082 C 
HETATM   15  C   UNL     1     -35.443  38.574 -58.685  1.00  0.00     0.048 C 
ENDBRANCH   3   6
ENDBRANCH   2   3
BRANCH   2  16
HETATM   16  C   UNL     1     -37.331  42.307 -56.186  1.00  0.00     0.135 C 
BRANCH  16  17
HETATM   17  C   UNL     1     -36.129  42.177 -55.277  1.00  0.00     0.224 C 
HETATM   18  N   UNL     1     -36.419  41.552 -54.085  1.00  0.00    -0.327 N 
HETATM   19  H   UNL     1     -37.395  41.408 -53.852  1.00  0.00     0.169 HD
HETATM   20  O   UNL     1     -35.053  42.657 -55.627  1.00  0.00    -0.273 OA
BRANCH  18  21
HETATM   21  C   UNL     1     -35.506  41.211 -53.064  1.00  0.00     0.037 A 
HETATM   22  C   UNL     1     -34.886  39.961 -52.963  1.00  0.00     0.066 A 
HETATM   23  C   UNL     1     -34.022  39.688 -51.897  1.00  0.00     0.070 A 
HETATM   24  C   UNL     1     -33.737  40.681 -50.960  1.00  0.00     0.037 A 
HETATM   25  C   UNL     1     -34.352  41.927 -51.050  1.00  0.00     0.005 A 
HETATM   26  C   UNL     1     -35.246  42.185 -52.090  1.00  0.00     0.029 A 
BRANCH  23  27
HETATM   27  O   UNL     1     -33.383  38.495 -51.693  1.00  0.00    -0.356 OA
HETATM   28  C   UNL     1     -31.977  38.583 -51.489  1.00  0.00     0.210 C 
ENDBRANCH  23  27
ENDBRANCH  18  21
ENDBRANCH  16  17
ENDBRANCH   2  16
TORSDOF 6
ENDMDL
