MODEL 1
REMARK VINA RESULT:      -8.1      0.000      0.000
REMARK  9 active torsions:
REMARK  status: ('A' for Active; 'I' for Inactive)
REMARK    1  A    between atoms: C_2  and  N_3 
REMARK       I    between atoms: N_3  and  C_4 
REMARK    2  A    between atoms: C_4  and  C_5 
REMARK    3  A    between atoms: C_5  and  S_6 
REMARK    4  A    between atoms: S_6  and  C_7 
REMARK    5  A    between atoms: N_8  and  C_9 
REMARK    6  A    between atoms: C_9  and  C_10 
REMARK    7  A    between atoms: C_10  and  C_11 
REMARK    8  A    between atoms: C_17  and  C_18 
REMARK    9  A    between atoms: C_19  and  O_20 
ROOT
HETATM    1  C   UNL     1     -43.015  56.873 -55.483  1.00  0.00     0.192 A 
HETATM    2  N   UNL     1     -42.274  56.228 -54.528  1.00  0.00    -0.307 N 
HETATM    3  C   UNL     1     -42.951  56.436 -53.339  1.00  0.00     0.167 A 
HETATM    4  N   UNL     1     -44.065  57.101 -53.603  1.00  0.00    -0.128 NA
HETATM    5  N   UNL     1     -44.107  57.363 -54.945  1.00  0.00    -0.122 NA
ENDROOT
BRANCH   1   6
HETATM    6  S   UNL     1     -42.544  57.052 -57.136  1.00  0.00    -0.081 SA
BRANCH   6   7
HETATM    7  C   UNL     1     -43.146  55.502 -57.858  1.00  0.00     0.185 C 
BRANCH   7   8
HETATM    8  C   UNL     1     -43.645  55.705 -59.280  1.00  0.00     0.227 C 
HETATM    9  N   UNL     1     -45.002  55.503 -59.439  1.00  0.00    -0.361 N 
HETATM   10  H   UNL     1     -45.575  55.611 -58.599  1.00  0.00     0.162 HD
HETATM   11  O   UNL     1     -42.892  55.997 -60.206  1.00  0.00    -0.273 OA
BRANCH   9  12
HETATM   12  C   UNL     1     -45.666  55.696 -60.708  1.00  0.00     0.118 C 
HETATM   13  C   UNL     1     -47.058  56.276 -60.536  1.00  0.00     0.026 C 
ENDBRANCH   9  12
ENDBRANCH   7   8
ENDBRANCH   6   7
ENDBRANCH   1   6
BRANCH   2  14
HETATM   14  C   UNL     1     -41.039  55.490 -54.707  1.00  0.00     0.137 C 
BRANCH  14  15
HETATM   15  C   UNL     1     -41.213  54.008 -55.055  1.00  0.00     0.059 C 
BRANCH  15  16
HETATM   16  C   UNL     1     -40.601  53.070 -54.045  1.00  0.00    -0.057 A 
HETATM   17  C   UNL     1     -40.340  53.499 -52.738  1.00  0.00     0.007 A 
HETATM   18  C   UNL     1     -39.780  52.624 -51.806  1.00  0.00     0.001 A 
HETATM   19  C   UNL     1     -39.471  51.316 -52.172  1.00  0.00     0.000 A 
HETATM   20  C   UNL     1     -39.719  50.881 -53.473  1.00  0.00     0.001 A 
HETATM   21  C   UNL     1     -40.281  51.753 -54.405  1.00  0.00     0.007 A 
ENDBRANCH  15  16
ENDBRANCH  14  15
ENDBRANCH   2  14
BRANCH   3  22
HETATM   22  C   UNL     1     -42.536  55.980 -52.014  1.00  0.00     0.045 A 
HETATM   23  C   UNL     1     -41.514  56.634 -51.310  1.00  0.00     0.082 A 
HETATM   24  C   UNL     1     -41.148  56.220 -50.026  1.00  0.00     0.038 A 
HETATM   25  C   UNL     1     -41.772  55.117 -49.449  1.00  0.00     0.003 A 
HETATM   26  C   UNL     1     -42.762  54.432 -50.151  1.00  0.00     0.001 A 
HETATM   27  C   UNL     1     -43.139  54.857 -51.428  1.00  0.00     0.018 A 
BRANCH  23  28
HETATM   28  O   UNL     1     -40.916  57.754 -51.832  1.00  0.00    -0.355 OA
HETATM   29  C   UNL     1     -40.577  58.664 -50.783  1.00  0.00     0.210 C 
ENDBRANCH  23  28
ENDBRANCH   3  22
TORSDOF 9
ENDMDL
MODEL 2
REMARK VINA RESULT:      -7.5      2.006      2.910
REMARK  9 active torsions:
REMARK  status: ('A' for Active; 'I' for Inactive)
REMARK    1  A    between atoms: C_2  and  N_3 
REMARK       I    between atoms: N_3  and  C_4 
REMARK    2  A    between atoms: C_4  and  C_5 
REMARK    3  A    between atoms: C_5  and  S_6 
REMARK    4  A    between atoms: S_6  and  C_7 
REMARK    5  A    between atoms: N_8  and  C_9 
REMARK    6  A    between atoms: C_9  and  C_10 
REMARK    7  A    between atoms: C_10  and  C_11 
REMARK    8  A    between atoms: C_17  and  C_18 
REMARK    9  A    between atoms: C_19  and  O_20 
ROOT
HETATM    1  C   UNL     1     -43.598  56.621 -57.908  1.00  0.00     0.192 A 
HETATM    2  N   UNL     1     -43.165  56.468 -56.617  1.00  0.00    -0.307 N 
HETATM    3  C   UNL     1     -43.855  57.419 -55.885  1.00  0.00     0.167 A 
HETATM    4  N   UNL     1     -44.698  58.039 -56.696  1.00  0.00    -0.128 NA
HETATM    5  N   UNL     1     -44.543  57.530 -57.956  1.00  0.00    -0.122 NA
ENDROOT
BRANCH   1   6
HETATM    6  S   UNL     1     -42.951  55.774 -59.267  1.00  0.00    -0.081 SA
BRANCH   6   7
HETATM    7  C   UNL     1     -44.258  54.562 -59.599  1.00  0.00     0.185 C 
BRANCH   7   8
HETATM    8  C   UNL     1     -45.270  55.092 -60.603  1.00  0.00     0.227 C 
HETATM    9  N   UNL     1     -46.349  55.737 -60.032  1.00  0.00    -0.361 N 
HETATM   10  H   UNL     1     -46.201  56.119 -59.095  1.00  0.00     0.162 HD
HETATM   11  O   UNL     1     -45.142  54.931 -61.814  1.00  0.00    -0.273 OA
BRANCH   9  12
HETATM   12  C   UNL     1     -47.389  56.350 -60.827  1.00  0.00     0.118 C 
HETATM   13  C   UNL     1     -47.322  57.865 -60.778  1.00  0.00     0.026 C 
ENDBRANCH   9  12
ENDBRANCH   7   8
ENDBRANCH   6   7
ENDBRANCH   1   6
BRANCH   2  14
HETATM   14  C   UNL     1     -42.189  55.524 -56.112  1.00  0.00     0.137 C 
BRANCH  14  15
HETATM   15  C   UNL     1     -42.776  54.300 -55.399  1.00  0.00     0.059 C 
BRANCH  15  16
HETATM   16  C   UNL     1     -41.955  53.826 -54.226  1.00  0.00    -0.057 A 
HETATM   17  C   UNL     1     -40.948  52.868 -54.401  1.00  0.00     0.007 A 
HETATM   18  C   UNL     1     -40.186  52.438 -53.313  1.00  0.00     0.001 A 
HETATM   19  C   UNL     1     -40.427  52.956 -52.043  1.00  0.00     0.000 A 
HETATM   20  C   UNL     1     -41.432  53.902 -51.856  1.00  0.00     0.001 A 
HETATM   21  C   UNL     1     -42.193  54.336 -52.943  1.00  0.00     0.007 A 
ENDBRANCH  15  16
ENDBRANCH  14  15
ENDBRANCH   2  14
BRANCH   3  22
HETATM   22  C   UNL     1     -43.710  57.686 -54.456  1.00  0.00     0.045 A 
HETATM   23  C   UNL     1     -42.696  58.529 -53.975  1.00  0.00     0.082 A 
HETATM   24  C   UNL     1     -42.587  58.814 -52.611  1.00  0.00     0.038 A 
HETATM   25  C   UNL     1     -43.465  58.222 -51.706  1.00  0.00     0.003 A 
HETATM   26  C   UNL     1     -44.453  57.352 -52.164  1.00  0.00     0.001 A 
HETATM   27  C   UNL     1     -44.572  57.081 -53.530  1.00  0.00     0.018 A 
BRANCH  23  28
HETATM   28  O   UNL     1     -41.849  59.165 -54.847  1.00  0.00    -0.355 OA
HETATM   29  C   UNL     1     -42.278  60.512 -55.055  1.00  0.00     0.210 C 
ENDBRANCH  23  28
ENDBRANCH   3  22
TORSDOF 9
ENDMDL
MODEL 3
REMARK VINA RESULT:      -7.3      1.825      3.186
REMARK  9 active torsions:
REMARK  status: ('A' for Active; 'I' for Inactive)
REMARK    1  A    between atoms: C_2  and  N_3 
REMARK       I    between atoms: N_3  and  C_4 
REMARK    2  A    between atoms: C_4  and  C_5 
REMARK    3  A    between atoms: C_5  and  S_6 
REMARK    4  A    between atoms: S_6  and  C_7 
REMARK    5  A    between atoms: N_8  and  C_9 
REMARK    6  A    between atoms: C_9  and  C_10 
REMARK    7  A    between atoms: C_10  and  C_11 
REMARK    8  A    between atoms: C_17  and  C_18 
REMARK    9  A    between atoms: C_19  and  O_20 
ROOT
HETATM    1  C   UNL     1     -42.587  57.768 -55.768  1.00  0.00     0.192 A 
HETATM    2  N   UNL     1     -42.401  57.641 -54.416  1.00  0.00    -0.307 N 
HETATM    3  C   UNL     1     -41.745  58.796 -54.027  1.00  0.00     0.167 A 
HETATM    4  N   UNL     1     -41.626  59.584 -55.084  1.00  0.00    -0.128 NA
HETATM    5  N   UNL     1     -42.163  58.944 -56.167  1.00  0.00    -0.122 NA
ENDROOT
BRANCH   1   6
HETATM    6  S   UNL     1     -43.237  56.536 -56.790  1.00  0.00    -0.081 SA
BRANCH   6   7
HETATM    7  C   UNL     1     -42.555  57.002 -58.404  1.00  0.00     0.185 C 
BRANCH   7   8
HETATM    8  C   UNL     1     -43.373  56.419 -59.545  1.00  0.00     0.227 C 
HETATM    9  N   UNL     1     -44.498  55.728 -59.141  1.00  0.00    -0.361 N 
HETATM   10  H   UNL     1     -44.872  55.975 -58.222  1.00  0.00     0.162 HD
HETATM   11  O   UNL     1     -43.037  56.535 -60.722  1.00  0.00    -0.273 OA
BRANCH   9  12
HETATM   12  C   UNL     1     -45.424  55.145 -60.084  1.00  0.00     0.118 C 
HETATM   13  C   UNL     1     -46.577  56.080 -60.399  1.00  0.00     0.026 C 
ENDBRANCH   9  12
ENDBRANCH   7   8
ENDBRANCH   6   7
ENDBRANCH   1   6
BRANCH   2  14
HETATM   14  C   UNL     1     -42.793  56.536 -53.564  1.00  0.00     0.137 C 
BRANCH  14  15
HETATM   15  C   UNL     1     -41.750  55.421 -53.423  1.00  0.00     0.059 C 
BRANCH  15  16
HETATM   16  C   UNL     1     -41.327  55.159 -52.000  1.00  0.00    -0.057 A 
HETATM   17  C   UNL     1     -41.737  56.009 -50.966  1.00  0.00     0.007 A 
HETATM   18  C   UNL     1     -41.348  55.756 -49.648  1.00  0.00     0.001 A 
HETATM   19  C   UNL     1     -40.544  54.658 -49.355  1.00  0.00     0.000 A 
HETATM   20  C   UNL     1     -40.123  53.811 -50.379  1.00  0.00     0.001 A 
HETATM   21  C   UNL     1     -40.513  54.060 -51.695  1.00  0.00     0.007 A 
ENDBRANCH  15  16
ENDBRANCH  14  15
ENDBRANCH   2  14
BRANCH   3  22
HETATM   22  C   UNL     1     -41.284  59.119 -52.679  1.00  0.00     0.045 A 
HETATM   23  C   UNL     1     -42.146  59.700 -51.737  1.00  0.00     0.082 A 
HETATM   24  C   UNL     1     -41.711  59.970 -50.436  1.00  0.00     0.038 A 
HETATM   25  C   UNL     1     -40.393  59.701 -50.076  1.00  0.00     0.003 A 
HETATM   26  C   UNL     1     -39.513  59.160 -51.012  1.00  0.00     0.001 A 
HETATM   27  C   UNL     1     -39.953  58.876 -52.307  1.00  0.00     0.018 A 
BRANCH  23  28
HETATM   28  O   UNL     1     -43.463  59.930 -52.049  1.00  0.00    -0.355 OA
HETATM   29  C   UNL     1     -44.312  59.207 -51.155  1.00  0.00     0.210 C 
ENDBRANCH  23  28
ENDBRANCH   3  22
TORSDOF 9
ENDMDL
MODEL 4
REMARK VINA RESULT:      -7.3      2.994      6.577
REMARK  9 active torsions:
REMARK  status: ('A' for Active; 'I' for Inactive)
REMARK    1  A    between atoms: C_2  and  N_3 
REMARK       I    between atoms: N_3  and  C_4 
REMARK    2  A    between atoms: C_4  and  C_5 
REMARK    3  A    between atoms: C_5  and  S_6 
REMARK    4  A    between atoms: S_6  and  C_7 
REMARK    5  A    between atoms: N_8  and  C_9 
REMARK    6  A    between atoms: C_9  and  C_10 
REMARK    7  A    between atoms: C_10  and  C_11 
REMARK    8  A    between atoms: C_17  and  C_18 
REMARK    9  A    between atoms: C_19  and  O_20 
ROOT
HETATM    1  C   UNL     1     -43.383  59.827 -53.209  1.00  0.00     0.192 A 
HETATM    2  N   UNL     1     -43.380  58.462 -53.321  1.00  0.00    -0.307 N 
HETATM    3  C   UNL     1     -42.268  58.160 -54.088  1.00  0.00     0.167 A 
HETATM    4  N   UNL     1     -41.619  59.285 -54.343  1.00  0.00    -0.128 NA
HETATM    5  N   UNL     1     -42.311  60.323 -53.783  1.00  0.00    -0.122 NA
ENDROOT
BRANCH   1   6
HETATM    6  S   UNL     1     -44.640  60.750 -52.465  1.00  0.00    -0.081 SA
BRANCH   6   7
HETATM    7  C   UNL     1     -44.234  60.571 -50.707  1.00  0.00     0.185 C 
BRANCH   7   8
HETATM    8  C   UNL     1     -42.750  60.779 -50.452  1.00  0.00     0.227 C 
HETATM    9  N   UNL     1     -42.061  59.624 -50.140  1.00  0.00    -0.361 N 
HETATM   10  H   UNL     1     -42.480  58.749 -50.462  1.00  0.00     0.162 HD
HETATM   11  O   UNL     1     -42.225  61.889 -50.495  1.00  0.00    -0.273 OA
BRANCH   9  12
HETATM   12  C   UNL     1     -40.634  59.616 -49.913  1.00  0.00     0.118 C 
HETATM   13  C   UNL     1     -39.867  59.157 -51.140  1.00  0.00     0.026 C 
ENDBRANCH   9  12
ENDBRANCH   7   8
ENDBRANCH   6   7
ENDBRANCH   1   6
BRANCH   2  14
HETATM   14  C   UNL     1     -44.335  57.522 -52.768  1.00  0.00     0.137 C 
BRANCH  14  15
HETATM   15  C   UNL     1     -44.064  57.096 -51.321  1.00  0.00     0.059 C 
BRANCH  15  16
HETATM   16  C   UNL     1     -43.093  55.949 -51.195  1.00  0.00    -0.057 A 
HETATM   17  C   UNL     1     -43.348  54.726 -51.828  1.00  0.00     0.007 A 
HETATM   18  C   UNL     1     -42.443  53.669 -51.714  1.00  0.00     0.001 A 
HETATM   19  C   UNL     1     -41.279  53.823 -50.963  1.00  0.00     0.000 A 
HETATM   20  C   UNL     1     -41.021  55.033 -50.322  1.00  0.00     0.001 A 
HETATM   21  C   UNL     1     -41.923  56.091 -50.437  1.00  0.00     0.007 A 
ENDBRANCH  15  16
ENDBRANCH  14  15
ENDBRANCH   2  14
BRANCH   3  22
HETATM   22  C   UNL     1     -41.853  56.830 -54.526  1.00  0.00     0.045 A 
HETATM   23  C   UNL     1     -42.573  56.131 -55.507  1.00  0.00     0.082 A 
HETATM   24  C   UNL     1     -42.148  54.876 -55.952  1.00  0.00     0.038 A 
HETATM   25  C   UNL     1     -41.021  54.285 -55.388  1.00  0.00     0.003 A 
HETATM   26  C   UNL     1     -40.317  54.949 -54.384  1.00  0.00     0.001 A 
HETATM   27  C   UNL     1     -40.733  56.211 -53.952  1.00  0.00     0.018 A 
BRANCH  23  28
HETATM   28  O   UNL     1     -43.659  56.709 -56.116  1.00  0.00    -0.355 OA
HETATM   29  C   UNL     1     -43.360  56.995 -57.484  1.00  0.00     0.210 C 
ENDBRANCH  23  28
ENDBRANCH   3  22
TORSDOF 9
ENDMDL
MODEL 5
REMARK VINA RESULT:      -7.2      1.693      4.188
REMARK  9 active torsions:
REMARK  status: ('A' for Active; 'I' for Inactive)
REMARK    1  A    between atoms: C_2  and  N_3 
REMARK       I    between atoms: N_3  and  C_4 
REMARK    2  A    between atoms: C_4  and  C_5 
REMARK    3  A    between atoms: C_5  and  S_6 
REMARK    4  A    between atoms: S_6  and  C_7 
REMARK    5  A    between atoms: N_8  and  C_9 
REMARK    6  A    between atoms: C_9  and  C_10 
REMARK    7  A    between atoms: C_10  and  C_11 
REMARK    8  A    between atoms: C_17  and  C_18 
REMARK    9  A    between atoms: C_19  and  O_20 
ROOT
HETATM    1  C   UNL     1     -43.163  55.851 -54.952  1.00  0.00     0.192 A 
HETATM    2  N   UNL     1     -42.132  55.985 -54.060  1.00  0.00    -0.307 N 
HETATM    3  C   UNL     1     -42.436  55.127 -53.018  1.00  0.00     0.167 A 
HETATM    4  N   UNL     1     -43.546  54.474 -53.325  1.00  0.00    -0.128 NA
HETATM    5  N   UNL     1     -43.991  54.920 -54.539  1.00  0.00    -0.122 NA
ENDROOT
BRANCH   1   6
HETATM    6  S   UNL     1     -43.360  56.806 -56.378  1.00  0.00    -0.081 SA
BRANCH   6   7
HETATM    7  C   UNL     1     -42.938  55.614 -57.679  1.00  0.00     0.185 C 
BRANCH   7   8
HETATM    8  C   UNL     1     -43.564  55.996 -59.010  1.00  0.00     0.227 C 
HETATM    9  N   UNL     1     -44.832  56.533 -58.907  1.00  0.00    -0.361 N 
HETATM   10  H   UNL     1     -45.069  56.959 -58.008  1.00  0.00     0.162 HD
HETATM   11  O   UNL     1     -42.993  55.813 -60.083  1.00  0.00    -0.273 OA
BRANCH   9  12
HETATM   12  C   UNL     1     -45.567  57.000 -60.061  1.00  0.00     0.118 C 
HETATM   13  C   UNL     1     -46.809  56.166 -60.317  1.00  0.00     0.026 C 
ENDBRANCH   9  12
ENDBRANCH   7   8
ENDBRANCH   6   7
ENDBRANCH   1   6
BRANCH   2  14
HETATM   14  C   UNL     1     -40.970  56.844 -54.167  1.00  0.00     0.137 C 
BRANCH  14  15
HETATM   15  C   UNL     1     -41.254  58.343 -54.023  1.00  0.00     0.059 C 
BRANCH  15  16
HETATM   16  C   UNL     1     -41.176  58.844 -52.603  1.00  0.00    -0.057 A 
HETATM   17  C   UNL     1     -42.313  59.351 -51.961  1.00  0.00     0.007 A 
HETATM   18  C   UNL     1     -42.237  59.807 -50.644  1.00  0.00     0.001 A 
HETATM   19  C   UNL     1     -41.024  59.766 -49.959  1.00  0.00     0.000 A 
HETATM   20  C   UNL     1     -39.885  59.271 -50.591  1.00  0.00     0.001 A 
HETATM   21  C   UNL     1     -39.960  58.813 -51.907  1.00  0.00     0.007 A 
ENDBRANCH  15  16
ENDBRANCH  14  15
ENDBRANCH   2  14
BRANCH   3  22
HETATM   22  C   UNL     1     -41.660  54.940 -51.794  1.00  0.00     0.045 A 
HETATM   23  C   UNL     1     -40.728  53.898 -51.678  1.00  0.00     0.082 A 
HETATM   24  C   UNL     1     -39.959  53.748 -50.521  1.00  0.00     0.038 A 
HETATM   25  C   UNL     1     -40.146  54.615 -49.447  1.00  0.00     0.003 A 
HETATM   26  C   UNL     1     -41.096  55.631 -49.531  1.00  0.00     0.001 A 
HETATM   27  C   UNL     1     -41.853  55.790 -50.695  1.00  0.00     0.018 A 
BRANCH  23  28
HETATM   28  O   UNL     1     -40.487  53.060 -52.738  1.00  0.00    -0.355 OA
HETATM   29  C   UNL     1     -39.698  51.946 -52.314  1.00  0.00     0.210 C 
ENDBRANCH  23  28
ENDBRANCH   3  22
TORSDOF 9
ENDMDL
MODEL 6
REMARK VINA RESULT:      -7.1      3.491      7.070
REMARK  9 active torsions:
REMARK  status: ('A' for Active; 'I' for Inactive)
REMARK    1  A    between atoms: C_2  and  N_3 
REMARK       I    between atoms: N_3  and  C_4 
REMARK    2  A    between atoms: C_4  and  C_5 
REMARK    3  A    between atoms: C_5  and  S_6 
REMARK    4  A    between atoms: S_6  and  C_7 
REMARK    5  A    between atoms: N_8  and  C_9 
REMARK    6  A    between atoms: C_9  and  C_10 
REMARK    7  A    between atoms: C_10  and  C_11 
REMARK    8  A    between atoms: C_17  and  C_18 
REMARK    9  A    between atoms: C_19  and  O_20 
ROOT
HETATM    1  C   UNL     1     -43.060  59.899 -53.095  1.00  0.00     0.192 A 
HETATM    2  N   UNL     1     -43.130  58.537 -53.227  1.00  0.00    -0.307 N 
HETATM    3  C   UNL     1     -42.066  58.193 -54.043  1.00  0.00     0.167 A 
HETATM    4  N   UNL     1     -41.372  59.288 -54.308  1.00  0.00    -0.128 NA
HETATM    5  N   UNL     1     -41.989  60.350 -53.705  1.00  0.00    -0.122 NA
ENDROOT
BRANCH   1   6
HETATM    6  S   UNL     1     -44.238  60.871 -52.288  1.00  0.00    -0.081 SA
BRANCH   6   7
HETATM    7  C   UNL     1     -43.717  60.718 -50.558  1.00  0.00     0.185 C 
BRANCH   7   8
HETATM    8  C   UNL     1     -44.910  60.581 -49.625  1.00  0.00     0.227 C 
HETATM    9  N   UNL     1     -44.811  61.324 -48.466  1.00  0.00    -0.361 N 
HETATM   10  H   UNL     1     -44.190  62.136 -48.503  1.00  0.00     0.162 HD
HETATM   11  O   UNL     1     -45.862  59.846 -49.879  1.00  0.00    -0.273 OA
BRANCH   9  12
HETATM   12  C   UNL     1     -45.868  61.360 -47.481  1.00  0.00     0.118 C 
HETATM   13  C   UNL     1     -45.469  60.657 -46.196  1.00  0.00     0.026 C 
ENDBRANCH   9  12
ENDBRANCH   7   8
ENDBRANCH   6   7
ENDBRANCH   1   6
BRANCH   2  14
HETATM   14  C   UNL     1     -44.108  57.637 -52.649  1.00  0.00     0.137 C 
BRANCH  14  15
HETATM   15  C   UNL     1     -43.806  57.180 -51.217  1.00  0.00     0.059 C 
BRANCH  15  16
HETATM   16  C   UNL     1     -42.894  55.982 -51.140  1.00  0.00    -0.057 A 
HETATM   17  C   UNL     1     -43.235  54.783 -51.777  1.00  0.00     0.007 A 
HETATM   18  C   UNL     1     -42.383  53.679 -51.709  1.00  0.00     0.001 A 
HETATM   19  C   UNL     1     -41.188  53.762 -50.998  1.00  0.00     0.000 A 
HETATM   20  C   UNL     1     -40.843  54.947 -50.353  1.00  0.00     0.001 A 
HETATM   21  C   UNL     1     -41.691  56.053 -50.423  1.00  0.00     0.007 A 
ENDBRANCH  15  16
ENDBRANCH  14  15
ENDBRANCH   2  14
BRANCH   3  22
HETATM   22  C   UNL     1     -41.736  56.851 -54.516  1.00  0.00     0.045 A 
HETATM   23  C   UNL     1     -42.526  56.207 -55.481  1.00  0.00     0.082 A 
HETATM   24  C   UNL     1     -42.183  54.940 -55.960  1.00  0.00     0.038 A 
HETATM   25  C   UNL     1     -41.067  54.283 -55.447  1.00  0.00     0.003 A 
HETATM   26  C   UNL     1     -40.295  54.892 -54.459  1.00  0.00     0.001 A 
HETATM   27  C   UNL     1     -40.630  56.166 -53.992  1.00  0.00     0.018 A 
BRANCH  23  28
HETATM   28  O   UNL     1     -43.601  56.851 -56.041  1.00  0.00    -0.355 OA
HETATM   29  C   UNL     1     -43.361  57.091 -57.429  1.00  0.00     0.210 C 
ENDBRANCH  23  28
ENDBRANCH   3  22
TORSDOF 9
ENDMDL
MODEL 7
REMARK VINA RESULT:      -7.0      2.386      3.257
REMARK  9 active torsions:
REMARK  status: ('A' for Active; 'I' for Inactive)
REMARK    1  A    between atoms: C_2  and  N_3 
REMARK       I    between atoms: N_3  and  C_4 
REMARK    2  A    between atoms: C_4  and  C_5 
REMARK    3  A    between atoms: C_5  and  S_6 
REMARK    4  A    between atoms: S_6  and  C_7 
REMARK    5  A    between atoms: N_8  and  C_9 
REMARK    6  A    between atoms: C_9  and  C_10 
REMARK    7  A    between atoms: C_10  and  C_11 
REMARK    8  A    between atoms: C_17  and  C_18 
REMARK    9  A    between atoms: C_19  and  O_20 
ROOT
HETATM    1  C   UNL     1     -43.673  57.371 -57.690  1.00  0.00     0.192 A 
HETATM    2  N   UNL     1     -43.196  57.238 -56.412  1.00  0.00    -0.307 N 
HETATM    3  C   UNL     1     -44.064  57.969 -55.620  1.00  0.00     0.167 A 
HETATM    4  N   UNL     1     -45.034  58.439 -56.387  1.00  0.00    -0.128 NA
HETATM    5  N   UNL     1     -44.794  58.054 -57.678  1.00  0.00    -0.122 NA
ENDROOT
BRANCH   1   6
HETATM    6  S   UNL     1     -42.880  56.770 -59.102  1.00  0.00    -0.081 SA
BRANCH   6   7
HETATM    7  C   UNL     1     -43.764  55.211 -59.383  1.00  0.00     0.185 C 
BRANCH   7   8
HETATM    8  C   UNL     1     -44.919  55.391 -60.355  1.00  0.00     0.227 C 
HETATM    9  N   UNL     1     -46.060  55.922 -59.787  1.00  0.00    -0.361 N 
HETATM   10  H   UNL     1     -45.926  56.469 -58.934  1.00  0.00     0.162 HD
HETATM   11  O   UNL     1     -44.841  55.062 -61.537  1.00  0.00    -0.273 OA
BRANCH   9  12
HETATM   12  C   UNL     1     -47.244  56.210 -60.564  1.00  0.00     0.118 C 
HETATM   13  C   UNL     1     -47.391  57.694 -60.845  1.00  0.00     0.026 C 
ENDBRANCH   9  12
ENDBRANCH   7   8
ENDBRANCH   6   7
ENDBRANCH   1   6
BRANCH   2  14
HETATM   14  C   UNL     1     -42.030  56.499 -55.971  1.00  0.00     0.137 C 
BRANCH  14  15
HETATM   15  C   UNL     1     -42.320  55.106 -55.402  1.00  0.00     0.059 C 
BRANCH  15  16
HETATM   16  C   UNL     1     -42.286  55.044 -53.895  1.00  0.00    -0.057 A 
HETATM   17  C   UNL     1     -43.192  54.240 -53.193  1.00  0.00     0.007 A 
HETATM   18  C   UNL     1     -43.151  54.181 -51.799  1.00  0.00     0.001 A 
HETATM   19  C   UNL     1     -42.209  54.928 -51.095  1.00  0.00     0.000 A 
HETATM   20  C   UNL     1     -41.308  55.738 -51.784  1.00  0.00     0.001 A 
HETATM   21  C   UNL     1     -41.346  55.796 -53.177  1.00  0.00     0.007 A 
ENDBRANCH  15  16
ENDBRANCH  14  15
ENDBRANCH   2  14
BRANCH   3  22
HETATM   22  C   UNL     1     -43.957  58.174 -54.177  1.00  0.00     0.045 A 
HETATM   23  C   UNL     1     -43.037  59.088 -53.641  1.00  0.00     0.082 A 
HETATM   24  C   UNL     1     -42.967  59.310 -52.263  1.00  0.00     0.038 A 
HETATM   25  C   UNL     1     -43.786  58.586 -51.401  1.00  0.00     0.003 A 
HETATM   26  C   UNL     1     -44.676  57.644 -51.915  1.00  0.00     0.001 A 
HETATM   27  C   UNL     1     -44.758  57.435 -53.294  1.00  0.00     0.018 A 
BRANCH  23  28
HETATM   28  O   UNL     1     -42.253  59.852 -54.469  1.00  0.00    -0.355 OA
HETATM   29  C   UNL     1     -42.697  61.211 -54.450  1.00  0.00     0.210 C 
ENDBRANCH  23  28
ENDBRANCH   3  22
TORSDOF 9
ENDMDL
MODEL 8
REMARK VINA RESULT:      -7.0      1.932      2.839
REMARK  9 active torsions:
REMARK  status: ('A' for Active; 'I' for Inactive)
REMARK    1  A    between atoms: C_2  and  N_3 
REMARK       I    between atoms: N_3  and  C_4 
REMARK    2  A    between atoms: C_4  and  C_5 
REMARK    3  A    between atoms: C_5  and  S_6 
REMARK    4  A    between atoms: S_6  and  C_7 
REMARK    5  A    between atoms: N_8  and  C_9 
REMARK    6  A    between atoms: C_9  and  C_10 
REMARK    7  A    between atoms: C_10  and  C_11 
REMARK    8  A    between atoms: C_17  and  C_18 
REMARK    9  A    between atoms: C_19  and  O_20 
ROOT
HETATM    1  C   UNL     1     -43.038  56.718 -56.393  1.00  0.00     0.192 A 
HETATM    2  N   UNL     1     -42.249  56.513 -55.292  1.00  0.00    -0.307 N 
HETATM    3  C   UNL     1     -42.409  57.644 -54.511  1.00  0.00     0.167 A 
HETATM    4  N   UNL     1     -43.301  58.430 -55.092  1.00  0.00    -0.128 NA
HETATM    5  N   UNL     1     -43.701  57.844 -56.261  1.00  0.00    -0.122 NA
ENDROOT
BRANCH   1   6
HETATM    6  S   UNL     1     -43.102  55.671 -57.765  1.00  0.00    -0.081 SA
BRANCH   6   7
HETATM    7  C   UNL     1     -44.104  56.644 -58.922  1.00  0.00     0.185 C 
BRANCH   7   8
HETATM    8  C   UNL     1     -43.238  57.538 -59.795  1.00  0.00     0.227 C 
HETATM    9  N   UNL     1     -43.446  58.889 -59.605  1.00  0.00    -0.361 N 
HETATM   10  H   UNL     1     -43.839  59.162 -58.701  1.00  0.00     0.162 HD
HETATM   11  O   UNL     1     -42.444  57.084 -60.617  1.00  0.00    -0.273 OA
BRANCH   9  12
HETATM   12  C   UNL     1     -42.682  59.893 -60.310  1.00  0.00     0.118 C 
HETATM   13  C   UNL     1     -43.427  60.425 -61.521  1.00  0.00     0.026 C 
ENDBRANCH   9  12
ENDBRANCH   7   8
ENDBRANCH   6   7
ENDBRANCH   1   6
BRANCH   2  14
HETATM   14  C   UNL     1     -41.414  55.365 -54.998  1.00  0.00     0.137 C 
BRANCH  14  15
HETATM   15  C   UNL     1     -42.106  54.239 -54.222  1.00  0.00     0.059 C 
BRANCH  15  16
HETATM   16  C   UNL     1     -41.150  53.286 -53.549  1.00  0.00    -0.057 A 
HETATM   17  C   UNL     1     -40.570  52.233 -54.267  1.00  0.00     0.007 A 
HETATM   18  C   UNL     1     -39.680  51.358 -53.641  1.00  0.00     0.001 A 
HETATM   19  C   UNL     1     -39.368  51.523 -52.293  1.00  0.00     0.000 A 
HETATM   20  C   UNL     1     -39.947  52.563 -51.568  1.00  0.00     0.001 A 
HETATM   21  C   UNL     1     -40.834  53.440 -52.193  1.00  0.00     0.007 A 
ENDBRANCH  15  16
ENDBRANCH  14  15
ENDBRANCH   2  14
BRANCH   3  22
HETATM   22  C   UNL     1     -41.737  57.925 -53.244  1.00  0.00     0.045 A 
HETATM   23  C   UNL     1     -42.250  57.447 -52.029  1.00  0.00     0.082 A 
HETATM   24  C   UNL     1     -41.581  57.684 -50.824  1.00  0.00     0.038 A 
HETATM   25  C   UNL     1     -40.413  58.441 -50.817  1.00  0.00     0.003 A 
HETATM   26  C   UNL     1     -39.911  58.957 -52.011  1.00  0.00     0.001 A 
HETATM   27  C   UNL     1     -40.572  58.706 -53.217  1.00  0.00     0.018 A 
BRANCH  23  28
HETATM   28  O   UNL     1     -43.372  56.657 -52.011  1.00  0.00    -0.355 OA
HETATM   29  C   UNL     1     -43.393  55.862 -50.823  1.00  0.00     0.210 C 
ENDBRANCH  23  28
ENDBRANCH   3  22
TORSDOF 9
ENDMDL
MODEL 9
REMARK VINA RESULT:      -6.9      3.541      4.379
REMARK  9 active torsions:
REMARK  status: ('A' for Active; 'I' for Inactive)
REMARK    1  A    between atoms: C_2  and  N_3 
REMARK       I    between atoms: N_3  and  C_4 
REMARK    2  A    between atoms: C_4  and  C_5 
REMARK    3  A    between atoms: C_5  and  S_6 
REMARK    4  A    between atoms: S_6  and  C_7 
REMARK    5  A    between atoms: N_8  and  C_9 
REMARK    6  A    between atoms: C_9  and  C_10 
REMARK    7  A    between atoms: C_10  and  C_11 
REMARK    8  A    between atoms: C_17  and  C_18 
REMARK    9  A    between atoms: C_19  and  O_20 
ROOT
HETATM    1  C   UNL     1     -42.269  58.892 -57.241  1.00  0.00     0.192 A 
HETATM    2  N   UNL     1     -42.647  58.038 -56.237  1.00  0.00    -0.307 N 
HETATM    3  C   UNL     1     -42.188  58.621 -55.069  1.00  0.00     0.167 A 
HETATM    4  N   UNL     1     -41.640  59.787 -55.371  1.00  0.00    -0.128 NA
HETATM    5  N   UNL     1     -41.703  59.959 -56.727  1.00  0.00    -0.122 NA
ENDROOT
BRANCH   1   6
HETATM    6  S   UNL     1     -42.468  58.575 -58.927  1.00  0.00    -0.081 SA
BRANCH   6   7
HETATM    7  C   UNL     1     -43.677  59.842 -59.398  1.00  0.00     0.185 C 
BRANCH   7   8
HETATM    8  C   UNL     1     -43.006  61.178 -59.677  1.00  0.00     0.227 C 
HETATM    9  N   UNL     1     -41.650  61.090 -59.921  1.00  0.00    -0.361 N 
HETATM   10  H   UNL     1     -41.309  60.186 -60.255  1.00  0.00     0.162 HD
HETATM   11  O   UNL     1     -43.622  62.241 -59.658  1.00  0.00    -0.273 OA
BRANCH   9  12
HETATM   12  C   UNL     1     -40.850  62.247 -60.254  1.00  0.00     0.118 C 
HETATM   13  C   UNL     1     -39.922  62.640 -59.120  1.00  0.00     0.026 C 
ENDBRANCH   9  12
ENDBRANCH   7   8
ENDBRANCH   6   7
ENDBRANCH   1   6
BRANCH   2  14
HETATM   14  C   UNL     1     -43.365  56.785 -56.359  1.00  0.00     0.137 C 
BRANCH  14  15
HETATM   15  C   UNL     1     -42.489  55.555 -56.619  1.00  0.00     0.059 C 
BRANCH  15  16
HETATM   16  C   UNL     1     -42.084  54.819 -55.367  1.00  0.00    -0.057 A 
HETATM   17  C   UNL     1     -40.764  54.389 -55.187  1.00  0.00     0.007 A 
HETATM   18  C   UNL     1     -40.393  53.714 -54.022  1.00  0.00     0.001 A 
HETATM   19  C   UNL     1     -41.339  53.459 -53.031  1.00  0.00     0.000 A 
HETATM   20  C   UNL     1     -42.657  53.876 -53.204  1.00  0.00     0.001 A 
HETATM   21  C   UNL     1     -43.029  54.552 -54.366  1.00  0.00     0.007 A 
ENDBRANCH  15  16
ENDBRANCH  14  15
ENDBRANCH   2  14
BRANCH   3  22
HETATM   22  C   UNL     1     -42.306  58.070 -53.721  1.00  0.00     0.045 A 
HETATM   23  C   UNL     1     -43.532  58.079 -53.039  1.00  0.00     0.082 A 
HETATM   24  C   UNL     1     -43.649  57.514 -51.765  1.00  0.00     0.038 A 
HETATM   25  C   UNL     1     -42.527  56.972 -51.142  1.00  0.00     0.003 A 
HETATM   26  C   UNL     1     -41.294  56.991 -51.790  1.00  0.00     0.001 A 
HETATM   27  C   UNL     1     -41.182  57.541 -53.070  1.00  0.00     0.018 A 
BRANCH  23  28
HETATM   28  O   UNL     1     -44.663  58.561 -53.648  1.00  0.00    -0.355 OA
HETATM   29  C   UNL     1     -45.170  59.684 -52.924  1.00  0.00     0.210 C 
ENDBRANCH  23  28
ENDBRANCH   3  22
TORSDOF 9
ENDMDL
MODEL 10
REMARK VINA RESULT:      -6.8      1.887      2.608
REMARK  9 active torsions:
REMARK  status: ('A' for Active; 'I' for Inactive)
REMARK    1  A    between atoms: C_2  and  N_3 
REMARK       I    between atoms: N_3  and  C_4 
REMARK    2  A    between atoms: C_4  and  C_5 
REMARK    3  A    between atoms: C_5  and  S_6 
REMARK    4  A    between atoms: S_6  and  C_7 
REMARK    5  A    between atoms: N_8  and  C_9 
REMARK    6  A    between atoms: C_9  and  C_10 
REMARK    7  A    between atoms: C_10  and  C_11 
REMARK    8  A    between atoms: C_17  and  C_18 
REMARK    9  A    between atoms: C_19  and  O_20 
ROOT
HETATM    1  C   UNL     1     -44.339  58.909 -54.578  1.00  0.00     0.192 A 
HETATM    2  N   UNL     1     -43.275  58.146 -54.174  1.00  0.00    -0.307 N 
HETATM    3  C   UNL     1     -43.602  57.708 -52.902  1.00  0.00     0.167 A 
HETATM    4  N   UNL     1     -44.822  58.133 -52.614  1.00  0.00    -0.128 NA
HETATM    5  N   UNL     1     -45.284  58.873 -53.668  1.00  0.00    -0.122 NA
ENDROOT
BRANCH   1   6
HETATM    6  S   UNL     1     -44.394  59.820 -56.045  1.00  0.00    -0.081 SA
BRANCH   6   7
HETATM    7  C   UNL     1     -45.845  59.106 -56.865  1.00  0.00     0.185 C 
BRANCH   7   8
HETATM    8  C   UNL     1     -45.490  58.529 -58.226  1.00  0.00     0.227 C 
HETATM    9  N   UNL     1     -45.014  57.233 -58.185  1.00  0.00    -0.361 N 
HETATM   10  H   UNL     1     -45.285  56.679 -57.369  1.00  0.00     0.162 HD
HETATM   11  O   UNL     1     -45.595  59.178 -59.264  1.00  0.00    -0.273 OA
BRANCH   9  12
HETATM   12  C   UNL     1     -44.670  56.500 -59.382  1.00  0.00     0.118 C 
HETATM   13  C   UNL     1     -43.556  55.500 -59.134  1.00  0.00     0.026 C 
ENDBRANCH   9  12
ENDBRANCH   7   8
ENDBRANCH   6   7
ENDBRANCH   1   6
BRANCH   2  14
HETATM   14  C   UNL     1     -42.059  57.857 -54.906  1.00  0.00     0.137 C 
BRANCH  14  15
HETATM   15  C   UNL     1     -42.158  56.691 -55.896  1.00  0.00     0.059 C 
BRANCH  15  16
HETATM   16  C   UNL     1     -41.790  55.354 -55.302  1.00  0.00    -0.057 A 
HETATM   17  C   UNL     1     -40.512  55.135 -54.775  1.00  0.00     0.007 A 
HETATM   18  C   UNL     1     -40.179  53.898 -54.220  1.00  0.00     0.001 A 
HETATM   19  C   UNL     1     -41.118  52.869 -54.192  1.00  0.00     0.000 A 
HETATM   20  C   UNL     1     -42.390  53.074 -54.722  1.00  0.00     0.001 A 
HETATM   21  C   UNL     1     -42.725  54.310 -55.275  1.00  0.00     0.007 A 
ENDBRANCH  15  16
ENDBRANCH  14  15
ENDBRANCH   2  14
BRANCH   3  22
HETATM   22  C   UNL     1     -42.766  56.892 -52.024  1.00  0.00     0.045 A 
HETATM   23  C   UNL     1     -41.701  57.458 -51.306  1.00  0.00     0.082 A 
HETATM   24  C   UNL     1     -40.930  56.681 -50.437  1.00  0.00     0.038 A 
HETATM   25  C   UNL     1     -41.187  55.318 -50.310  1.00  0.00     0.003 A 
HETATM   26  C   UNL     1     -42.215  54.734 -51.048  1.00  0.00     0.001 A 
HETATM   27  C   UNL     1     -42.997  55.514 -51.904  1.00  0.00     0.018 A 
BRANCH  23  28
HETATM   28  O   UNL     1     -41.456  58.806 -51.372  1.00  0.00    -0.355 OA
HETATM   29  C   UNL     1     -40.848  59.255 -50.159  1.00  0.00     0.210 C 
ENDBRANCH  23  28
ENDBRANCH   3  22
TORSDOF 9
ENDMDL
