MODEL 1
REMARK VINA RESULT:      -8.9      0.000      0.000
REMARK  6 active torsions:
REMARK  status: ('A' for Active; 'I' for Inactive)
REMARK    1  A    between atoms: O_2  and  C_3 
REMARK    2  A    between atoms: C_6  and  C_7 
REMARK    3  A    between atoms: C_7  and  N_8 
REMARK       I    between atoms: N_8  and  C_9 
REMARK    4  A    between atoms: C_9  and  C_10 
REMARK    5  A    between atoms: C_10  and  O_11 
REMARK    6  A    between atoms: N_12  and  C_13 
ROOT
HETATM    1  C   UNL     1     -43.508  56.509 -54.806  1.00  0.00     0.256 C 
HETATM    2  N   UNL     1     -43.427  57.538 -55.848  1.00  0.00    -0.248 N 
HETATM    3  C   UNL     1     -42.409  58.475 -55.820  1.00  0.00     0.330 C 
HETATM    4  O   UNL     1     -42.015  59.104 -56.803  1.00  0.00    -0.246 OA
HETATM    5  N   UNL     1     -41.781  58.681 -54.628  1.00  0.00    -0.308 N 
HETATM    6  C   UNL     1     -42.138  58.079 -53.428  1.00  0.00     0.048 A 
HETATM    7  C   UNL     1     -43.039  57.021 -53.456  1.00  0.00     0.034 A 
HETATM    8  C   UNL     1     -41.594  58.537 -52.228  1.00  0.00     0.030 A 
HETATM    9  C   UNL     1     -41.967  57.934 -51.028  1.00  0.00     0.002 A 
HETATM   10  C   UNL     1     -42.870  56.873 -51.033  1.00  0.00     0.001 A 
HETATM   11  C   UNL     1     -43.398  56.413 -52.241  1.00  0.00     0.015 A 
HETATM   12  H   UNL     1     -41.106  59.436 -54.635  1.00  0.00     0.170 HD
ENDROOT
BRANCH   1  13
HETATM   13  C   UNL     1     -42.675  55.206 -55.156  1.00  0.00     0.279 C 
HETATM   14  N   UNL     1     -41.346  55.159 -54.781  1.00  0.00    -0.352 N 
HETATM   15  H   UNL     1     -40.877  56.026 -54.555  1.00  0.00     0.162 HD
HETATM   16  O   UNL     1     -43.236  54.245 -55.695  1.00  0.00    -0.268 OA
BRANCH  14  17
HETATM   17  C   UNL     1     -40.526  54.064 -55.243  1.00  0.00     0.161 C 
BRANCH  17  18
HETATM   18  C   UNL     1     -40.280  53.037 -54.172  1.00  0.00    -0.040 A 
HETATM   19  C   UNL     1     -39.963  51.715 -54.515  1.00  0.00     0.011 A 
HETATM   20  C   UNL     1     -39.643  50.776 -53.529  1.00  0.00     0.037 A 
HETATM   21  C   UNL     1     -39.635  51.147 -52.185  1.00  0.00     0.068 A 
HETATM   22  C   UNL     1     -39.988  52.451 -51.835  1.00  0.00     0.037 A 
HETATM   23  C   UNL     1     -40.304  53.393 -52.818  1.00  0.00     0.011 A 
BRANCH  21  24
HETATM   24  O   UNL     1     -39.312  50.336 -51.132  1.00  0.00    -0.356 OA
HETATM   25  C   UNL     1     -40.261  50.263 -50.075  1.00  0.00     0.210 C 
ENDBRANCH  21  24
ENDBRANCH  17  18
ENDBRANCH  14  17
ENDBRANCH   1  13
BRANCH   1  26
HETATM   26  O   UNL     1     -44.889  56.161 -54.627  1.00  0.00    -0.359 OA
HETATM   27  H   UNL     1     -45.348  57.017 -54.514  1.00  0.00     0.213 HD
ENDBRANCH   1  26
BRANCH   2  28
HETATM   28  C   UNL     1     -44.338  57.529 -56.963  1.00  0.00     0.120 A 
HETATM   29  C   UNL     1     -45.535  58.256 -56.981  1.00  0.00     0.146 A 
HETATM   30  F   UNL     1     -45.927  58.963 -55.912  1.00  0.00    -0.204 F 
HETATM   31  C   UNL     1     -46.396  58.239 -58.081  1.00  0.00     0.045 A 
HETATM   32  C   UNL     1     -46.066  57.501 -59.213  1.00  0.00     0.006 A 
HETATM   33  C   UNL     1     -44.873  56.786 -59.236  1.00  0.00     0.045 A 
HETATM   34  C   UNL     1     -44.026  56.804 -58.125  1.00  0.00     0.146 A 
HETATM   35  F   UNL     1     -42.847  56.172 -58.241  1.00  0.00    -0.204 F 
ENDBRANCH   2  28
TORSDOF 6
ENDMDL
MODEL 2
REMARK VINA RESULT:      -8.8      2.802      7.317
REMARK  6 active torsions:
REMARK  status: ('A' for Active; 'I' for Inactive)
REMARK    1  A    between atoms: O_2  and  C_3 
REMARK    2  A    between atoms: C_6  and  C_7 
REMARK    3  A    between atoms: C_7  and  N_8 
REMARK       I    between atoms: N_8  and  C_9 
REMARK    4  A    between atoms: C_9  and  C_10 
REMARK    5  A    between atoms: C_10  and  O_11 
REMARK    6  A    between atoms: N_12  and  C_13 
ROOT
HETATM    1  C   UNL     1     -41.688  55.933 -53.789  1.00  0.00     0.256 C 
HETATM    2  N   UNL     1     -41.917  54.803 -52.883  1.00  0.00    -0.248 N 
HETATM    3  C   UNL     1     -42.884  54.891 -51.897  1.00  0.00     0.330 C 
HETATM    4  O   UNL     1     -43.424  53.921 -51.364  1.00  0.00    -0.246 OA
HETATM    5  N   UNL     1     -43.286  56.139 -51.523  1.00  0.00    -0.308 N 
HETATM    6  C   UNL     1     -42.743  57.324 -52.002  1.00  0.00     0.048 A 
HETATM    7  C   UNL     1     -41.895  57.271 -53.103  1.00  0.00     0.034 A 
HETATM    8  C   UNL     1     -43.052  58.535 -51.383  1.00  0.00     0.030 A 
HETATM    9  C   UNL     1     -42.493  59.718 -51.864  1.00  0.00     0.002 A 
HETATM   10  C   UNL     1     -41.640  59.687 -52.965  1.00  0.00     0.001 A 
HETATM   11  C   UNL     1     -41.348  58.472 -53.587  1.00  0.00     0.015 A 
HETATM   12  H   UNL     1     -43.927  56.156 -50.740  1.00  0.00     0.170 HD
ENDROOT
BRANCH   1  13
HETATM   13  C   UNL     1     -42.610  55.892 -55.079  1.00  0.00     0.279 C 
HETATM   14  N   UNL     1     -42.000  55.883 -56.318  1.00  0.00    -0.352 N 
HETATM   15  H   UNL     1     -41.034  56.174 -56.384  1.00  0.00     0.162 HD
HETATM   16  O   UNL     1     -43.837  55.810 -54.953  1.00  0.00    -0.268 OA
BRANCH  14  17
HETATM   17  C   UNL     1     -42.817  56.024 -57.501  1.00  0.00     0.161 C 
BRANCH  17  18
HETATM   18  C   UNL     1     -42.467  57.251 -58.299  1.00  0.00    -0.040 A 
HETATM   19  C   UNL     1     -42.341  57.179 -59.693  1.00  0.00     0.011 A 
HETATM   20  C   UNL     1     -42.106  58.330 -60.452  1.00  0.00     0.037 A 
HETATM   21  C   UNL     1     -41.994  59.571 -59.825  1.00  0.00     0.068 A 
HETATM   22  C   UNL     1     -42.080  59.643 -58.434  1.00  0.00     0.037 A 
HETATM   23  C   UNL     1     -42.319  58.495 -57.674  1.00  0.00     0.011 A 
BRANCH  21  24
HETATM   24  O   UNL     1     -41.796  60.770 -60.452  1.00  0.00    -0.356 OA
HETATM   25  C   UNL     1     -41.245  61.815 -59.660  1.00  0.00     0.210 C 
ENDBRANCH  21  24
ENDBRANCH  17  18
ENDBRANCH  14  17
ENDBRANCH   1  13
BRANCH   1  26
HETATM   26  O   UNL     1     -40.308  55.915 -54.187  1.00  0.00    -0.359 OA
HETATM   27  H   UNL     1     -40.190  55.054 -54.634  1.00  0.00     0.213 HD
ENDBRANCH   1  26
BRANCH   2  28
HETATM   28  C   UNL     1     -41.217  53.559 -53.067  1.00  0.00     0.120 A 
HETATM   29  C   UNL     1     -41.446  52.705 -54.153  1.00  0.00     0.146 A 
HETATM   30  F   UNL     1     -42.393  52.983 -55.061  1.00  0.00    -0.204 F 
HETATM   31  C   UNL     1     -40.744  51.507 -54.314  1.00  0.00     0.045 A 
HETATM   32  C   UNL     1     -39.769  51.141 -53.393  1.00  0.00     0.006 A 
HETATM   33  C   UNL     1     -39.502  51.979 -52.315  1.00  0.00     0.045 A 
HETATM   34  C   UNL     1     -40.218  53.168 -52.160  1.00  0.00     0.146 A 
HETATM   35  F   UNL     1     -39.852  53.980 -51.155  1.00  0.00    -0.204 F 
ENDBRANCH   2  28
TORSDOF 6
ENDMDL
MODEL 3
REMARK VINA RESULT:      -8.6      2.276      3.202
REMARK  6 active torsions:
REMARK  status: ('A' for Active; 'I' for Inactive)
REMARK    1  A    between atoms: O_2  and  C_3 
REMARK    2  A    between atoms: C_6  and  C_7 
REMARK    3  A    between atoms: C_7  and  N_8 
REMARK       I    between atoms: N_8  and  C_9 
REMARK    4  A    between atoms: C_9  and  C_10 
REMARK    5  A    between atoms: C_10  and  O_11 
REMARK    6  A    between atoms: N_12  and  C_13 
ROOT
HETATM    1  C   UNL     1     -43.686  57.874 -52.970  1.00  0.00     0.256 C 
HETATM    2  N   UNL     1     -43.060  58.400 -54.188  1.00  0.00    -0.248 N 
HETATM    3  C   UNL     1     -42.300  59.555 -54.134  1.00  0.00     0.330 C 
HETATM    4  O   UNL     1     -41.436  59.858 -54.956  1.00  0.00    -0.246 OA
HETATM    5  N   UNL     1     -42.503  60.389 -53.074  1.00  0.00    -0.308 N 
HETATM    6  C   UNL     1     -43.466  60.203 -52.091  1.00  0.00     0.048 A 
HETATM    7  C   UNL     1     -44.125  58.980 -52.027  1.00  0.00     0.034 A 
HETATM    8  C   UNL     1     -43.755  61.230 -51.192  1.00  0.00     0.030 A 
HETATM    9  C   UNL     1     -44.731  61.037 -50.216  1.00  0.00     0.002 A 
HETATM   10  C   UNL     1     -45.405  59.821 -50.135  1.00  0.00     0.001 A 
HETATM   11  C   UNL     1     -45.099  58.794 -51.031  1.00  0.00     0.015 A 
HETATM   12  H   UNL     1     -41.991  61.260 -53.124  1.00  0.00     0.170 HD
ENDROOT
BRANCH   1  13
HETATM   13  C   UNL     1     -42.743  56.886 -52.164  1.00  0.00     0.279 C 
HETATM   14  N   UNL     1     -43.148  55.573 -52.016  1.00  0.00    -0.352 N 
HETATM   15  H   UNL     1     -44.121  55.346 -52.171  1.00  0.00     0.162 HD
HETATM   16  O   UNL     1     -41.652  57.285 -51.742  1.00  0.00    -0.268 OA
BRANCH  14  17
HETATM   17  C   UNL     1     -42.397  54.704 -51.140  1.00  0.00     0.161 C 
BRANCH  17  18
HETATM   18  C   UNL     1     -41.588  53.685 -51.895  1.00  0.00    -0.040 A 
HETATM   19  C   UNL     1     -41.753  53.532 -53.279  1.00  0.00     0.011 A 
HETATM   20  C   UNL     1     -40.942  52.652 -54.004  1.00  0.00     0.037 A 
HETATM   21  C   UNL     1     -39.954  51.913 -53.353  1.00  0.00     0.068 A 
HETATM   22  C   UNL     1     -39.813  52.032 -51.971  1.00  0.00     0.037 A 
HETATM   23  C   UNL     1     -40.619  52.913 -51.244  1.00  0.00     0.011 A 
BRANCH  21  24
HETATM   24  O   UNL     1     -39.080  51.046 -53.949  1.00  0.00    -0.356 OA
HETATM   25  C   UNL     1     -39.606  49.781 -54.333  1.00  0.00     0.210 C 
ENDBRANCH  21  24
ENDBRANCH  17  18
ENDBRANCH  14  17
ENDBRANCH   1  13
BRANCH   1  26
HETATM   26  O   UNL     1     -44.890  57.188 -53.346  1.00  0.00    -0.359 OA
HETATM   27  H   UNL     1     -44.608  56.269 -53.517  1.00  0.00     0.213 HD
ENDBRANCH   1  26
BRANCH   2  28
HETATM   28  C   UNL     1     -43.140  57.674 -55.428  1.00  0.00     0.120 A 
HETATM   29  C   UNL     1     -42.323  56.576 -55.728  1.00  0.00     0.146 A 
HETATM   30  F   UNL     1     -41.365  56.179 -54.879  1.00  0.00    -0.204 F 
HETATM   31  C   UNL     1     -42.430  55.881 -56.935  1.00  0.00     0.045 A 
HETATM   32  C   UNL     1     -43.383  56.259 -57.875  1.00  0.00     0.006 A 
HETATM   33  C   UNL     1     -44.226  57.331 -57.598  1.00  0.00     0.045 A 
HETATM   34  C   UNL     1     -44.102  58.023 -56.391  1.00  0.00     0.146 A 
HETATM   35  F   UNL     1     -45.002  58.987 -56.140  1.00  0.00    -0.204 F 
ENDBRANCH   2  28
TORSDOF 6
ENDMDL
MODEL 4
REMARK VINA RESULT:      -8.6      2.085      2.839
REMARK  6 active torsions:
REMARK  status: ('A' for Active; 'I' for Inactive)
REMARK    1  A    between atoms: O_2  and  C_3 
REMARK    2  A    between atoms: C_6  and  C_7 
REMARK    3  A    between atoms: C_7  and  N_8 
REMARK       I    between atoms: N_8  and  C_9 
REMARK    4  A    between atoms: C_9  and  C_10 
REMARK    5  A    between atoms: C_10  and  O_11 
REMARK    6  A    between atoms: N_12  and  C_13 
ROOT
HETATM    1  C   UNL     1     -43.657  57.284 -55.452  1.00  0.00     0.256 C 
HETATM    2  N   UNL     1     -43.468  57.799 -56.812  1.00  0.00    -0.248 N 
HETATM    3  C   UNL     1     -42.519  58.776 -57.058  1.00  0.00     0.330 C 
HETATM    4  O   UNL     1     -42.010  58.989 -58.158  1.00  0.00    -0.246 OA
HETATM    5  N   UNL     1     -42.100  59.523 -55.996  1.00  0.00    -0.308 N 
HETATM    6  C   UNL     1     -42.609  59.426 -54.708  1.00  0.00     0.048 A 
HETATM    7  C   UNL     1     -43.436  58.353 -54.397  1.00  0.00     0.034 A 
HETATM    8  C   UNL     1     -42.288  60.394 -53.756  1.00  0.00     0.030 A 
HETATM    9  C   UNL     1     -42.813  60.295 -52.469  1.00  0.00     0.002 A 
HETATM   10  C   UNL     1     -43.645  59.228 -52.136  1.00  0.00     0.001 A 
HETATM   11  C   UNL     1     -43.949  58.257 -53.092  1.00  0.00     0.015 A 
HETATM   12  H   UNL     1     -41.475  60.280 -56.239  1.00  0.00     0.170 HD
ENDROOT
BRANCH   1  13
HETATM   13  C   UNL     1     -42.710  56.057 -55.116  1.00  0.00     0.279 C 
HETATM   14  N   UNL     1     -43.293  54.878 -54.693  1.00  0.00    -0.352 N 
HETATM   15  H   UNL     1     -44.245  54.904 -54.351  1.00  0.00     0.162 HD
HETATM   16  O   UNL     1     -41.490  56.156 -55.293  1.00  0.00    -0.268 OA
BRANCH  14  17
HETATM   17  C   UNL     1     -42.447  53.810 -54.214  1.00  0.00     0.161 C 
BRANCH  17  18
HETATM   18  C   UNL     1     -42.172  53.911 -52.739  1.00  0.00    -0.040 A 
HETATM   19  C   UNL     1     -40.895  53.628 -52.234  1.00  0.00     0.011 A 
HETATM   20  C   UNL     1     -40.605  53.807 -50.877  1.00  0.00     0.037 A 
HETATM   21  C   UNL     1     -41.590  54.272 -50.006  1.00  0.00     0.068 A 
HETATM   22  C   UNL     1     -42.873  54.517 -50.496  1.00  0.00     0.037 A 
HETATM   23  C   UNL     1     -43.165  54.343 -51.852  1.00  0.00     0.011 A 
BRANCH  21  24
HETATM   24  O   UNL     1     -41.428  54.516 -48.670  1.00  0.00    -0.356 OA
HETATM   25  C   UNL     1     -40.300  53.911 -48.049  1.00  0.00     0.210 C 
ENDBRANCH  21  24
ENDBRANCH  17  18
ENDBRANCH  14  17
ENDBRANCH   1  13
BRANCH   1  26
HETATM   26  O   UNL     1     -45.028  56.883 -55.311  1.00  0.00    -0.359 OA
HETATM   27  H   UNL     1     -45.005  56.132 -54.687  1.00  0.00     0.213 HD
ENDBRANCH   1  26
BRANCH   2  28
HETATM   28  C   UNL     1     -44.189  57.230 -57.920  1.00  0.00     0.120 A 
HETATM   29  C   UNL     1     -43.770  56.078 -58.596  1.00  0.00     0.146 A 
HETATM   30  F   UNL     1     -42.619  55.471 -58.275  1.00  0.00    -0.204 F 
HETATM   31  C   UNL     1     -44.495  55.539 -59.663  1.00  0.00     0.045 A 
HETATM   32  C   UNL     1     -45.684  56.136 -60.070  1.00  0.00     0.006 A 
HETATM   33  C   UNL     1     -46.140  57.270 -59.404  1.00  0.00     0.045 A 
HETATM   34  C   UNL     1     -45.400  57.804 -58.346  1.00  0.00     0.146 A 
HETATM   35  F   UNL     1     -45.936  58.840 -57.682  1.00  0.00    -0.204 F 
ENDBRANCH   2  28
TORSDOF 6
ENDMDL
MODEL 5
REMARK VINA RESULT:      -8.4      2.638      6.615
REMARK  6 active torsions:
REMARK  status: ('A' for Active; 'I' for Inactive)
REMARK    1  A    between atoms: O_2  and  C_3 
REMARK    2  A    between atoms: C_6  and  C_7 
REMARK    3  A    between atoms: C_7  and  N_8 
REMARK       I    between atoms: N_8  and  C_9 
REMARK    4  A    between atoms: C_9  and  C_10 
REMARK    5  A    between atoms: C_10  and  O_11 
REMARK    6  A    between atoms: N_12  and  C_13 
ROOT
HETATM    1  C   UNL     1     -42.070  57.759 -52.871  1.00  0.00     0.256 C 
HETATM    2  N   UNL     1     -42.586  56.436 -53.238  1.00  0.00    -0.248 N 
HETATM    3  C   UNL     1     -43.943  56.252 -53.437  1.00  0.00     0.330 C 
HETATM    4  O   UNL     1     -44.431  55.341 -54.106  1.00  0.00    -0.246 OA
HETATM    5  N   UNL     1     -44.787  57.167 -52.880  1.00  0.00    -0.308 N 
HETATM    6  C   UNL     1     -44.390  58.222 -52.069  1.00  0.00     0.048 A 
HETATM    7  C   UNL     1     -43.036  58.527 -51.988  1.00  0.00     0.034 A 
HETATM    8  C   UNL     1     -45.342  58.951 -51.356  1.00  0.00     0.030 A 
HETATM    9  C   UNL     1     -44.933  60.001 -50.535  1.00  0.00     0.002 A 
HETATM   10  C   UNL     1     -43.581  60.323 -50.438  1.00  0.00     0.001 A 
HETATM   11  C   UNL     1     -42.637  59.596 -51.166  1.00  0.00     0.015 A 
HETATM   12  H   UNL     1     -45.769  56.943 -52.976  1.00  0.00     0.170 HD
ENDROOT
BRANCH   1  13
HETATM   13  C   UNL     1     -41.727  58.662 -54.128  1.00  0.00     0.279 C 
HETATM   14  N   UNL     1     -42.616  58.675 -55.186  1.00  0.00    -0.352 N 
HETATM   15  H   UNL     1     -43.294  57.927 -55.257  1.00  0.00     0.162 HD
HETATM   16  O   UNL     1     -40.717  59.375 -54.115  1.00  0.00    -0.268 OA
BRANCH  14  17
HETATM   17  C   UNL     1     -42.240  59.346 -56.408  1.00  0.00     0.161 C 
BRANCH  17  18
HETATM   18  C   UNL     1     -42.629  58.568 -57.636  1.00  0.00    -0.040 A 
HETATM   19  C   UNL     1     -41.853  58.647 -58.801  1.00  0.00     0.011 A 
HETATM   20  C   UNL     1     -42.155  57.859 -59.917  1.00  0.00     0.037 A 
HETATM   21  C   UNL     1     -43.237  56.980 -59.881  1.00  0.00     0.068 A 
HETATM   22  C   UNL     1     -44.035  56.927 -58.738  1.00  0.00     0.037 A 
HETATM   23  C   UNL     1     -43.734  57.710 -57.621  1.00  0.00     0.011 A 
BRANCH  21  24
HETATM   24  O   UNL     1     -43.617  56.136 -60.889  1.00  0.00    -0.356 OA
HETATM   25  C   UNL     1     -44.796  55.373 -60.664  1.00  0.00     0.210 C 
ENDBRANCH  21  24
ENDBRANCH  17  18
ENDBRANCH  14  17
ENDBRANCH   1  13
BRANCH   1  26
HETATM   26  O   UNL     1     -40.888  57.574 -52.078  1.00  0.00    -0.359 OA
HETATM   27  H   UNL     1     -41.220  57.365 -51.183  1.00  0.00     0.213 HD
ENDBRANCH   1  26
BRANCH   2  28
HETATM   28  C   UNL     1     -41.687  55.342 -53.496  1.00  0.00     0.120 A 
HETATM   29  C   UNL     1     -41.344  54.389 -52.528  1.00  0.00     0.146 A 
HETATM   30  F   UNL     1     -41.799  54.487 -51.272  1.00  0.00    -0.204 F 
HETATM   31  C   UNL     1     -40.477  53.328 -52.808  1.00  0.00     0.045 A 
HETATM   32  C   UNL     1     -39.943  53.182 -54.084  1.00  0.00     0.006 A 
HETATM   33  C   UNL     1     -40.282  54.100 -55.074  1.00  0.00     0.045 A 
HETATM   34  C   UNL     1     -41.142  55.160 -54.778  1.00  0.00     0.146 A 
HETATM   35  F   UNL     1     -41.507  55.958 -55.795  1.00  0.00    -0.204 F 
ENDBRANCH   2  28
TORSDOF 6
ENDMDL
MODEL 6
REMARK VINA RESULT:      -8.2      2.347      3.197
REMARK  6 active torsions:
REMARK  status: ('A' for Active; 'I' for Inactive)
REMARK    1  A    between atoms: O_2  and  C_3 
REMARK    2  A    between atoms: C_6  and  C_7 
REMARK    3  A    between atoms: C_7  and  N_8 
REMARK       I    between atoms: N_8  and  C_9 
REMARK    4  A    between atoms: C_9  and  C_10 
REMARK    5  A    between atoms: C_10  and  O_11 
REMARK    6  A    between atoms: N_12  and  C_13 
ROOT
HETATM    1  C   UNL     1     -44.126  58.283 -54.255  1.00  0.00     0.256 C 
HETATM    2  N   UNL     1     -43.394  58.578 -55.491  1.00  0.00    -0.248 N 
HETATM    3  C   UNL     1     -42.534  59.661 -55.545  1.00  0.00     0.330 C 
HETATM    4  O   UNL     1     -41.606  59.773 -56.346  1.00  0.00    -0.246 OA
HETATM    5  N   UNL     1     -42.712  60.649 -54.622  1.00  0.00    -0.308 N 
HETATM    6  C   UNL     1     -43.736  60.684 -53.685  1.00  0.00     0.048 A 
HETATM    7  C   UNL     1     -44.508  59.543 -53.499  1.00  0.00     0.034 A 
HETATM    8  C   UNL     1     -43.973  61.847 -52.952  1.00  0.00     0.030 A 
HETATM    9  C   UNL     1     -45.010  61.876 -52.022  1.00  0.00     0.002 A 
HETATM   10  C   UNL     1     -45.797  60.744 -51.820  1.00  0.00     0.001 A 
HETATM   11  C   UNL     1     -45.543  59.580 -52.549  1.00  0.00     0.015 A 
HETATM   12  H   UNL     1     -42.120  61.458 -54.756  1.00  0.00     0.170 HD
ENDROOT
BRANCH   1  13
HETATM   13  C   UNL     1     -43.321  57.340 -53.267  1.00  0.00     0.279 C 
HETATM   14  N   UNL     1     -43.817  56.074 -53.023  1.00  0.00    -0.352 N 
HETATM   15  H   UNL     1     -44.785  55.882 -53.245  1.00  0.00     0.162 HD
HETATM   16  O   UNL     1     -42.249  57.725 -52.787  1.00  0.00    -0.268 OA
BRANCH  14  17
HETATM   17  C   UNL     1     -43.201  55.266 -51.995  1.00  0.00     0.161 C 
BRANCH  17  18
HETATM   18  C   UNL     1     -42.185  54.305 -52.549  1.00  0.00    -0.040 A 
HETATM   19  C   UNL     1     -41.116  53.867 -51.756  1.00  0.00     0.011 A 
HETATM   20  C   UNL     1     -40.219  52.905 -52.231  1.00  0.00     0.037 A 
HETATM   21  C   UNL     1     -40.380  52.366 -53.507  1.00  0.00     0.068 A 
HETATM   22  C   UNL     1     -41.419  52.827 -54.315  1.00  0.00     0.037 A 
HETATM   23  C   UNL     1     -42.320  53.786 -53.842  1.00  0.00     0.011 A 
BRANCH  21  24
HETATM   24  O   UNL     1     -39.594  51.401 -54.074  1.00  0.00    -0.356 OA
HETATM   25  C   UNL     1     -40.217  50.150 -54.335  1.00  0.00     0.210 C 
ENDBRANCH  21  24
ENDBRANCH  17  18
ENDBRANCH  14  17
ENDBRANCH   1  13
BRANCH   1  26
HETATM   26  O   UNL     1     -45.368  57.656 -54.610  1.00  0.00    -0.359 OA
HETATM   27  H   UNL     1     -46.057  58.264 -54.277  1.00  0.00     0.213 HD
ENDBRANCH   1  26
BRANCH   2  28
HETATM   28  C   UNL     1     -43.479  57.696 -56.625  1.00  0.00     0.120 A 
HETATM   29  C   UNL     1     -42.714  56.530 -56.747  1.00  0.00     0.146 A 
HETATM   30  F   UNL     1     -41.801  56.204 -55.822  1.00  0.00    -0.204 F 
HETATM   31  C   UNL     1     -42.825  55.683 -57.854  1.00  0.00     0.045 A 
HETATM   32  C   UNL     1     -43.731  55.977 -58.868  1.00  0.00     0.006 A 
HETATM   33  C   UNL     1     -44.522  57.116 -58.766  1.00  0.00     0.045 A 
HETATM   34  C   UNL     1     -44.394  57.959 -57.659  1.00  0.00     0.146 A 
HETATM   35  F   UNL     1     -45.249  58.990 -57.569  1.00  0.00    -0.204 F 
ENDBRANCH   2  28
TORSDOF 6
ENDMDL
MODEL 7
REMARK VINA RESULT:      -8.2      3.105      7.319
REMARK  6 active torsions:
REMARK  status: ('A' for Active; 'I' for Inactive)
REMARK    1  A    between atoms: O_2  and  C_3 
REMARK    2  A    between atoms: C_6  and  C_7 
REMARK    3  A    between atoms: C_7  and  N_8 
REMARK       I    between atoms: N_8  and  C_9 
REMARK    4  A    between atoms: C_9  and  C_10 
REMARK    5  A    between atoms: C_10  and  O_11 
REMARK    6  A    between atoms: N_12  and  C_13 
ROOT
HETATM    1  C   UNL     1     -42.731  56.839 -53.046  1.00  0.00     0.256 C 
HETATM    2  N   UNL     1     -42.935  56.125 -51.781  1.00  0.00    -0.248 N 
HETATM    3  C   UNL     1     -44.139  56.235 -51.109  1.00  0.00     0.330 C 
HETATM    4  O   UNL     1     -44.560  55.413 -50.295  1.00  0.00    -0.246 OA
HETATM    5  N   UNL     1     -44.924  57.312 -51.402  1.00  0.00    -0.308 N 
HETATM    6  C   UNL     1     -44.569  58.340 -52.265  1.00  0.00     0.048 A 
HETATM    7  C   UNL     1     -43.449  58.176 -53.072  1.00  0.00     0.034 A 
HETATM    8  C   UNL     1     -45.331  59.508 -52.309  1.00  0.00     0.030 A 
HETATM    9  C   UNL     1     -44.960  60.540 -53.170  1.00  0.00     0.002 A 
HETATM   10  C   UNL     1     -43.840  60.397 -53.987  1.00  0.00     0.001 A 
HETATM   11  C   UNL     1     -43.093  59.219 -53.945  1.00  0.00     0.015 A 
HETATM   12  H   UNL     1     -45.750  57.397 -50.824  1.00  0.00     0.170 HD
ENDROOT
BRANCH   1  13
HETATM   13  C   UNL     1     -43.196  56.005 -54.312  1.00  0.00     0.279 C 
HETATM   14  N   UNL     1     -42.277  55.780 -55.319  1.00  0.00    -0.352 N 
HETATM   15  H   UNL     1     -41.451  56.363 -55.360  1.00  0.00     0.162 HD
HETATM   16  O   UNL     1     -44.335  55.526 -54.347  1.00  0.00    -0.268 OA
BRANCH  14  17
HETATM   17  C   UNL     1     -42.725  55.180 -56.554  1.00  0.00     0.161 C 
BRANCH  17  18
HETATM   18  C   UNL     1     -42.784  56.168 -57.687  1.00  0.00    -0.040 A 
HETATM   19  C   UNL     1     -43.184  55.757 -58.966  1.00  0.00     0.011 A 
HETATM   20  C   UNL     1     -43.328  56.684 -60.003  1.00  0.00     0.037 A 
HETATM   21  C   UNL     1     -43.076  58.036 -59.774  1.00  0.00     0.068 A 
HETATM   22  C   UNL     1     -42.641  58.444 -58.513  1.00  0.00     0.037 A 
HETATM   23  C   UNL     1     -42.499  57.521 -57.473  1.00  0.00     0.011 A 
BRANCH  21  24
HETATM   24  O   UNL     1     -43.210  59.043 -60.690  1.00  0.00    -0.356 OA
HETATM   25  C   UNL     1     -42.017  59.724 -61.060  1.00  0.00     0.210 C 
ENDBRANCH  21  24
ENDBRANCH  17  18
ENDBRANCH  14  17
ENDBRANCH   1  13
BRANCH   1  26
HETATM   26  O   UNL     1     -41.334  57.151 -53.164  1.00  0.00    -0.359 OA
HETATM   27  H   UNL     1     -40.977  56.466 -53.762  1.00  0.00     0.213 HD
ENDBRANCH   1  26
BRANCH   2  28
HETATM   28  C   UNL     1     -41.932  55.226 -51.274  1.00  0.00     0.120 A 
HETATM   29  C   UNL     1     -41.709  53.949 -51.805  1.00  0.00     0.146 A 
HETATM   30  F   UNL     1     -42.477  53.470 -52.793  1.00  0.00    -0.204 F 
HETATM   31  C   UNL     1     -40.720  53.100 -51.302  1.00  0.00     0.045 A 
HETATM   32  C   UNL     1     -39.905  53.520 -50.256  1.00  0.00     0.006 A 
HETATM   33  C   UNL     1     -40.086  54.792 -49.721  1.00  0.00     0.045 A 
HETATM   34  C   UNL     1     -41.085  55.627 -50.227  1.00  0.00     0.146 A 
HETATM   35  F   UNL     1     -41.150  56.875 -49.736  1.00  0.00    -0.204 F 
ENDBRANCH   2  28
TORSDOF 6
ENDMDL
MODEL 8
REMARK VINA RESULT:      -8.1      2.312      2.795
REMARK  6 active torsions:
REMARK  status: ('A' for Active; 'I' for Inactive)
REMARK    1  A    between atoms: O_2  and  C_3 
REMARK    2  A    between atoms: C_6  and  C_7 
REMARK    3  A    between atoms: C_7  and  N_8 
REMARK       I    between atoms: N_8  and  C_9 
REMARK    4  A    between atoms: C_9  and  C_10 
REMARK    5  A    between atoms: C_10  and  O_11 
REMARK    6  A    between atoms: N_12  and  C_13 
ROOT
HETATM    1  C   UNL     1     -44.132  57.579 -55.740  1.00  0.00     0.256 C 
HETATM    2  N   UNL     1     -44.031  58.038 -57.129  1.00  0.00    -0.248 N 
HETATM    3  C   UNL     1     -43.156  59.058 -57.460  1.00  0.00     0.330 C 
HETATM    4  O   UNL     1     -42.705  59.248 -58.590  1.00  0.00    -0.246 OA
HETATM    5  N   UNL     1     -42.741  59.879 -56.454  1.00  0.00    -0.308 N 
HETATM    6  C   UNL     1     -43.191  59.815 -55.142  1.00  0.00     0.048 A 
HETATM    7  C   UNL     1     -43.936  58.710 -54.746  1.00  0.00     0.034 A 
HETATM    8  C   UNL     1     -42.893  60.846 -54.250  1.00  0.00     0.030 A 
HETATM    9  C   UNL     1     -43.359  60.778 -52.938  1.00  0.00     0.002 A 
HETATM   10  C   UNL     1     -44.108  59.680 -52.521  1.00  0.00     0.001 A 
HETATM   11  C   UNL     1     -44.389  58.647 -53.417  1.00  0.00     0.015 A 
HETATM   12  H   UNL     1     -42.175  60.660 -56.758  1.00  0.00     0.170 HD
ENDROOT
BRANCH   1  13
HETATM   13  C   UNL     1     -43.098  56.430 -55.389  1.00  0.00     0.279 C 
HETATM   14  N   UNL     1     -43.594  55.200 -55.002  1.00  0.00    -0.352 N 
HETATM   15  H   UNL     1     -44.555  55.142 -54.691  1.00  0.00     0.162 HD
HETATM   16  O   UNL     1     -41.886  56.632 -55.524  1.00  0.00    -0.268 OA
BRANCH  14  17
HETATM   17  C   UNL     1     -42.678  54.198 -54.510  1.00  0.00     0.161 C 
BRANCH  17  18
HETATM   18  C   UNL     1     -42.410  54.337 -53.036  1.00  0.00    -0.040 A 
HETATM   19  C   UNL     1     -43.457  54.625 -52.149  1.00  0.00     0.011 A 
HETATM   20  C   UNL     1     -43.235  54.667 -50.768  1.00  0.00     0.037 A 
HETATM   21  C   UNL     1     -41.962  54.420 -50.256  1.00  0.00     0.068 A 
HETATM   22  C   UNL     1     -40.909  54.172 -51.137  1.00  0.00     0.037 A 
HETATM   23  C   UNL     1     -41.128  54.125 -52.516  1.00  0.00     0.011 A 
BRANCH  21  24
HETATM   24  O   UNL     1     -41.621  54.400 -48.931  1.00  0.00    -0.356 OA
HETATM   25  C   UNL     1     -40.526  53.567 -48.572  1.00  0.00     0.210 C 
ENDBRANCH  21  24
ENDBRANCH  17  18
ENDBRANCH  14  17
ENDBRANCH   1  13
BRANCH   1  26
HETATM   26  O   UNL     1     -45.469  57.103 -55.522  1.00  0.00    -0.359 OA
HETATM   27  H   UNL     1     -45.766  56.787 -56.397  1.00  0.00     0.213 HD
ENDBRANCH   1  26
BRANCH   2  28
HETATM   28  C   UNL     1     -44.759  57.374 -58.178  1.00  0.00     0.120 A 
HETATM   29  C   UNL     1     -46.021  57.793 -58.619  1.00  0.00     0.146 A 
HETATM   30  F   UNL     1     -46.651  58.820 -58.031  1.00  0.00    -0.204 F 
HETATM   31  C   UNL     1     -46.701  57.136 -59.648  1.00  0.00     0.045 A 
HETATM   32  C   UNL     1     -46.120  56.043 -60.283  1.00  0.00     0.006 A 
HETATM   33  C   UNL     1     -44.858  55.616 -59.883  1.00  0.00     0.045 A 
HETATM   34  C   UNL     1     -44.193  56.275 -58.846  1.00  0.00     0.146 A 
HETATM   35  F   UNL     1     -42.941  55.878 -58.568  1.00  0.00    -0.204 F 
ENDBRANCH   2  28
TORSDOF 6
ENDMDL
MODEL 9
REMARK VINA RESULT:      -8.0      2.904      5.257
REMARK  6 active torsions:
REMARK  status: ('A' for Active; 'I' for Inactive)
REMARK    1  A    between atoms: O_2  and  C_3 
REMARK    2  A    between atoms: C_6  and  C_7 
REMARK    3  A    between atoms: C_7  and  N_8 
REMARK       I    between atoms: N_8  and  C_9 
REMARK    4  A    between atoms: C_9  and  C_10 
REMARK    5  A    between atoms: C_10  and  O_11 
REMARK    6  A    between atoms: N_12  and  C_13 
ROOT
HETATM    1  C   UNL     1     -43.116  57.849 -58.443  1.00  0.00     0.256 C 
HETATM    2  N   UNL     1     -43.512  59.184 -58.906  1.00  0.00    -0.248 N 
HETATM    3  C   UNL     1     -44.829  59.437 -59.246  1.00  0.00     0.330 C 
HETATM    4  O   UNL     1     -45.341  60.556 -59.259  1.00  0.00    -0.246 OA
HETATM    5  N   UNL     1     -45.615  58.364 -59.550  1.00  0.00    -0.308 N 
HETATM    6  C   UNL     1     -45.171  57.050 -59.618  1.00  0.00     0.048 A 
HETATM    7  C   UNL     1     -43.907  56.747 -59.125  1.00  0.00     0.034 A 
HETATM    8  C   UNL     1     -45.989  56.065 -60.170  1.00  0.00     0.030 A 
HETATM    9  C   UNL     1     -45.531  54.750 -60.244  1.00  0.00     0.002 A 
HETATM   10  C   UNL     1     -44.267  54.425 -59.757  1.00  0.00     0.001 A 
HETATM   11  C   UNL     1     -43.461  55.416 -59.193  1.00  0.00     0.015 A 
HETATM   12  H   UNL     1     -46.541  58.604 -59.878  1.00  0.00     0.170 HD
ENDROOT
BRANCH   1  13
HETATM   13  C   UNL     1     -43.266  57.666 -56.875  1.00  0.00     0.279 C 
HETATM   14  N   UNL     1     -42.210  57.111 -56.178  1.00  0.00    -0.352 N 
HETATM   15  H   UNL     1     -41.508  56.597 -56.693  1.00  0.00     0.162 HD
HETATM   16  O   UNL     1     -44.285  58.072 -56.304  1.00  0.00    -0.268 OA
BRANCH  14  17
HETATM   17  C   UNL     1     -42.391  56.773 -54.786  1.00  0.00     0.161 C 
BRANCH  17  18
HETATM   18  C   UNL     1     -41.769  55.450 -54.429  1.00  0.00    -0.040 A 
HETATM   19  C   UNL     1     -40.902  54.809 -55.325  1.00  0.00     0.011 A 
HETATM   20  C   UNL     1     -40.249  53.625 -54.967  1.00  0.00     0.037 A 
HETATM   21  C   UNL     1     -40.452  53.068 -53.705  1.00  0.00     0.068 A 
HETATM   22  C   UNL     1     -41.344  53.681 -52.824  1.00  0.00     0.037 A 
HETATM   23  C   UNL     1     -41.995  54.865 -53.178  1.00  0.00     0.011 A 
BRANCH  21  24
HETATM   24  O   UNL     1     -39.853  51.936 -53.223  1.00  0.00    -0.356 OA
HETATM   25  C   UNL     1     -39.885  50.794 -54.070  1.00  0.00     0.210 C 
ENDBRANCH  21  24
ENDBRANCH  17  18
ENDBRANCH  14  17
ENDBRANCH   1  13
BRANCH   1  26
HETATM   26  O   UNL     1     -41.748  57.632 -58.822  1.00  0.00    -0.359 OA
HETATM   27  H   UNL     1     -41.426  58.510 -59.103  1.00  0.00     0.213 HD
ENDBRANCH   1  26
BRANCH   2  28
HETATM   28  C   UNL     1     -42.566  60.269 -58.916  1.00  0.00     0.120 A 
HETATM   29  C   UNL     1     -42.208  60.984 -57.766  1.00  0.00     0.146 A 
HETATM   30  F   UNL     1     -42.788  60.726 -56.586  1.00  0.00    -0.204 F 
HETATM   31  C   UNL     1     -41.278  62.026 -57.802  1.00  0.00     0.045 A 
HETATM   32  C   UNL     1     -40.660  62.369 -59.000  1.00  0.00     0.006 A 
HETATM   33  C   UNL     1     -40.977  61.662 -60.157  1.00  0.00     0.045 A 
HETATM   34  C   UNL     1     -41.916  60.629 -60.109  1.00  0.00     0.146 A 
HETATM   35  F   UNL     1     -42.111  59.923 -61.234  1.00  0.00    -0.204 F 
ENDBRANCH   2  28
TORSDOF 6
ENDMDL
MODEL 10
REMARK VINA RESULT:      -7.9      3.098      6.425
REMARK  6 active torsions:
REMARK  status: ('A' for Active; 'I' for Inactive)
REMARK    1  A    between atoms: O_2  and  C_3 
REMARK    2  A    between atoms: C_6  and  C_7 
REMARK    3  A    between atoms: C_7  and  N_8 
REMARK       I    between atoms: N_8  and  C_9 
REMARK    4  A    between atoms: C_9  and  C_10 
REMARK    5  A    between atoms: C_10  and  O_11 
REMARK    6  A    between atoms: N_12  and  C_13 
ROOT
HETATM    1  C   UNL     1     -43.028  56.983 -52.474  1.00  0.00     0.256 C 
HETATM    2  N   UNL     1     -43.125  58.286 -51.809  1.00  0.00    -0.248 N 
HETATM    3  C   UNL     1     -42.109  58.714 -50.972  1.00  0.00     0.330 C 
HETATM    4  O   UNL     1     -41.891  59.892 -50.690  1.00  0.00    -0.246 OA
HETATM    5  N   UNL     1     -41.277  57.763 -50.459  1.00  0.00    -0.308 N 
HETATM    6  C   UNL     1     -41.421  56.395 -50.654  1.00  0.00     0.048 A 
HETATM    7  C   UNL     1     -42.323  55.950 -51.614  1.00  0.00     0.034 A 
HETATM    8  C   UNL     1     -40.669  55.499 -49.894  1.00  0.00     0.030 A 
HETATM    9  C   UNL     1     -40.829  54.128 -50.089  1.00  0.00     0.002 A 
HETATM   10  C   UNL     1     -41.728  53.660 -51.045  1.00  0.00     0.001 A 
HETATM   11  C   UNL     1     -42.466  54.565 -51.810  1.00  0.00     0.015 A 
HETATM   12  H   UNL     1     -40.609  58.111 -49.785  1.00  0.00     0.170 HD
ENDROOT
BRANCH   1  13
HETATM   13  C   UNL     1     -42.283  57.053 -53.872  1.00  0.00     0.279 C 
HETATM   14  N   UNL     1     -43.033  56.897 -55.021  1.00  0.00    -0.352 N 
HETATM   15  H   UNL     1     -43.951  56.479 -54.947  1.00  0.00     0.162 HD
HETATM   16  O   UNL     1     -41.072  57.302 -53.910  1.00  0.00    -0.268 OA
BRANCH  14  17
HETATM   17  C   UNL     1     -42.354  56.780 -56.290  1.00  0.00     0.161 C 
BRANCH  17  18
HETATM   18  C   UNL     1     -43.306  56.575 -57.437  1.00  0.00    -0.040 A 
HETATM   19  C   UNL     1     -44.303  57.523 -57.709  1.00  0.00     0.011 A 
HETATM   20  C   UNL     1     -45.134  57.387 -58.826  1.00  0.00     0.037 A 
HETATM   21  C   UNL     1     -44.979  56.302 -59.687  1.00  0.00     0.068 A 
HETATM   22  C   UNL     1     -44.014  55.335 -59.399  1.00  0.00     0.037 A 
HETATM   23  C   UNL     1     -43.180  55.470 -58.286  1.00  0.00     0.011 A 
BRANCH  21  24
HETATM   24  O   UNL     1     -45.703  56.071 -60.824  1.00  0.00    -0.356 OA
HETATM   25  C   UNL     1     -47.102  56.318 -60.744  1.00  0.00     0.210 C 
ENDBRANCH  21  24
ENDBRANCH  17  18
ENDBRANCH  14  17
ENDBRANCH   1  13
BRANCH   1  26
HETATM   26  O   UNL     1     -44.359  56.479 -52.666  1.00  0.00    -0.359 OA
HETATM   27  H   UNL     1     -44.936  57.116 -52.201  1.00  0.00     0.213 HD
ENDBRANCH   1  26
BRANCH   2  28
HETATM   28  C   UNL     1     -44.219  59.177 -52.092  1.00  0.00     0.120 A 
HETATM   29  C   UNL     1     -45.330  59.319 -51.251  1.00  0.00     0.146 A 
HETATM   30  F   UNL     1     -45.458  58.570 -50.147  1.00  0.00    -0.204 F 
HETATM   31  C   UNL     1     -46.373  60.201 -51.544  1.00  0.00     0.045 A 
HETATM   32  C   UNL     1     -46.321  60.987 -52.690  1.00  0.00     0.006 A 
HETATM   33  C   UNL     1     -45.220  60.887 -53.536  1.00  0.00     0.045 A 
HETATM   34  C   UNL     1     -44.188  59.994 -53.236  1.00  0.00     0.146 A 
HETATM   35  F   UNL     1     -43.111  60.008 -54.036  1.00  0.00    -0.204 F 
ENDBRANCH   2  28
TORSDOF 6
ENDMDL
