MODEL 1
REMARK VINA RESULT:      -8.8      0.000      0.000
REMARK  3 active torsions:
REMARK  status: ('A' for Active; 'I' for Inactive)
REMARK    1  A    between atoms: C_3  and  N_4 
REMARK       I    between atoms: N_4  and  C_5 
REMARK    2  A    between atoms: C_5  and  C_6 
REMARK    3  A    between atoms: C_6  and  N_7 
ROOT
HETATM    1  N   UNL     1     -42.077  55.187 -56.528  1.00  0.00    -0.367 N 
HETATM    2  C   UNL     1     -42.525  56.148 -57.315  1.00  0.00     0.108 C 
HETATM    3  C   UNL     1     -43.332  55.798 -58.511  1.00  0.00     0.014 A 
HETATM    4  C   UNL     1     -43.482  56.756 -59.535  1.00  0.00    -0.042 A 
HETATM    5  C   UNL     1     -44.225  56.461 -60.684  1.00  0.00     0.008 A 
HETATM    6  C   UNL     1     -44.858  55.228 -60.807  1.00  0.00     0.001 A 
HETATM    7  C   UNL     1     -44.748  54.285 -59.790  1.00  0.00     0.001 A 
HETATM    8  C   UNL     1     -43.993  54.566 -58.649  1.00  0.00     0.016 A 
HETATM    9  C   UNL     1     -42.802  58.093 -59.385  1.00  0.00     0.069 C 
HETATM   10  C   UNL     1     -42.764  58.543 -57.912  1.00  0.00     0.028 C 
HETATM   11  C   UNL     1     -41.769  59.699 -57.753  1.00  0.00     0.038 C 
HETATM   12  C   UNL     1     -44.140  58.974 -57.392  1.00  0.00     0.038 C 
HETATM   13  N   UNL     1     -42.284  57.427 -57.051  1.00  0.00    -0.367 N 
HETATM   14  H   UNL     1     -41.722  57.663 -56.248  1.00  0.00     0.162 HD
HETATM   15  H   UNL     1     -42.149  54.227 -56.867  1.00  0.00     0.161 HD
ENDROOT
BRANCH   1  16
HETATM   16  C   UNL     1     -41.385  55.343 -55.239  1.00  0.00     0.224 C 
BRANCH  16  17
HETATM   17  C   UNL     1     -41.504  54.010 -54.507  1.00  0.00     0.239 C 
HETATM   18  N   UNL     1     -40.297  53.467 -54.114  1.00  0.00    -0.325 N 
HETATM   19  H   UNL     1     -39.475  54.058 -54.131  1.00  0.00     0.169 HD
HETATM   20  O   UNL     1     -42.623  53.579 -54.238  1.00  0.00    -0.271 OA
BRANCH  18  21
HETATM   21  C   UNL     1     -40.100  52.188 -53.540  1.00  0.00     0.040 A 
HETATM   22  C   UNL     1     -39.846  52.087 -52.154  1.00  0.00    -0.035 A 
HETATM   23  C   UNL     1     -39.859  53.277 -51.233  1.00  0.00     0.050 C 
HETATM   24  C   UNL     1     -39.568  50.826 -51.598  1.00  0.00     0.009 A 
HETATM   25  C   UNL     1     -39.556  49.680 -52.391  1.00  0.00     0.001 A 
HETATM   26  C   UNL     1     -39.822  49.780 -53.750  1.00  0.00     0.002 A 
HETATM   27  C   UNL     1     -40.094  51.025 -54.322  1.00  0.00     0.030 A 
ENDBRANCH  18  21
ENDBRANCH  16  17
ENDBRANCH   1  16
TORSDOF 3
ENDMDL
MODEL 2
REMARK VINA RESULT:      -8.4      1.529      3.367
REMARK  3 active torsions:
REMARK  status: ('A' for Active; 'I' for Inactive)
REMARK    1  A    between atoms: C_3  and  N_4 
REMARK       I    between atoms: N_4  and  C_5 
REMARK    2  A    between atoms: C_5  and  C_6 
REMARK    3  A    between atoms: C_6  and  N_7 
ROOT
HETATM    1  N   UNL     1     -42.258  55.394 -55.232  1.00  0.00    -0.367 N 
HETATM    2  C   UNL     1     -42.742  56.197 -56.162  1.00  0.00     0.108 C 
HETATM    3  C   UNL     1     -43.640  57.312 -55.771  1.00  0.00     0.014 A 
HETATM    4  C   UNL     1     -44.444  57.918 -56.758  1.00  0.00    -0.042 A 
HETATM    5  C   UNL     1     -45.313  58.965 -56.428  1.00  0.00     0.008 A 
HETATM    6  C   UNL     1     -45.360  59.445 -55.123  1.00  0.00     0.001 A 
HETATM    7  C   UNL     1     -44.547  58.882 -54.144  1.00  0.00     0.001 A 
HETATM    8  C   UNL     1     -43.692  57.824 -54.463  1.00  0.00     0.016 A 
HETATM    9  C   UNL     1     -44.375  57.397 -58.171  1.00  0.00     0.069 C 
HETATM   10  C   UNL     1     -42.955  56.916 -58.526  1.00  0.00     0.028 C 
HETATM   11  C   UNL     1     -43.000  56.077 -59.808  1.00  0.00     0.038 C 
HETATM   12  C   UNL     1     -41.969  58.077 -58.706  1.00  0.00     0.038 C 
HETATM   13  N   UNL     1     -42.429  56.040 -57.443  1.00  0.00    -0.367 N 
HETATM   14  H   UNL     1     -41.833  55.272 -57.710  1.00  0.00     0.162 HD
HETATM   15  H   UNL     1     -42.660  55.458 -54.297  1.00  0.00     0.161 HD
ENDROOT
BRANCH   1  16
HETATM   16  C   UNL     1     -41.257  54.331 -55.409  1.00  0.00     0.224 C 
BRANCH  16  17
HETATM   17  C   UNL     1     -41.277  53.486 -54.139  1.00  0.00     0.239 C 
HETATM   18  N   UNL     1     -40.142  52.723 -53.945  1.00  0.00    -0.325 N 
HETATM   19  H   UNL     1     -39.322  52.930 -54.501  1.00  0.00     0.169 HD
HETATM   20  O   UNL     1     -42.216  53.613 -53.357  1.00  0.00    -0.271 OA
BRANCH  18  21
HETATM   21  C   UNL     1     -39.946  51.753 -52.932  1.00  0.00     0.040 A 
HETATM   22  C   UNL     1     -39.743  50.405 -53.300  1.00  0.00    -0.035 A 
HETATM   23  C   UNL     1     -39.638  49.956 -54.732  1.00  0.00     0.050 C 
HETATM   24  C   UNL     1     -39.632  49.429 -52.294  1.00  0.00     0.009 A 
HETATM   25  C   UNL     1     -39.704  49.777 -50.947  1.00  0.00     0.001 A 
HETATM   26  C   UNL     1     -39.887  51.106 -50.587  1.00  0.00     0.002 A 
HETATM   27  C   UNL     1     -40.006  52.089 -51.573  1.00  0.00     0.030 A 
ENDBRANCH  18  21
ENDBRANCH  16  17
ENDBRANCH   1  16
TORSDOF 3
ENDMDL
MODEL 3
REMARK VINA RESULT:      -8.4      3.430      6.055
REMARK  3 active torsions:
REMARK  status: ('A' for Active; 'I' for Inactive)
REMARK    1  A    between atoms: C_3  and  N_4 
REMARK       I    between atoms: N_4  and  C_5 
REMARK    2  A    between atoms: C_5  and  C_6 
REMARK    3  A    between atoms: C_6  and  N_7 
ROOT
HETATM    1  N   UNL     1     -41.013  56.118 -54.351  1.00  0.00    -0.367 N 
HETATM    2  C   UNL     1     -41.518  56.339 -53.152  1.00  0.00     0.108 C 
HETATM    3  C   UNL     1     -40.946  57.414 -52.302  1.00  0.00     0.014 A 
HETATM    4  C   UNL     1     -41.213  57.404 -50.918  1.00  0.00    -0.042 A 
HETATM    5  C   UNL     1     -40.683  58.393 -50.081  1.00  0.00     0.008 A 
HETATM    6  C   UNL     1     -39.917  59.423 -50.620  1.00  0.00     0.001 A 
HETATM    7  C   UNL     1     -39.674  59.467 -51.989  1.00  0.00     0.001 A 
HETATM    8  C   UNL     1     -40.184  58.472 -52.826  1.00  0.00     0.016 A 
HETATM    9  C   UNL     1     -42.054  56.290 -50.348  1.00  0.00     0.069 C 
HETATM   10  C   UNL     1     -43.141  55.839 -51.344  1.00  0.00     0.028 C 
HETATM   11  C   UNL     1     -43.727  54.496 -50.893  1.00  0.00     0.038 C 
HETATM   12  C   UNL     1     -44.268  56.868 -51.490  1.00  0.00     0.038 C 
HETATM   13  N   UNL     1     -42.542  55.630 -52.691  1.00  0.00    -0.367 N 
HETATM   14  H   UNL     1     -42.919  54.888 -53.261  1.00  0.00     0.162 HD
HETATM   15  H   UNL     1     -40.130  56.575 -54.583  1.00  0.00     0.161 HD
ENDROOT
BRANCH   1  16
HETATM   16  C   UNL     1     -41.528  55.199 -55.378  1.00  0.00     0.224 C 
BRANCH  16  17
HETATM   17  C   UNL     1     -41.594  53.815 -54.742  1.00  0.00     0.239 C 
HETATM   18  N   UNL     1     -40.407  53.392 -54.175  1.00  0.00    -0.325 N 
HETATM   19  H   UNL     1     -39.677  54.075 -54.022  1.00  0.00     0.169 HD
HETATM   20  O   UNL     1     -42.677  53.236 -54.691  1.00  0.00    -0.271 OA
BRANCH  18  21
HETATM   21  C   UNL     1     -40.145  52.107 -53.639  1.00  0.00     0.040 A 
HETATM   22  C   UNL     1     -39.889  51.978 -52.256  1.00  0.00    -0.035 A 
HETATM   23  C   UNL     1     -39.967  53.137 -51.299  1.00  0.00     0.050 C 
HETATM   24  C   UNL     1     -39.547  50.717 -51.736  1.00  0.00     0.009 A 
HETATM   25  C   UNL     1     -39.473  49.599 -52.564  1.00  0.00     0.001 A 
HETATM   26  C   UNL     1     -39.741  49.725 -53.920  1.00  0.00     0.002 A 
HETATM   27  C   UNL     1     -40.076  50.971 -54.455  1.00  0.00     0.030 A 
ENDBRANCH  18  21
ENDBRANCH  16  17
ENDBRANCH   1  16
TORSDOF 3
ENDMDL
MODEL 4
REMARK VINA RESULT:      -8.3      1.499      2.009
REMARK  3 active torsions:
REMARK  status: ('A' for Active; 'I' for Inactive)
REMARK    1  A    between atoms: C_3  and  N_4 
REMARK       I    between atoms: N_4  and  C_5 
REMARK    2  A    between atoms: C_5  and  C_6 
REMARK    3  A    between atoms: C_6  and  N_7 
ROOT
HETATM    1  N   UNL     1     -42.785  56.039 -54.864  1.00  0.00    -0.367 N 
HETATM    2  C   UNL     1     -42.825  57.131 -55.606  1.00  0.00     0.108 C 
HETATM    3  C   UNL     1     -42.724  57.017 -57.083  1.00  0.00     0.014 A 
HETATM    4  C   UNL     1     -42.388  58.162 -57.833  1.00  0.00    -0.042 A 
HETATM    5  C   UNL     1     -42.271  58.094 -59.226  1.00  0.00     0.008 A 
HETATM    6  C   UNL     1     -42.527  56.897 -59.888  1.00  0.00     0.001 A 
HETATM    7  C   UNL     1     -42.894  55.767 -59.165  1.00  0.00     0.001 A 
HETATM    8  C   UNL     1     -42.993  55.824 -57.774  1.00  0.00     0.016 A 
HETATM    9  C   UNL     1     -42.125  59.457 -57.105  1.00  0.00     0.069 C 
HETATM   10  C   UNL     1     -43.017  59.591 -55.855  1.00  0.00     0.028 C 
HETATM   11  C   UNL     1     -42.482  60.714 -54.960  1.00  0.00     0.038 C 
HETATM   12  C   UNL     1     -44.484  59.868 -56.206  1.00  0.00     0.038 C 
HETATM   13  N   UNL     1     -42.972  58.333 -55.060  1.00  0.00    -0.367 N 
HETATM   14  H   UNL     1     -43.024  58.412 -54.056  1.00  0.00     0.162 HD
HETATM   15  H   UNL     1     -42.506  55.170 -55.319  1.00  0.00     0.161 HD
ENDROOT
BRANCH   1  16
HETATM   16  C   UNL     1     -43.004  55.942 -53.413  1.00  0.00     0.224 C 
BRANCH  16  17
HETATM   17  C   UNL     1     -42.596  54.533 -52.995  1.00  0.00     0.239 C 
HETATM   18  N   UNL     1     -41.354  54.140 -53.455  1.00  0.00    -0.325 N 
HETATM   19  H   UNL     1     -40.731  54.847 -53.823  1.00  0.00     0.169 HD
HETATM   20  O   UNL     1     -43.324  53.908 -52.228  1.00  0.00    -0.271 OA
BRANCH  18  21
HETATM   21  C   UNL     1     -40.784  52.849 -53.333  1.00  0.00     0.040 A 
HETATM   22  C   UNL     1     -40.078  52.517 -52.157  1.00  0.00    -0.035 A 
HETATM   23  C   UNL     1     -39.973  53.445 -50.977  1.00  0.00     0.050 C 
HETATM   24  C   UNL     1     -39.442  51.266 -52.068  1.00  0.00     0.009 A 
HETATM   25  C   UNL     1     -39.513  50.351 -53.117  1.00  0.00     0.001 A 
HETATM   26  C   UNL     1     -40.222  50.674 -54.267  1.00  0.00     0.002 A 
HETATM   27  C   UNL     1     -40.855  51.915 -54.375  1.00  0.00     0.030 A 
ENDBRANCH  18  21
ENDBRANCH  16  17
ENDBRANCH   1  16
TORSDOF 3
ENDMDL
MODEL 5
REMARK VINA RESULT:      -8.1      2.658      7.839
REMARK  3 active torsions:
REMARK  status: ('A' for Active; 'I' for Inactive)
REMARK    1  A    between atoms: C_3  and  N_4 
REMARK       I    between atoms: N_4  and  C_5 
REMARK    2  A    between atoms: C_5  and  C_6 
REMARK    3  A    between atoms: C_6  and  N_7 
ROOT
HETATM    1  N   UNL     1     -42.123  56.730 -55.685  1.00  0.00    -0.367 N 
HETATM    2  C   UNL     1     -42.095  56.270 -54.448  1.00  0.00     0.108 C 
HETATM    3  C   UNL     1     -41.473  54.951 -54.170  1.00  0.00     0.014 A 
HETATM    4  C   UNL     1     -41.772  54.298 -52.956  1.00  0.00    -0.042 A 
HETATM    5  C   UNL     1     -41.215  53.048 -52.662  1.00  0.00     0.008 A 
HETATM    6  C   UNL     1     -40.326  52.455 -53.553  1.00  0.00     0.001 A 
HETATM    7  C   UNL     1     -39.993  53.102 -54.738  1.00  0.00     0.001 A 
HETATM    8  C   UNL     1     -40.560  54.341 -55.046  1.00  0.00     0.016 A 
HETATM    9  C   UNL     1     -42.728  54.956 -51.994  1.00  0.00     0.069 C 
HETATM   10  C   UNL     1     -42.595  56.491 -52.028  1.00  0.00     0.028 C 
HETATM   11  C   UNL     1     -43.801  57.129 -51.328  1.00  0.00     0.038 C 
HETATM   12  C   UNL     1     -41.300  56.984 -51.371  1.00  0.00     0.038 C 
HETATM   13  N   UNL     1     -42.599  56.971 -53.438  1.00  0.00    -0.367 N 
HETATM   14  H   UNL     1     -43.036  57.859 -53.629  1.00  0.00     0.162 HD
HETATM   15  H   UNL     1     -41.876  56.082 -56.434  1.00  0.00     0.161 HD
ENDROOT
BRANCH   1  16
HETATM   16  C   UNL     1     -42.569  58.058 -56.130  1.00  0.00     0.224 C 
BRANCH  16  17
HETATM   17  C   UNL     1     -43.106  57.895 -57.549  1.00  0.00     0.239 C 
HETATM   18  N   UNL     1     -44.280  57.173 -57.633  1.00  0.00    -0.325 N 
HETATM   19  H   UNL     1     -44.803  57.002 -56.783  1.00  0.00     0.169 HD
HETATM   20  O   UNL     1     -42.537  58.478 -58.469  1.00  0.00    -0.271 OA
BRANCH  18  21
HETATM   21  C   UNL     1     -44.925  56.756 -58.823  1.00  0.00     0.040 A 
HETATM   22  C   UNL     1     -46.253  57.169 -59.067  1.00  0.00    -0.035 A 
HETATM   23  C   UNL     1     -46.996  58.110 -58.156  1.00  0.00     0.050 C 
HETATM   24  C   UNL     1     -46.923  56.690 -60.206  1.00  0.00     0.009 A 
HETATM   25  C   UNL     1     -46.289  55.829 -61.100  1.00  0.00     0.001 A 
HETATM   26  C   UNL     1     -44.977  55.437 -60.867  1.00  0.00     0.002 A 
HETATM   27  C   UNL     1     -44.298  55.899 -59.737  1.00  0.00     0.030 A 
ENDBRANCH  18  21
ENDBRANCH  16  17
ENDBRANCH   1  16
TORSDOF 3
ENDMDL
MODEL 6
REMARK VINA RESULT:      -8.0      3.246      5.296
REMARK  3 active torsions:
REMARK  status: ('A' for Active; 'I' for Inactive)
REMARK    1  A    between atoms: C_3  and  N_4 
REMARK       I    between atoms: N_4  and  C_5 
REMARK    2  A    between atoms: C_5  and  C_6 
REMARK    3  A    between atoms: C_6  and  N_7 
ROOT
HETATM    1  N   UNL     1     -41.348  56.449 -53.918  1.00  0.00    -0.367 N 
HETATM    2  C   UNL     1     -42.005  57.582 -53.755  1.00  0.00     0.108 C 
HETATM    3  C   UNL     1     -41.785  58.387 -52.528  1.00  0.00     0.014 A 
HETATM    4  C   UNL     1     -42.735  59.368 -52.176  1.00  0.00    -0.042 A 
HETATM    5  C   UNL     1     -42.570  60.140 -51.020  1.00  0.00     0.008 A 
HETATM    6  C   UNL     1     -41.440  59.972 -50.226  1.00  0.00     0.001 A 
HETATM    7  C   UNL     1     -40.475  59.033 -50.579  1.00  0.00     0.001 A 
HETATM    8  C   UNL     1     -40.644  58.246 -51.720  1.00  0.00     0.016 A 
HETATM    9  C   UNL     1     -43.950  59.549 -53.050  1.00  0.00     0.069 C 
HETATM   10  C   UNL     1     -43.618  59.298 -54.535  1.00  0.00     0.028 C 
HETATM   11  C   UNL     1     -44.917  59.135 -55.332  1.00  0.00     0.038 C 
HETATM   12  C   UNL     1     -42.777  60.423 -55.148  1.00  0.00     0.038 C 
HETATM   13  N   UNL     1     -42.851  58.030 -54.676  1.00  0.00    -0.367 N 
HETATM   14  H   UNL     1     -43.013  57.474 -55.502  1.00  0.00     0.162 HD
HETATM   15  H   UNL     1     -40.845  56.076 -53.113  1.00  0.00     0.161 HD
ENDROOT
BRANCH   1  16
HETATM   16  C   UNL     1     -41.332  55.593 -55.114  1.00  0.00     0.224 C 
BRANCH  16  17
HETATM   17  C   UNL     1     -41.470  54.153 -54.633  1.00  0.00     0.239 C 
HETATM   18  N   UNL     1     -40.368  53.672 -53.952  1.00  0.00    -0.325 N 
HETATM   19  H   UNL     1     -39.672  54.335 -53.634  1.00  0.00     0.169 HD
HETATM   20  O   UNL     1     -42.544  53.576 -54.787  1.00  0.00    -0.271 OA
BRANCH  18  21
HETATM   21  C   UNL     1     -40.168  52.341 -53.513  1.00  0.00     0.040 A 
HETATM   22  C   UNL     1     -39.851  52.103 -52.158  1.00  0.00    -0.035 A 
HETATM   23  C   UNL     1     -39.799  53.198 -51.127  1.00  0.00     0.050 C 
HETATM   24  C   UNL     1     -39.571  50.790 -51.739  1.00  0.00     0.009 A 
HETATM   25  C   UNL     1     -39.617  49.727 -52.638  1.00  0.00     0.001 A 
HETATM   26  C   UNL     1     -39.945  49.961 -53.967  1.00  0.00     0.002 A 
HETATM   27  C   UNL     1     -40.221  51.260 -54.403  1.00  0.00     0.030 A 
ENDBRANCH  18  21
ENDBRANCH  16  17
ENDBRANCH   1  16
TORSDOF 3
ENDMDL
MODEL 7
REMARK VINA RESULT:      -8.0      4.202      5.407
REMARK  3 active torsions:
REMARK  status: ('A' for Active; 'I' for Inactive)
REMARK    1  A    between atoms: C_3  and  N_4 
REMARK       I    between atoms: N_4  and  C_5 
REMARK    2  A    between atoms: C_5  and  C_6 
REMARK    3  A    between atoms: C_6  and  N_7 
ROOT
HETATM    1  N   UNL     1     -44.107  56.759 -51.813  1.00  0.00    -0.367 N 
HETATM    2  C   UNL     1     -43.477  57.913 -51.926  1.00  0.00     0.108 C 
HETATM    3  C   UNL     1     -43.772  58.799 -53.081  1.00  0.00     0.014 A 
HETATM    4  C   UNL     1     -42.858  59.820 -53.408  1.00  0.00    -0.042 A 
HETATM    5  C   UNL     1     -43.094  60.669 -54.496  1.00  0.00     0.008 A 
HETATM    6  C   UNL     1     -44.261  60.536 -55.242  1.00  0.00     0.001 A 
HETATM    7  C   UNL     1     -45.191  59.555 -54.910  1.00  0.00     0.001 A 
HETATM    8  C   UNL     1     -44.951  58.693 -53.838  1.00  0.00     0.016 A 
HETATM    9  C   UNL     1     -41.603  59.963 -52.585  1.00  0.00     0.069 C 
HETATM   10  C   UNL     1     -41.854  59.601 -51.108  1.00  0.00     0.028 C 
HETATM   11  C   UNL     1     -40.513  59.407 -50.390  1.00  0.00     0.038 C 
HETATM   12  C   UNL     1     -42.681  60.663 -50.374  1.00  0.00     0.038 C 
HETATM   13  N   UNL     1     -42.592  58.311 -51.019  1.00  0.00    -0.367 N 
HETATM   14  H   UNL     1     -42.379  57.702 -50.244  1.00  0.00     0.162 HD
HETATM   15  H   UNL     1     -44.644  56.434 -52.617  1.00  0.00     0.161 HD
ENDROOT
BRANCH   1  16
HETATM   16  C   UNL     1     -44.047  55.821 -50.682  1.00  0.00     0.224 C 
BRANCH  16  17
HETATM   17  C   UNL     1     -43.449  54.522 -51.212  1.00  0.00     0.239 C 
HETATM   18  N   UNL     1     -42.120  54.615 -51.577  1.00  0.00    -0.325 N 
HETATM   19  H   UNL     1     -41.593  55.425 -51.276  1.00  0.00     0.169 HD
HETATM   20  O   UNL     1     -44.130  53.500 -51.185  1.00  0.00    -0.271 OA
BRANCH  18  21
HETATM   21  C   UNL     1     -41.354  53.612 -52.220  1.00  0.00     0.040 A 
HETATM   22  C   UNL     1     -40.465  52.828 -51.453  1.00  0.00    -0.035 A 
HETATM   23  C   UNL     1     -40.352  52.949 -49.957  1.00  0.00     0.050 C 
HETATM   24  C   UNL     1     -39.644  51.889 -52.102  1.00  0.00     0.009 A 
HETATM   25  C   UNL     1     -39.709  51.714 -53.482  1.00  0.00     0.001 A 
HETATM   26  C   UNL     1     -40.596  52.475 -54.233  1.00  0.00     0.002 A 
HETATM   27  C   UNL     1     -41.415  53.417 -53.606  1.00  0.00     0.030 A 
ENDBRANCH  18  21
ENDBRANCH  16  17
ENDBRANCH   1  16
TORSDOF 3
ENDMDL
MODEL 8
REMARK VINA RESULT:      -7.9      1.886      8.213
REMARK  3 active torsions:
REMARK  status: ('A' for Active; 'I' for Inactive)
REMARK    1  A    between atoms: C_3  and  N_4 
REMARK       I    between atoms: N_4  and  C_5 
REMARK    2  A    between atoms: C_5  and  C_6 
REMARK    3  A    between atoms: C_6  and  N_7 
ROOT
HETATM    1  N   UNL     1     -41.922  54.892 -53.205  1.00  0.00    -0.367 N 
HETATM    2  C   UNL     1     -41.248  54.233 -52.281  1.00  0.00     0.108 C 
HETATM    3  C   UNL     1     -40.630  52.925 -52.617  1.00  0.00     0.014 A 
HETATM    4  C   UNL     1     -40.252  52.061 -51.569  1.00  0.00    -0.042 A 
HETATM    5  C   UNL     1     -39.676  50.815 -51.844  1.00  0.00     0.008 A 
HETATM    6  C   UNL     1     -39.437  50.434 -53.161  1.00  0.00     0.001 A 
HETATM    7  C   UNL     1     -39.772  51.291 -54.205  1.00  0.00     0.001 A 
HETATM    8  C   UNL     1     -40.364  52.527 -53.938  1.00  0.00     0.016 A 
HETATM    9  C   UNL     1     -40.505  52.490 -50.146  1.00  0.00     0.069 C 
HETATM   10  C   UNL     1     -40.348  54.014 -49.980  1.00  0.00     0.028 C 
HETATM   11  C   UNL     1     -40.954  54.451 -48.642  1.00  0.00     0.038 C 
HETATM   12  C   UNL     1     -38.884  54.465 -50.053  1.00  0.00     0.038 C 
HETATM   13  N   UNL     1     -41.094  54.722 -51.056  1.00  0.00    -0.367 N 
HETATM   14  H   UNL     1     -41.528  55.602 -50.823  1.00  0.00     0.162 HD
HETATM   15  H   UNL     1     -42.148  54.396 -54.068  1.00  0.00     0.161 HD
ENDROOT
BRANCH   1  16
HETATM   16  C   UNL     1     -42.483  56.247 -53.101  1.00  0.00     0.224 C 
BRANCH  16  17
HETATM   17  C   UNL     1     -42.456  56.849 -54.502  1.00  0.00     0.239 C 
HETATM   18  N   UNL     1     -43.384  56.309 -55.371  1.00  0.00    -0.325 N 
HETATM   19  H   UNL     1     -44.131  55.745 -54.987  1.00  0.00     0.169 HD
HETATM   20  O   UNL     1     -41.712  57.802 -54.724  1.00  0.00    -0.271 OA
BRANCH  18  21
HETATM   21  C   UNL     1     -43.492  56.581 -56.757  1.00  0.00     0.040 A 
HETATM   22  C   UNL     1     -44.316  57.644 -57.187  1.00  0.00    -0.035 A 
HETATM   23  C   UNL     1     -45.023  58.567 -56.232  1.00  0.00     0.050 C 
HETATM   24  C   UNL     1     -44.489  57.862 -58.565  1.00  0.00     0.009 A 
HETATM   25  C   UNL     1     -43.851  57.055 -59.504  1.00  0.00     0.001 A 
HETATM   26  C   UNL     1     -43.029  56.020 -59.078  1.00  0.00     0.002 A 
HETATM   27  C   UNL     1     -42.848  55.784 -57.713  1.00  0.00     0.030 A 
ENDBRANCH  18  21
ENDBRANCH  16  17
ENDBRANCH   1  16
TORSDOF 3
ENDMDL
MODEL 9
REMARK VINA RESULT:      -7.8      1.884      2.816
REMARK  3 active torsions:
REMARK  status: ('A' for Active; 'I' for Inactive)
REMARK    1  A    between atoms: C_3  and  N_4 
REMARK       I    between atoms: N_4  and  C_5 
REMARK    2  A    between atoms: C_5  and  C_6 
REMARK    3  A    between atoms: C_6  and  N_7 
ROOT
HETATM    1  N   UNL     1     -43.679  56.056 -55.602  1.00  0.00    -0.367 N 
HETATM    2  C   UNL     1     -43.365  57.191 -56.200  1.00  0.00     0.108 C 
HETATM    3  C   UNL     1     -42.969  57.181 -57.631  1.00  0.00     0.014 A 
HETATM    4  C   UNL     1     -42.283  58.295 -58.156  1.00  0.00    -0.042 A 
HETATM    5  C   UNL     1     -41.882  58.319 -59.497  1.00  0.00     0.008 A 
HETATM    6  C   UNL     1     -42.196  57.255 -60.337  1.00  0.00     0.001 A 
HETATM    7  C   UNL     1     -42.904  56.164 -59.842  1.00  0.00     0.001 A 
HETATM    8  C   UNL     1     -43.290  56.125 -58.501  1.00  0.00     0.016 A 
HETATM    9  C   UNL     1     -41.959  59.447 -57.239  1.00  0.00     0.069 C 
HETATM   10  C   UNL     1     -43.061  59.653 -56.182  1.00  0.00     0.028 C 
HETATM   11  C   UNL     1     -42.542  60.571 -55.069  1.00  0.00     0.038 C 
HETATM   12  C   UNL     1     -44.345  60.243 -56.778  1.00  0.00     0.038 C 
HETATM   13  N   UNL     1     -43.411  58.350 -55.552  1.00  0.00    -0.367 N 
HETATM   14  H   UNL     1     -43.663  58.355 -54.576  1.00  0.00     0.162 HD
HETATM   15  H   UNL     1     -43.466  55.189 -56.096  1.00  0.00     0.161 HD
ENDROOT
BRANCH   1  16
HETATM   16  C   UNL     1     -44.219  55.886 -54.245  1.00  0.00     0.224 C 
BRANCH  16  17
HETATM   17  C   UNL     1     -43.032  55.624 -53.324  1.00  0.00     0.239 C 
HETATM   18  N   UNL     1     -42.685  54.292 -53.206  1.00  0.00    -0.325 N 
HETATM   19  H   UNL     1     -43.068  53.635 -53.873  1.00  0.00     0.169 HD
HETATM   20  O   UNL     1     -42.427  56.583 -52.850  1.00  0.00    -0.271 OA
BRANCH  18  21
HETATM   21  C   UNL     1     -41.719  53.752 -52.323  1.00  0.00     0.040 A 
HETATM   22  C   UNL     1     -40.653  52.991 -52.852  1.00  0.00    -0.035 A 
HETATM   23  C   UNL     1     -40.444  52.796 -54.329  1.00  0.00     0.050 C 
HETATM   24  C   UNL     1     -39.740  52.386 -51.971  1.00  0.00     0.009 A 
HETATM   25  C   UNL     1     -39.866  52.539 -50.592  1.00  0.00     0.001 A 
HETATM   26  C   UNL     1     -40.905  53.301 -50.075  1.00  0.00     0.002 A 
HETATM   27  C   UNL     1     -41.826  53.906 -50.935  1.00  0.00     0.030 A 
ENDBRANCH  18  21
ENDBRANCH  16  17
ENDBRANCH   1  16
TORSDOF 3
ENDMDL
MODEL 10
REMARK VINA RESULT:      -7.6     13.889     16.086
REMARK  3 active torsions:
REMARK  status: ('A' for Active; 'I' for Inactive)
REMARK    1  A    between atoms: C_3  and  N_4 
REMARK       I    between atoms: N_4  and  C_5 
REMARK    2  A    between atoms: C_5  and  C_6 
REMARK    3  A    between atoms: C_6  and  N_7 
ROOT
HETATM    1  N   UNL     1     -37.842  41.338 -55.476  1.00  0.00    -0.367 N 
HETATM    2  C   UNL     1     -37.462  40.485 -56.410  1.00  0.00     0.108 C 
HETATM    3  C   UNL     1     -37.390  40.932 -57.824  1.00  0.00     0.014 A 
HETATM    4  C   UNL     1     -37.361  39.960 -58.845  1.00  0.00    -0.042 A 
HETATM    5  C   UNL     1     -37.305  40.341 -60.192  1.00  0.00     0.008 A 
HETATM    6  C   UNL     1     -37.238  41.688 -60.532  1.00  0.00     0.001 A 
HETATM    7  C   UNL     1     -37.231  42.658 -59.535  1.00  0.00     0.001 A 
HETATM    8  C   UNL     1     -37.305  42.286 -58.191  1.00  0.00     0.016 A 
HETATM    9  C   UNL     1     -37.422  38.503 -58.464  1.00  0.00     0.069 C 
HETATM   10  C   UNL     1     -36.695  38.239 -57.130  1.00  0.00     0.028 C 
HETATM   11  C   UNL     1     -37.079  36.853 -56.600  1.00  0.00     0.038 C 
HETATM   12  C   UNL     1     -35.170  38.334 -57.262  1.00  0.00     0.038 C 
HETATM   13  N   UNL     1     -37.124  39.236 -56.111  1.00  0.00    -0.367 N 
HETATM   14  H   UNL     1     -37.189  38.928 -55.153  1.00  0.00     0.162 HD
HETATM   15  H   UNL     1     -38.245  42.223 -55.782  1.00  0.00     0.161 HD
ENDROOT
BRANCH   1  16
HETATM   16  C   UNL     1     -37.844  41.120 -54.022  1.00  0.00     0.224 C 
BRANCH  16  17
HETATM   17  C   UNL     1     -36.452  41.487 -53.516  1.00  0.00     0.239 C 
HETATM   18  N   UNL     1     -35.684  40.405 -53.130  1.00  0.00    -0.325 N 
HETATM   19  H   UNL     1     -35.985  39.479 -53.403  1.00  0.00     0.169 HD
HETATM   20  O   UNL     1     -36.088  42.658 -53.579  1.00  0.00    -0.271 OA
BRANCH  18  21
HETATM   21  C   UNL     1     -34.416  40.459 -52.502  1.00  0.00     0.040 A 
HETATM   22  C   UNL     1     -33.251  40.413 -53.298  1.00  0.00    -0.035 A 
HETATM   23  C   UNL     1     -33.291  40.395 -54.803  1.00  0.00     0.050 C 
HETATM   24  C   UNL     1     -31.993  40.382 -52.672  1.00  0.00     0.009 A 
HETATM   25  C   UNL     1     -31.883  40.412 -51.284  1.00  0.00     0.001 A 
HETATM   26  C   UNL     1     -33.029  40.475 -50.503  1.00  0.00     0.002 A 
HETATM   27  C   UNL     1     -34.289  40.500 -51.107  1.00  0.00     0.030 A 
ENDBRANCH  18  21
ENDBRANCH  16  17
ENDBRANCH   1  16
TORSDOF 3
ENDMDL
