MODEL 1
REMARK VINA RESULT:      -8.5      0.000      0.000
REMARK  6 active torsions:
REMARK  status: ('A' for Active; 'I' for Inactive)
REMARK    1  A    between atoms: C_2  and  O_3 
REMARK    2  A    between atoms: O_3  and  C_4 
REMARK    3  A    between atoms: C_5  and  O_6 
REMARK    4  A    between atoms: O_6  and  C_7 
REMARK    5  A    between atoms: C_7  and  C_8 
REMARK    6  A    between atoms: C_16  and  C_17 
ROOT
HETATM    1  C   UNL     1     -43.790  56.525 -54.350  1.00  0.00     0.102 A 
HETATM    2  C   UNL     1     -42.945  55.426 -54.544  1.00  0.00     0.102 A 
HETATM    3  C   UNL     1     -42.280  55.280 -55.768  1.00  0.00     0.040 A 
HETATM    4  C   UNL     1     -42.398  56.245 -56.770  1.00  0.00     0.014 A 
HETATM    5  C   UNL     1     -43.183  57.389 -56.576  1.00  0.00    -0.007 A 
HETATM    6  C   UNL     1     -43.888  57.495 -55.366  1.00  0.00     0.051 A 
ENDROOT
BRANCH   5   7
HETATM    7  C   UNL     1     -43.320  58.429 -57.684  1.00  0.00     0.264 C 
HETATM    8  O   UNL     1     -44.688  58.602 -58.096  1.00  0.00    -0.321 OA
HETATM    9  C   UNL     1     -45.124  57.648 -58.978  1.00  0.00     0.087 A 
HETATM   10  C   UNL     1     -44.260  56.954 -59.824  1.00  0.00     0.065 A 
HETATM   11  C   UNL     1     -46.494  57.402 -59.032  1.00  0.00     0.038 A 
HETATM   12  C   UNL     1     -42.832  57.306 -59.794  1.00  0.00     0.256 C 
HETATM   13  C   UNL     1     -44.751  55.993 -60.709  1.00  0.00     0.020 A 
HETATM   14  O   UNL     1     -42.023  56.854 -60.592  1.00  0.00    -0.267 OA
HETATM   15  N   UNL     1     -42.476  58.201 -58.827  1.00  0.00    -0.326 N 
HETATM   16  H   UNL     1     -41.485  58.388 -58.756  1.00  0.00     0.165 HD
HETATM   17  C   UNL     1     -46.121  55.730 -60.744  1.00  0.00     0.001 A 
HETATM   18  C   UNL     1     -46.991  56.437 -59.911  1.00  0.00     0.003 A 
ENDBRANCH   5   7
BRANCH   1  19
HETATM   19  O   UNL     1     -44.573  56.839 -53.273  1.00  0.00    -0.349 OA
BRANCH  19  20
HETATM   20  C   UNL     1     -44.028  57.468 -52.118  1.00  0.00     0.171 C 
HETATM   21  C   UNL     1     -44.092  56.558 -50.903  1.00  0.00     0.034 C 
ENDBRANCH  19  20
ENDBRANCH   1  19
BRANCH   2  22
HETATM   22  O   UNL     1     -42.825  54.463 -53.579  1.00  0.00    -0.344 OA
BRANCH  22  23
HETATM   23  C   UNL     1     -41.604  54.528 -52.838  1.00  0.00     0.214 C 
BRANCH  23  24
HETATM   24  C   UNL     1     -40.906  53.195 -52.955  1.00  0.00    -0.034 A 
HETATM   25  C   UNL     1     -40.172  52.682 -51.876  1.00  0.00     0.009 A 
HETATM   26  C   UNL     1     -39.522  51.452 -51.983  1.00  0.00     0.001 A 
HETATM   27  C   UNL     1     -39.591  50.727 -53.172  1.00  0.00     0.000 A 
HETATM   28  C   UNL     1     -40.305  51.235 -54.256  1.00  0.00     0.001 A 
HETATM   29  C   UNL     1     -40.957  52.465 -54.150  1.00  0.00     0.009 A 
ENDBRANCH  23  24
ENDBRANCH  22  23
ENDBRANCH   2  22
TORSDOF 6
ENDMDL
MODEL 2
REMARK VINA RESULT:      -8.3      1.832      2.486
REMARK  6 active torsions:
REMARK  status: ('A' for Active; 'I' for Inactive)
REMARK    1  A    between atoms: C_2  and  O_3 
REMARK    2  A    between atoms: O_3  and  C_4 
REMARK    3  A    between atoms: C_5  and  O_6 
REMARK    4  A    between atoms: O_6  and  C_7 
REMARK    5  A    between atoms: C_7  and  C_8 
REMARK    6  A    between atoms: C_16  and  C_17 
ROOT
HETATM    1  C   UNL     1     -43.023  55.907 -52.804  1.00  0.00     0.102 A 
HETATM    2  C   UNL     1     -42.581  54.768 -53.486  1.00  0.00     0.102 A 
HETATM    3  C   UNL     1     -42.757  54.687 -54.873  1.00  0.00     0.040 A 
HETATM    4  C   UNL     1     -43.307  55.751 -55.591  1.00  0.00     0.014 A 
HETATM    5  C   UNL     1     -43.695  56.930 -54.942  1.00  0.00    -0.007 A 
HETATM    6  C   UNL     1     -43.564  56.975 -53.544  1.00  0.00     0.051 A 
ENDROOT
BRANCH   5   7
HETATM    7  C   UNL     1     -44.312  58.080 -55.734  1.00  0.00     0.264 C 
HETATM    8  O   UNL     1     -44.827  57.644 -57.004  1.00  0.00    -0.321 OA
HETATM    9  C   UNL     1     -43.869  57.527 -57.978  1.00  0.00     0.087 A 
HETATM   10  C   UNL     1     -42.684  58.261 -57.960  1.00  0.00     0.065 A 
HETATM   11  C   UNL     1     -44.129  56.655 -59.032  1.00  0.00     0.038 A 
HETATM   12  C   UNL     1     -42.489  59.233 -56.873  1.00  0.00     0.256 C 
HETATM   13  C   UNL     1     -41.739  58.110 -58.976  1.00  0.00     0.020 A 
HETATM   14  O   UNL     1     -41.551  60.017 -56.848  1.00  0.00    -0.267 OA
HETATM   15  N   UNL     1     -43.450  59.219 -55.904  1.00  0.00    -0.326 N 
HETATM   16  H   UNL     1     -43.281  59.833 -55.120  1.00  0.00     0.165 HD
HETATM   17  C   UNL     1     -41.989  57.217 -60.018  1.00  0.00     0.001 A 
HETATM   18  C   UNL     1     -43.184  56.495 -60.049  1.00  0.00     0.003 A 
ENDBRANCH   5   7
BRANCH   1  19
HETATM   19  O   UNL     1     -43.006  56.178 -51.463  1.00  0.00    -0.349 OA
BRANCH  19  20
HETATM   20  C   UNL     1     -41.847  56.703 -50.827  1.00  0.00     0.171 C 
HETATM   21  C   UNL     1     -41.259  55.716 -49.832  1.00  0.00     0.034 C 
ENDBRANCH  19  20
ENDBRANCH   1  19
BRANCH   2  22
HETATM   22  O   UNL     1     -42.050  53.709 -52.799  1.00  0.00    -0.344 OA
BRANCH  22  23
HETATM   23  C   UNL     1     -40.624  53.625 -52.868  1.00  0.00     0.214 C 
BRANCH  23  24
HETATM   24  C   UNL     1     -40.240  52.170 -52.978  1.00  0.00    -0.034 A 
HETATM   25  C   UNL     1     -39.847  51.452 -51.839  1.00  0.00     0.009 A 
HETATM   26  C   UNL     1     -39.485  50.107 -51.939  1.00  0.00     0.001 A 
HETATM   27  C   UNL     1     -39.505  49.470 -53.179  1.00  0.00     0.000 A 
HETATM   28  C   UNL     1     -39.880  50.178 -54.320  1.00  0.00     0.001 A 
HETATM   29  C   UNL     1     -40.242  51.522 -54.222  1.00  0.00     0.009 A 
ENDBRANCH  23  24
ENDBRANCH  22  23
ENDBRANCH   2  22
TORSDOF 6
ENDMDL
MODEL 3
REMARK VINA RESULT:      -8.3      1.269      1.363
REMARK  6 active torsions:
REMARK  status: ('A' for Active; 'I' for Inactive)
REMARK    1  A    between atoms: C_2  and  O_3 
REMARK    2  A    between atoms: O_3  and  C_4 
REMARK    3  A    between atoms: C_5  and  O_6 
REMARK    4  A    between atoms: O_6  and  C_7 
REMARK    5  A    between atoms: C_7  and  C_8 
REMARK    6  A    between atoms: C_16  and  C_17 
ROOT
HETATM    1  C   UNL     1     -42.272  56.594 -53.980  1.00  0.00     0.102 A 
HETATM    2  C   UNL     1     -42.182  55.237 -54.313  1.00  0.00     0.102 A 
HETATM    3  C   UNL     1     -42.197  54.860 -55.662  1.00  0.00     0.040 A 
HETATM    4  C   UNL     1     -42.236  55.819 -56.677  1.00  0.00     0.014 A 
HETATM    5  C   UNL     1     -42.257  57.186 -56.372  1.00  0.00    -0.007 A 
HETATM    6  C   UNL     1     -42.298  57.548 -55.014  1.00  0.00     0.051 A 
ENDROOT
BRANCH   5   7
HETATM    7  C   UNL     1     -42.317  58.226 -57.487  1.00  0.00     0.264 C 
HETATM    8  O   UNL     1     -43.590  58.893 -57.533  1.00  0.00    -0.321 OA
HETATM    9  C   UNL     1     -44.564  58.181 -58.185  1.00  0.00     0.087 A 
HETATM   10  C   UNL     1     -44.275  57.237 -59.168  1.00  0.00     0.065 A 
HETATM   11  C   UNL     1     -45.889  58.454 -57.852  1.00  0.00     0.038 A 
HETATM   12  C   UNL     1     -42.867  57.043 -59.548  1.00  0.00     0.256 C 
HETATM   13  C   UNL     1     -45.301  56.539 -59.807  1.00  0.00     0.020 A 
HETATM   14  O   UNL     1     -42.528  56.342 -60.492  1.00  0.00    -0.267 OA
HETATM   15  N   UNL     1     -41.962  57.728 -58.789  1.00  0.00    -0.326 N 
HETATM   16  H   UNL     1     -40.992  57.539 -59.000  1.00  0.00     0.165 HD
HETATM   17  C   UNL     1     -46.627  56.795 -59.455  1.00  0.00     0.001 A 
HETATM   18  C   UNL     1     -46.920  57.753 -58.482  1.00  0.00     0.003 A 
ENDBRANCH   5   7
BRANCH   1  19
HETATM   19  O   UNL     1     -42.332  57.183 -52.746  1.00  0.00    -0.349 OA
BRANCH  19  20
HETATM   20  C   UNL     1     -41.209  57.859 -52.193  1.00  0.00     0.171 C 
HETATM   21  C   UNL     1     -41.034  57.539 -50.718  1.00  0.00     0.034 C 
ENDBRANCH  19  20
ENDBRANCH   1  19
BRANCH   2  22
HETATM   22  O   UNL     1     -42.156  54.281 -53.335  1.00  0.00    -0.344 OA
BRANCH  22  23
HETATM   23  C   UNL     1     -40.870  54.093 -52.736  1.00  0.00     0.214 C 
BRANCH  23  24
HETATM   24  C   UNL     1     -40.460  52.654 -52.937  1.00  0.00    -0.034 A 
HETATM   25  C   UNL     1     -39.837  51.944 -51.901  1.00  0.00     0.009 A 
HETATM   26  C   UNL     1     -39.452  50.615 -52.086  1.00  0.00     0.001 A 
HETATM   27  C   UNL     1     -39.677  49.987 -53.310  1.00  0.00     0.000 A 
HETATM   28  C   UNL     1     -40.281  50.688 -54.352  1.00  0.00     0.001 A 
HETATM   29  C   UNL     1     -40.668  52.017 -54.169  1.00  0.00     0.009 A 
ENDBRANCH  23  24
ENDBRANCH  22  23
ENDBRANCH   2  22
TORSDOF 6
ENDMDL
MODEL 4
REMARK VINA RESULT:      -8.2      3.750      5.795
REMARK  6 active torsions:
REMARK  status: ('A' for Active; 'I' for Inactive)
REMARK    1  A    between atoms: C_2  and  O_3 
REMARK    2  A    between atoms: O_3  and  C_4 
REMARK    3  A    between atoms: C_5  and  O_6 
REMARK    4  A    between atoms: O_6  and  C_7 
REMARK    5  A    between atoms: C_7  and  C_8 
REMARK    6  A    between atoms: C_16  and  C_17 
ROOT
HETATM    1  C   UNL     1     -41.433  55.652 -52.708  1.00  0.00     0.102 A 
HETATM    2  C   UNL     1     -41.240  55.158 -51.413  1.00  0.00     0.102 A 
HETATM    3  C   UNL     1     -40.998  56.057 -50.365  1.00  0.00     0.040 A 
HETATM    4  C   UNL     1     -41.010  57.436 -50.584  1.00  0.00     0.014 A 
HETATM    5  C   UNL     1     -41.269  57.959 -51.857  1.00  0.00    -0.007 A 
HETATM    6  C   UNL     1     -41.454  57.045 -52.909  1.00  0.00     0.051 A 
ENDROOT
BRANCH   5   7
HETATM    7  C   UNL     1     -41.262  59.467 -52.089  1.00  0.00     0.264 C 
HETATM    8  O   UNL     1     -42.070  60.164 -51.124  1.00  0.00    -0.321 OA
HETATM    9  C   UNL     1     -43.409  60.155 -51.415  1.00  0.00     0.087 A 
HETATM   10  C   UNL     1     -43.896  60.022 -52.714  1.00  0.00     0.065 A 
HETATM   11  C   UNL     1     -44.297  60.316 -50.354  1.00  0.00     0.038 A 
HETATM   12  C   UNL     1     -42.921  59.941 -53.813  1.00  0.00     0.256 C 
HETATM   13  C   UNL     1     -45.270  60.022 -52.963  1.00  0.00     0.020 A 
HETATM   14  O   UNL     1     -43.250  59.962 -54.991  1.00  0.00    -0.267 OA
HETATM   15  N   UNL     1     -41.614  59.869 -53.425  1.00  0.00    -0.326 N 
HETATM   16  H   UNL     1     -40.949  59.738 -54.173  1.00  0.00     0.165 HD
HETATM   17  C   UNL     1     -46.159  60.159 -51.896  1.00  0.00     0.001 A 
HETATM   18  C   UNL     1     -45.673  60.310 -50.595  1.00  0.00     0.003 A 
ENDBRANCH   5   7
BRANCH   1  19
HETATM   19  O   UNL     1     -41.627  54.969 -53.878  1.00  0.00    -0.349 OA
BRANCH  19  20
HETATM   20  C   UNL     1     -42.653  55.340 -54.792  1.00  0.00     0.171 C 
HETATM   21  C   UNL     1     -43.183  54.138 -55.555  1.00  0.00     0.034 C 
ENDBRANCH  19  20
ENDBRANCH   1  19
BRANCH   2  22
HETATM   22  O   UNL     1     -41.212  53.810 -51.179  1.00  0.00    -0.344 OA
BRANCH  22  23
HETATM   23  C   UNL     1     -39.896  53.253 -51.125  1.00  0.00     0.214 C 
BRANCH  23  24
HETATM   24  C   UNL     1     -39.848  52.059 -52.047  1.00  0.00    -0.034 A 
HETATM   25  C   UNL     1     -40.094  52.212 -53.419  1.00  0.00     0.009 A 
HETATM   26  C   UNL     1     -40.056  51.109 -54.272  1.00  0.00     0.001 A 
HETATM   27  C   UNL     1     -39.780  49.841 -53.762  1.00  0.00     0.000 A 
HETATM   28  C   UNL     1     -39.549  49.675 -52.398  1.00  0.00     0.001 A 
HETATM   29  C   UNL     1     -39.586  50.778 -51.542  1.00  0.00     0.009 A 
ENDBRANCH  23  24
ENDBRANCH  22  23
ENDBRANCH   2  22
TORSDOF 6
ENDMDL
MODEL 5
REMARK VINA RESULT:      -8.2      1.449      2.140
REMARK  6 active torsions:
REMARK  status: ('A' for Active; 'I' for Inactive)
REMARK    1  A    between atoms: C_2  and  O_3 
REMARK    2  A    between atoms: O_3  and  C_4 
REMARK    3  A    between atoms: C_5  and  O_6 
REMARK    4  A    between atoms: O_6  and  C_7 
REMARK    5  A    between atoms: C_7  and  C_8 
REMARK    6  A    between atoms: C_16  and  C_17 
ROOT
HETATM    1  C   UNL     1     -43.161  56.244 -53.900  1.00  0.00     0.102 A 
HETATM    2  C   UNL     1     -42.823  54.921 -54.207  1.00  0.00     0.102 A 
HETATM    3  C   UNL     1     -42.466  54.592 -55.521  1.00  0.00     0.040 A 
HETATM    4  C   UNL     1     -42.383  55.573 -56.511  1.00  0.00     0.014 A 
HETATM    5  C   UNL     1     -42.650  56.916 -56.215  1.00  0.00    -0.007 A 
HETATM    6  C   UNL     1     -43.060  57.223 -54.906  1.00  0.00     0.051 A 
ENDROOT
BRANCH   5   7
HETATM    7  C   UNL     1     -42.573  57.979 -57.308  1.00  0.00     0.264 C 
HETATM    8  O   UNL     1     -43.855  58.579 -57.566  1.00  0.00    -0.321 OA
HETATM    9  C   UNL     1     -44.658  57.832 -58.390  1.00  0.00     0.087 A 
HETATM   10  C   UNL     1     -44.149  56.930 -59.321  1.00  0.00     0.065 A 
HETATM   11  C   UNL     1     -46.034  58.026 -58.290  1.00  0.00     0.038 A 
HETATM   12  C   UNL     1     -42.687  56.820 -59.451  1.00  0.00     0.256 C 
HETATM   13  C   UNL     1     -45.006  56.194 -60.141  1.00  0.00     0.020 A 
HETATM   14  O   UNL     1     -42.150  56.162 -60.331  1.00  0.00    -0.267 OA
HETATM   15  N   UNL     1     -41.969  57.533 -58.534  1.00  0.00    -0.326 N 
HETATM   16  H   UNL     1     -40.968  57.401 -58.575  1.00  0.00     0.165 HD
HETATM   17  C   UNL     1     -46.385  56.370 -60.023  1.00  0.00     0.001 A 
HETATM   18  C   UNL     1     -46.898  57.287 -59.103  1.00  0.00     0.003 A 
ENDBRANCH   5   7
BRANCH   1  19
HETATM   19  O   UNL     1     -43.589  56.778 -52.715  1.00  0.00    -0.349 OA
BRANCH  19  20
HETATM   20  C   UNL     1     -42.959  57.921 -52.147  1.00  0.00     0.171 C 
HETATM   21  C   UNL     1     -41.527  57.623 -51.735  1.00  0.00     0.034 C 
ENDBRANCH  19  20
ENDBRANCH   1  19
BRANCH   2  22
HETATM   22  O   UNL     1     -42.910  53.942 -53.255  1.00  0.00    -0.344 OA
BRANCH  22  23
HETATM   23  C   UNL     1     -41.660  53.324 -52.937  1.00  0.00     0.214 C 
BRANCH  23  24
HETATM   24  C   UNL     1     -41.257  53.756 -51.548  1.00  0.00    -0.034 A 
HETATM   25  C   UNL     1     -39.932  53.607 -51.115  1.00  0.00     0.009 A 
HETATM   26  C   UNL     1     -39.558  54.000 -49.829  1.00  0.00     0.001 A 
HETATM   27  C   UNL     1     -40.506  54.538 -48.961  1.00  0.00     0.000 A 
HETATM   28  C   UNL     1     -41.829  54.677 -49.375  1.00  0.00     0.001 A 
HETATM   29  C   UNL     1     -42.205  54.285 -50.661  1.00  0.00     0.009 A 
ENDBRANCH  23  24
ENDBRANCH  22  23
ENDBRANCH   2  22
TORSDOF 6
ENDMDL
MODEL 6
REMARK VINA RESULT:      -8.1      4.334      5.467
REMARK  6 active torsions:
REMARK  status: ('A' for Active; 'I' for Inactive)
REMARK    1  A    between atoms: C_2  and  O_3 
REMARK    2  A    between atoms: O_3  and  C_4 
REMARK    3  A    between atoms: C_5  and  O_6 
REMARK    4  A    between atoms: O_6  and  C_7 
REMARK    5  A    between atoms: C_7  and  C_8 
REMARK    6  A    between atoms: C_16  and  C_17 
ROOT
HETATM    1  C   UNL     1     -41.810  55.849 -51.819  1.00  0.00     0.102 A 
HETATM    2  C   UNL     1     -41.564  55.298 -53.082  1.00  0.00     0.102 A 
HETATM    3  C   UNL     1     -41.352  56.151 -54.174  1.00  0.00     0.040 A 
HETATM    4  C   UNL     1     -41.321  57.537 -54.007  1.00  0.00     0.014 A 
HETATM    5  C   UNL     1     -41.496  58.112 -52.742  1.00  0.00    -0.007 A 
HETATM    6  C   UNL     1     -41.763  57.248 -51.667  1.00  0.00     0.051 A 
ENDROOT
BRANCH   5   7
HETATM    7  C   UNL     1     -41.478  59.629 -52.574  1.00  0.00     0.264 C 
HETATM    8  O   UNL     1     -42.261  60.055 -51.444  1.00  0.00    -0.321 OA
HETATM    9  C   UNL     1     -43.605  60.130 -51.700  1.00  0.00     0.087 A 
HETATM   10  C   UNL     1     -44.117  60.342 -52.979  1.00  0.00     0.065 A 
HETATM   11  C   UNL     1     -44.472  60.014 -50.616  1.00  0.00     0.038 A 
HETATM   12  C   UNL     1     -43.164  60.544 -54.081  1.00  0.00     0.256 C 
HETATM   13  C   UNL     1     -45.495  60.414 -53.191  1.00  0.00     0.020 A 
HETATM   14  O   UNL     1     -43.514  60.872 -55.206  1.00  0.00    -0.267 OA
HETATM   15  N   UNL     1     -41.851  60.366 -53.752  1.00  0.00    -0.326 N 
HETATM   16  H   UNL     1     -41.201  60.431 -54.522  1.00  0.00     0.165 HD
HETATM   17  C   UNL     1     -46.363  60.273 -52.107  1.00  0.00     0.001 A 
HETATM   18  C   UNL     1     -45.852  60.078 -50.822  1.00  0.00     0.003 A 
ENDBRANCH   5   7
BRANCH   1  19
HETATM   19  O   UNL     1     -42.094  55.221 -50.638  1.00  0.00    -0.349 OA
BRANCH  19  20
HETATM   20  C   UNL     1     -41.280  55.404 -49.485  1.00  0.00     0.171 C 
HETATM   21  C   UNL     1     -40.027  54.547 -49.543  1.00  0.00     0.034 C 
ENDBRANCH  19  20
ENDBRANCH   1  19
BRANCH   2  22
HETATM   22  O   UNL     1     -41.602  53.943 -53.269  1.00  0.00    -0.344 OA
BRANCH  22  23
HETATM   23  C   UNL     1     -40.518  53.430 -54.048  1.00  0.00     0.214 C 
BRANCH  23  24
HETATM   24  C   UNL     1     -40.144  52.072 -53.505  1.00  0.00    -0.034 A 
HETATM   25  C   UNL     1     -40.100  50.957 -54.353  1.00  0.00     0.009 A 
HETATM   26  C   UNL     1     -39.760  49.699 -53.852  1.00  0.00     0.001 A 
HETATM   27  C   UNL     1     -39.469  49.543 -52.498  1.00  0.00     0.000 A 
HETATM   28  C   UNL     1     -39.524  50.642 -51.643  1.00  0.00     0.001 A 
HETATM   29  C   UNL     1     -39.863  51.901 -52.142  1.00  0.00     0.009 A 
ENDBRANCH  23  24
ENDBRANCH  22  23
ENDBRANCH   2  22
TORSDOF 6
ENDMDL
MODEL 7
REMARK VINA RESULT:      -8.0      1.312      2.797
REMARK  6 active torsions:
REMARK  status: ('A' for Active; 'I' for Inactive)
REMARK    1  A    between atoms: C_2  and  O_3 
REMARK    2  A    between atoms: O_3  and  C_4 
REMARK    3  A    between atoms: C_5  and  O_6 
REMARK    4  A    between atoms: O_6  and  C_7 
REMARK    5  A    between atoms: C_7  and  C_8 
REMARK    6  A    between atoms: C_16  and  C_17 
ROOT
HETATM    1  C   UNL     1     -42.456  56.233 -55.021  1.00  0.00     0.102 A 
HETATM    2  C   UNL     1     -43.562  56.373 -54.175  1.00  0.00     0.102 A 
HETATM    3  C   UNL     1     -44.571  57.286 -54.510  1.00  0.00     0.040 A 
HETATM    4  C   UNL     1     -44.518  58.009 -55.703  1.00  0.00     0.014 A 
HETATM    5  C   UNL     1     -43.457  57.838 -56.601  1.00  0.00    -0.007 A 
HETATM    6  C   UNL     1     -42.424  56.961 -56.225  1.00  0.00     0.051 A 
ENDROOT
BRANCH   5   7
HETATM    7  C   UNL     1     -43.400  58.647 -57.893  1.00  0.00     0.264 C 
HETATM    8  O   UNL     1     -44.701  58.809 -58.485  1.00  0.00    -0.321 OA
HETATM    9  C   UNL     1     -45.115  57.725 -59.216  1.00  0.00     0.087 A 
HETATM   10  C   UNL     1     -44.224  56.834 -59.810  1.00  0.00     0.065 A 
HETATM   11  C   UNL     1     -46.487  57.548 -59.380  1.00  0.00     0.038 A 
HETATM   12  C   UNL     1     -42.784  57.107 -59.682  1.00  0.00     0.256 C 
HETATM   13  C   UNL     1     -44.692  55.745 -60.548  1.00  0.00     0.020 A 
HETATM   14  O   UNL     1     -41.934  56.463 -60.282  1.00  0.00    -0.267 OA
HETATM   15  N   UNL     1     -42.462  58.154 -58.867  1.00  0.00    -0.326 N 
HETATM   16  H   UNL     1     -41.473  58.297 -58.719  1.00  0.00     0.165 HD
HETATM   17  C   UNL     1     -46.067  55.555 -60.690  1.00  0.00     0.001 A 
HETATM   18  C   UNL     1     -46.962  56.457 -60.112  1.00  0.00     0.003 A 
ENDBRANCH   5   7
BRANCH   1  19
HETATM   19  O   UNL     1     -41.340  55.456 -54.870  1.00  0.00    -0.349 OA
BRANCH  19  20
HETATM   20  C   UNL     1     -41.349  54.074 -55.206  1.00  0.00     0.171 C 
HETATM   21  C   UNL     1     -40.077  53.378 -54.749  1.00  0.00     0.034 C 
ENDBRANCH  19  20
ENDBRANCH   1  19
BRANCH   2  22
HETATM   22  O   UNL     1     -43.627  55.683 -52.995  1.00  0.00    -0.344 OA
BRANCH  22  23
HETATM   23  C   UNL     1     -42.995  56.344 -51.896  1.00  0.00     0.214 C 
BRANCH  23  24
HETATM   24  C   UNL     1     -42.001  55.391 -51.277  1.00  0.00    -0.034 A 
HETATM   25  C   UNL     1     -42.009  54.033 -51.628  1.00  0.00     0.009 A 
HETATM   26  C   UNL     1     -41.095  53.148 -51.054  1.00  0.00     0.001 A 
HETATM   27  C   UNL     1     -40.170  53.610 -50.118  1.00  0.00     0.000 A 
HETATM   28  C   UNL     1     -40.164  54.954 -49.751  1.00  0.00     0.001 A 
HETATM   29  C   UNL     1     -41.077  55.841 -50.325  1.00  0.00     0.009 A 
ENDBRANCH  23  24
ENDBRANCH  22  23
ENDBRANCH   2  22
TORSDOF 6
ENDMDL
MODEL 8
REMARK VINA RESULT:      -8.0      4.041      5.785
REMARK  6 active torsions:
REMARK  status: ('A' for Active; 'I' for Inactive)
REMARK    1  A    between atoms: C_2  and  O_3 
REMARK    2  A    between atoms: O_3  and  C_4 
REMARK    3  A    between atoms: C_5  and  O_6 
REMARK    4  A    between atoms: O_6  and  C_7 
REMARK    5  A    between atoms: C_7  and  C_8 
REMARK    6  A    between atoms: C_16  and  C_17 
ROOT
HETATM    1  C   UNL     1     -42.195  54.732 -52.490  1.00  0.00     0.102 A 
HETATM    2  C   UNL     1     -41.129  54.912 -51.600  1.00  0.00     0.102 A 
HETATM    3  C   UNL     1     -41.159  55.988 -50.702  1.00  0.00     0.040 A 
HETATM    4  C   UNL     1     -42.262  56.842 -50.641  1.00  0.00     0.014 A 
HETATM    5  C   UNL     1     -43.371  56.644 -51.473  1.00  0.00    -0.007 A 
HETATM    6  C   UNL     1     -43.303  55.595 -52.406  1.00  0.00     0.051 A 
ENDROOT
BRANCH   5   7
HETATM    7  C   UNL     1     -44.563  57.594 -51.410  1.00  0.00     0.264 C 
HETATM    8  O   UNL     1     -45.017  57.977 -52.721  1.00  0.00    -0.321 OA
HETATM    9  C   UNL     1     -44.281  58.985 -53.287  1.00  0.00     0.087 A 
HETATM   10  C   UNL     1     -43.578  59.921 -52.529  1.00  0.00     0.065 A 
HETATM   11  C   UNL     1     -44.277  59.074 -54.677  1.00  0.00     0.038 A 
HETATM   12  C   UNL     1     -43.680  59.841 -51.064  1.00  0.00     0.256 C 
HETATM   13  C   UNL     1     -42.845  60.933 -53.151  1.00  0.00     0.020 A 
HETATM   14  O   UNL     1     -43.215  60.695 -50.322  1.00  0.00    -0.267 OA
HETATM   15  N   UNL     1     -44.360  58.757 -50.588  1.00  0.00    -0.326 N 
HETATM   16  H   UNL     1     -44.368  58.660 -49.583  1.00  0.00     0.165 HD
HETATM   17  C   UNL     1     -42.821  61.005 -54.544  1.00  0.00     0.001 A 
HETATM   18  C   UNL     1     -43.539  60.080 -55.305  1.00  0.00     0.003 A 
ENDBRANCH   5   7
BRANCH   1  19
HETATM   19  O   UNL     1     -42.353  53.798 -53.477  1.00  0.00    -0.349 OA
BRANCH  19  20
HETATM   20  C   UNL     1     -42.147  54.126 -54.847  1.00  0.00     0.171 C 
HETATM   21  C   UNL     1     -40.706  54.526 -55.116  1.00  0.00     0.034 C 
ENDBRANCH  19  20
ENDBRANCH   1  19
BRANCH   2  22
HETATM   22  O   UNL     1     -40.034  54.093 -51.652  1.00  0.00    -0.344 OA
BRANCH  22  23
HETATM   23  C   UNL     1     -40.089  52.986 -50.748  1.00  0.00     0.214 C 
BRANCH  23  24
HETATM   24  C   UNL     1     -39.874  51.718 -51.539  1.00  0.00    -0.034 A 
HETATM   25  C   UNL     1     -39.771  51.763 -52.937  1.00  0.00     0.009 A 
HETATM   26  C   UNL     1     -39.578  50.592 -53.671  1.00  0.00     0.001 A 
HETATM   27  C   UNL     1     -39.493  49.364 -53.016  1.00  0.00     0.000 A 
HETATM   28  C   UNL     1     -39.608  49.306 -51.628  1.00  0.00     0.001 A 
HETATM   29  C   UNL     1     -39.801  50.476 -50.892  1.00  0.00     0.009 A 
ENDBRANCH  23  24
ENDBRANCH  22  23
ENDBRANCH   2  22
TORSDOF 6
ENDMDL
MODEL 9
REMARK VINA RESULT:      -7.7      2.022      2.842
REMARK  6 active torsions:
REMARK  status: ('A' for Active; 'I' for Inactive)
REMARK    1  A    between atoms: C_2  and  O_3 
REMARK    2  A    between atoms: O_3  and  C_4 
REMARK    3  A    between atoms: C_5  and  O_6 
REMARK    4  A    between atoms: O_6  and  C_7 
REMARK    5  A    between atoms: C_7  and  C_8 
REMARK    6  A    between atoms: C_16  and  C_17 
ROOT
HETATM    1  C   UNL     1     -42.797  57.243 -54.841  1.00  0.00     0.102 A 
HETATM    2  C   UNL     1     -43.016  55.962 -54.323  1.00  0.00     0.102 A 
HETATM    3  C   UNL     1     -43.159  54.881 -55.203  1.00  0.00     0.040 A 
HETATM    4  C   UNL     1     -43.025  55.054 -56.582  1.00  0.00     0.014 A 
HETATM    5  C   UNL     1     -42.738  56.314 -57.123  1.00  0.00    -0.007 A 
HETATM    6  C   UNL     1     -42.653  57.398 -56.233  1.00  0.00     0.051 A 
ENDROOT
BRANCH   5   7
HETATM    7  C   UNL     1     -42.611  56.496 -58.632  1.00  0.00     0.264 C 
HETATM    8  O   UNL     1     -43.028  57.807 -59.054  1.00  0.00    -0.321 OA
HETATM    9  C   UNL     1     -44.386  57.941 -59.182  1.00  0.00     0.087 A 
HETATM   10  C   UNL     1     -45.226  56.862 -59.448  1.00  0.00     0.065 A 
HETATM   11  C   UNL     1     -44.918  59.223 -59.066  1.00  0.00     0.038 A 
HETATM   12  C   UNL     1     -44.612  55.540 -59.647  1.00  0.00     0.256 C 
HETATM   13  C   UNL     1     -46.604  57.047 -59.573  1.00  0.00     0.020 A 
HETATM   14  O   UNL     1     -45.250  54.564 -60.019  1.00  0.00    -0.267 OA
HETATM   15  N   UNL     1     -43.268  55.484 -59.415  1.00  0.00    -0.326 N 
HETATM   16  H   UNL     1     -42.858  54.563 -59.479  1.00  0.00     0.165 HD
HETATM   17  C   UNL     1     -47.139  58.329 -59.433  1.00  0.00     0.001 A 
HETATM   18  C   UNL     1     -46.297  59.415 -59.184  1.00  0.00     0.003 A 
ENDBRANCH   5   7
BRANCH   1  19
HETATM   19  O   UNL     1     -42.684  58.438 -54.184  1.00  0.00    -0.349 OA
BRANCH  19  20
HETATM   20  C   UNL     1     -41.419  59.056 -53.983  1.00  0.00     0.171 C 
HETATM   21  C   UNL     1     -40.664  58.423 -52.826  1.00  0.00     0.034 C 
ENDBRANCH  19  20
ENDBRANCH   1  19
BRANCH   2  22
HETATM   22  O   UNL     1     -43.162  55.772 -52.975  1.00  0.00    -0.344 OA
BRANCH  22  23
HETATM   23  C   UNL     1     -43.010  54.413 -52.556  1.00  0.00     0.214 C 
BRANCH  23  24
HETATM   24  C   UNL     1     -41.953  54.364 -51.481  1.00  0.00    -0.034 A 
HETATM   25  C   UNL     1     -40.775  53.629 -51.678  1.00  0.00     0.009 A 
HETATM   26  C   UNL     1     -39.798  53.577 -50.683  1.00  0.00     0.001 A 
HETATM   27  C   UNL     1     -39.992  54.252 -49.478  1.00  0.00     0.000 A 
HETATM   28  C   UNL     1     -41.166  54.972 -49.266  1.00  0.00     0.001 A 
HETATM   29  C   UNL     1     -42.144  55.026 -50.260  1.00  0.00     0.009 A 
ENDBRANCH  23  24
ENDBRANCH  22  23
ENDBRANCH   2  22
TORSDOF 6
ENDMDL
MODEL 10
REMARK VINA RESULT:      -7.5      1.603      3.925
REMARK  6 active torsions:
REMARK  status: ('A' for Active; 'I' for Inactive)
REMARK    1  A    between atoms: C_2  and  O_3 
REMARK    2  A    between atoms: O_3  and  C_4 
REMARK    3  A    between atoms: C_5  and  O_6 
REMARK    4  A    between atoms: O_6  and  C_7 
REMARK    5  A    between atoms: C_7  and  C_8 
REMARK    6  A    between atoms: C_16  and  C_17 
ROOT
HETATM    1  C   UNL     1     -42.222  56.444 -54.978  1.00  0.00     0.102 A 
HETATM    2  C   UNL     1     -43.394  56.449 -54.213  1.00  0.00     0.102 A 
HETATM    3  C   UNL     1     -44.494  57.200 -54.648  1.00  0.00     0.040 A 
HETATM    4  C   UNL     1     -44.459  57.891 -55.861  1.00  0.00     0.014 A 
HETATM    5  C   UNL     1     -43.322  57.848 -56.679  1.00  0.00    -0.007 A 
HETATM    6  C   UNL     1     -42.207  57.136 -56.204  1.00  0.00     0.051 A 
ENDROOT
BRANCH   5   7
HETATM    7  C   UNL     1     -43.288  58.620 -57.994  1.00  0.00     0.264 C 
HETATM    8  O   UNL     1     -44.601  58.779 -58.561  1.00  0.00    -0.321 OA
HETATM    9  C   UNL     1     -45.040  57.679 -59.253  1.00  0.00     0.087 A 
HETATM   10  C   UNL     1     -44.170  56.764 -59.842  1.00  0.00     0.065 A 
HETATM   11  C   UNL     1     -46.417  57.511 -59.381  1.00  0.00     0.038 A 
HETATM   12  C   UNL     1     -42.725  57.028 -59.754  1.00  0.00     0.256 C 
HETATM   13  C   UNL     1     -44.664  55.661 -60.539  1.00  0.00     0.020 A 
HETATM   14  O   UNL     1     -41.894  56.360 -60.354  1.00  0.00    -0.267 OA
HETATM   15  N   UNL     1     -42.377  58.093 -58.974  1.00  0.00    -0.326 N 
HETATM   16  H   UNL     1     -41.383  58.231 -58.852  1.00  0.00     0.165 HD
HETATM   17  C   UNL     1     -46.044  55.480 -60.647  1.00  0.00     0.001 A 
HETATM   18  C   UNL     1     -46.918  56.405 -60.073  1.00  0.00     0.003 A 
ENDBRANCH   5   7
BRANCH   1  19
HETATM   19  O   UNL     1     -41.022  55.837 -54.725  1.00  0.00    -0.349 OA
BRANCH  19  20
HETATM   20  C   UNL     1     -40.774  54.493 -55.121  1.00  0.00     0.171 C 
HETATM   21  C   UNL     1     -40.609  53.578 -53.919  1.00  0.00     0.034 C 
ENDBRANCH  19  20
ENDBRANCH   1  19
BRANCH   2  22
HETATM   22  O   UNL     1     -43.445  55.788 -53.016  1.00  0.00    -0.344 OA
BRANCH  22  23
HETATM   23  C   UNL     1     -43.953  56.577 -51.935  1.00  0.00     0.214 C 
BRANCH  23  24
HETATM   24  C   UNL     1     -42.861  57.514 -51.478  1.00  0.00    -0.034 A 
HETATM   25  C   UNL     1     -43.072  58.900 -51.478  1.00  0.00     0.009 A 
HETATM   26  C   UNL     1     -42.062  59.769 -51.062  1.00  0.00     0.001 A 
HETATM   27  C   UNL     1     -40.831  59.262 -50.649  1.00  0.00     0.000 A 
HETATM   28  C   UNL     1     -40.606  57.887 -50.660  1.00  0.00     0.001 A 
HETATM   29  C   UNL     1     -41.614  57.015 -51.075  1.00  0.00     0.009 A 
ENDBRANCH  23  24
ENDBRANCH  22  23
ENDBRANCH   2  22
TORSDOF 6
ENDMDL
