MODEL 1
REMARK VINA RESULT:      -8.0      0.000      0.000
REMARK  9 active torsions:
REMARK  status: ('A' for Active; 'I' for Inactive)
REMARK       I    between atoms: C_2  and  N_3 
REMARK    1  A    between atoms: N_3  and  C_4 
REMARK    2  A    between atoms: C_6  and  O_7 
REMARK    3  A    between atoms: O_7  and  C_8 
REMARK    4  A    between atoms: C_8  and  C_9 
REMARK    5  A    between atoms: C_9  and  C_10 
REMARK    6  A    between atoms: C_10  and  C_11 
REMARK    7  A    between atoms: C_11  and  N_12 
REMARK       I    between atoms: N_12  and  C_13 
REMARK    8  A    between atoms: C_13  and  C_14 
REMARK    9  A    between atoms: C_18  and  C_19 
ROOT
HETATM    1  N   UNL     1     -42.238  58.987 -54.047  1.00  0.00    -0.345 N 
HETATM    2  C   UNL     1     -41.060  58.584 -53.475  1.00  0.00     0.270 C 
HETATM    3  O   UNL     1     -40.115  59.344 -53.298  1.00  0.00    -0.266 OA
HETATM    4  H   UNL     1     -42.949  58.307 -54.269  1.00  0.00     0.163 HD
ENDROOT
BRANCH   1   5
HETATM    5  C   UNL     1     -42.431  60.335 -54.514  1.00  0.00     0.217 C 
BRANCH   5   6
HETATM    6  C   UNL     1     -42.410  60.317 -56.033  1.00  0.00    -0.085 C 
BRANCH   6   7
HETATM    7  C   UNL     1     -42.392  60.300 -57.337  1.00  0.00    -0.078 C 
BRANCH   7   8
HETATM    8  C   UNL     1     -42.320  60.262 -58.805  1.00  0.00     0.269 C 
BRANCH   8   9
HETATM    9  O   UNL     1     -41.632  59.079 -59.210  1.00  0.00    -0.339 OA
BRANCH   9  10
HETATM   10  C   UNL     1     -42.294  57.893 -59.043  1.00  0.00     0.072 A 
HETATM   11  C   UNL     1     -42.439  57.194 -57.839  1.00  0.00     0.066 A 
HETATM   12  C   UNL     1     -43.146  55.988 -57.793  1.00  0.00     0.037 A 
HETATM   13  C   UNL     1     -43.704  55.481 -58.973  1.00  0.00     0.029 A 
HETATM   14  C   UNL     1     -43.561  56.170 -60.178  1.00  0.00     0.005 A 
HETATM   15  C   UNL     1     -42.857  57.373 -60.209  1.00  0.00     0.037 A 
BRANCH  12  16
HETATM   16  N   UNL     1     -43.336  55.231 -56.616  1.00  0.00    -0.327 N 
HETATM   17  C   UNL     1     -43.752  55.686 -55.377  1.00  0.00     0.218 C 
HETATM   18  C   UNL     1     -43.846  54.580 -54.356  1.00  0.00     0.117 C 
HETATM   19  O   UNL     1     -44.056  56.837 -55.078  1.00  0.00    -0.274 OA
HETATM   20  H   UNL     1     -43.157  54.239 -56.699  1.00  0.00     0.169 HD
ENDBRANCH  12  16
ENDBRANCH   9  10
ENDBRANCH   8   9
ENDBRANCH   7   8
ENDBRANCH   6   7
ENDBRANCH   5   6
ENDBRANCH   1   5
BRANCH   2  21
HETATM   21  C   UNL     1     -41.012  57.197 -53.098  1.00  0.00     0.120 A 
HETATM   22  N   UNL     1     -41.455  56.767 -51.879  1.00  0.00    -0.272 N 
HETATM   23  H   UNL     1     -41.851  57.340 -51.140  1.00  0.00     0.189 HD
HETATM   24  N   UNL     1     -41.332  55.447 -51.682  1.00  0.00    -0.174 NA
HETATM   25  C   UNL     1     -40.799  54.978 -52.821  1.00  0.00     0.089 A 
HETATM   26  C   UNL     1     -40.585  56.048 -53.736  1.00  0.00     0.071 A 
BRANCH  25  27
HETATM   27  C   UNL     1     -40.505  53.551 -53.006  1.00  0.00    -0.003 A 
HETATM   28  C   UNL     1     -40.179  52.749 -51.899  1.00  0.00     0.053 A 
HETATM   29  C   UNL     1     -39.894  51.416 -52.113  1.00  0.00     0.106 A 
HETATM   30  C   UNL     1     -39.923  50.860 -53.369  1.00  0.00     0.105 A 
HETATM   31  O   UNL     1     -39.556  50.510 -51.154  1.00  0.00    -0.323 OA
HETATM   32  O   UNL     1     -39.609  49.538 -53.361  1.00  0.00    -0.323 OA
HETATM   33  C   UNL     1     -40.243  51.605 -54.481  1.00  0.00     0.040 A 
HETATM   34  C   UNL     1     -39.377  49.323 -51.953  1.00  0.00     0.352 A 
HETATM   35  C   UNL     1     -40.536  52.963 -54.295  1.00  0.00     0.017 A 
ENDBRANCH  25  27
ENDBRANCH   2  21
TORSDOF 9
ENDMDL
MODEL 2
REMARK VINA RESULT:      -7.9      1.946      3.182
REMARK  9 active torsions:
REMARK  status: ('A' for Active; 'I' for Inactive)
REMARK       I    between atoms: C_2  and  N_3 
REMARK    1  A    between atoms: N_3  and  C_4 
REMARK    2  A    between atoms: C_6  and  O_7 
REMARK    3  A    between atoms: O_7  and  C_8 
REMARK    4  A    between atoms: C_8  and  C_9 
REMARK    5  A    between atoms: C_9  and  C_10 
REMARK    6  A    between atoms: C_10  and  C_11 
REMARK    7  A    between atoms: C_11  and  N_12 
REMARK       I    between atoms: N_12  and  C_13 
REMARK    8  A    between atoms: C_13  and  C_14 
REMARK    9  A    between atoms: C_18  and  C_19 
ROOT
HETATM    1  N   UNL     1     -43.046  58.259 -51.012  1.00  0.00    -0.345 N 
HETATM    2  C   UNL     1     -41.713  57.947 -50.947  1.00  0.00     0.270 C 
HETATM    3  O   UNL     1     -40.831  58.797 -50.996  1.00  0.00    -0.266 OA
HETATM    4  H   UNL     1     -43.732  57.523 -51.075  1.00  0.00     0.163 HD
ENDROOT
BRANCH   1   5
HETATM    5  C   UNL     1     -43.500  59.615 -51.179  1.00  0.00     0.217 C 
BRANCH   5   6
HETATM    6  C   UNL     1     -43.561  59.913 -52.667  1.00  0.00    -0.085 C 
BRANCH   6   7
HETATM    7  C   UNL     1     -43.614  60.169 -53.945  1.00  0.00    -0.078 C 
BRANCH   7   8
HETATM    8  C   UNL     1     -43.621  60.473 -55.383  1.00  0.00     0.269 C 
BRANCH   8   9
HETATM    9  O   UNL     1     -42.512  59.826 -56.005  1.00  0.00    -0.339 OA
BRANCH   9  10
HETATM   10  C   UNL     1     -42.633  58.481 -56.237  1.00  0.00     0.072 A 
HETATM   11  C   UNL     1     -43.359  57.888 -57.276  1.00  0.00     0.066 A 
HETATM   12  C   UNL     1     -43.405  56.497 -57.412  1.00  0.00     0.037 A 
HETATM   13  C   UNL     1     -42.717  55.700 -56.488  1.00  0.00     0.029 A 
HETATM   14  C   UNL     1     -41.993  56.284 -55.448  1.00  0.00     0.005 A 
HETATM   15  C   UNL     1     -41.954  57.672 -55.326  1.00  0.00     0.037 A 
BRANCH  12  16
HETATM   16  N   UNL     1     -44.112  55.828 -58.435  1.00  0.00    -0.327 N 
HETATM   17  C   UNL     1     -43.719  55.639 -59.749  1.00  0.00     0.218 C 
HETATM   18  C   UNL     1     -44.739  54.869 -60.552  1.00  0.00     0.117 C 
HETATM   19  O   UNL     1     -42.667  56.002 -60.263  1.00  0.00    -0.274 OA
HETATM   20  H   UNL     1     -45.004  55.433 -58.166  1.00  0.00     0.169 HD
ENDBRANCH  12  16
ENDBRANCH   9  10
ENDBRANCH   8   9
ENDBRANCH   7   8
ENDBRANCH   6   7
ENDBRANCH   5   6
ENDBRANCH   1   5
BRANCH   2  21
HETATM   21  C   UNL     1     -41.422  56.545 -50.821  1.00  0.00     0.120 A 
HETATM   22  N   UNL     1     -41.522  55.895 -49.623  1.00  0.00    -0.272 N 
HETATM   23  H   UNL     1     -41.800  56.300 -48.734  1.00  0.00     0.189 HD
HETATM   24  N   UNL     1     -41.208  54.593 -49.674  1.00  0.00    -0.174 NA
HETATM   25  C   UNL     1     -40.902  54.364 -50.960  1.00  0.00     0.089 A 
HETATM   26  C   UNL     1     -41.026  55.567 -51.712  1.00  0.00     0.071 A 
BRANCH  25  27
HETATM   27  C   UNL     1     -40.498  53.034 -51.433  1.00  0.00    -0.003 A 
HETATM   28  C   UNL     1     -40.398  52.776 -52.812  1.00  0.00     0.053 A 
HETATM   29  C   UNL     1     -40.029  51.510 -53.220  1.00  0.00     0.106 A 
HETATM   30  C   UNL     1     -39.759  50.508 -52.319  1.00  0.00     0.105 A 
HETATM   31  O   UNL     1     -39.893  51.098 -54.509  1.00  0.00    -0.323 OA
HETATM   32  O   UNL     1     -39.418  49.341 -52.927  1.00  0.00    -0.323 OA
HETATM   33  C   UNL     1     -39.838  50.716 -50.961  1.00  0.00     0.040 A 
HETATM   34  C   UNL     1     -39.506  49.723 -54.315  1.00  0.00     0.352 A 
HETATM   35  C   UNL     1     -40.211  51.992 -50.518  1.00  0.00     0.017 A 
ENDBRANCH  25  27
ENDBRANCH   2  21
TORSDOF 9
ENDMDL
MODEL 3
REMARK VINA RESULT:      -7.8      2.301      7.500
REMARK  9 active torsions:
REMARK  status: ('A' for Active; 'I' for Inactive)
REMARK       I    between atoms: C_2  and  N_3 
REMARK    1  A    between atoms: N_3  and  C_4 
REMARK    2  A    between atoms: C_6  and  O_7 
REMARK    3  A    between atoms: O_7  and  C_8 
REMARK    4  A    between atoms: C_8  and  C_9 
REMARK    5  A    between atoms: C_9  and  C_10 
REMARK    6  A    between atoms: C_10  and  C_11 
REMARK    7  A    between atoms: C_11  and  N_12 
REMARK       I    between atoms: N_12  and  C_13 
REMARK    8  A    between atoms: C_13  and  C_14 
REMARK    9  A    between atoms: C_18  and  C_19 
ROOT
HETATM    1  N   UNL     1     -41.030  58.741 -52.489  1.00  0.00    -0.345 N 
HETATM    2  C   UNL     1     -41.821  59.685 -53.089  1.00  0.00     0.270 C 
HETATM    3  O   UNL     1     -42.310  60.627 -52.476  1.00  0.00    -0.266 OA
HETATM    4  H   UNL     1     -40.736  57.927 -53.008  1.00  0.00     0.163 HD
ENDROOT
BRANCH   1   5
HETATM    5  C   UNL     1     -40.750  58.774 -51.077  1.00  0.00     0.217 C 
BRANCH   5   6
HETATM    6  C   UNL     1     -41.012  57.388 -50.511  1.00  0.00    -0.085 C 
BRANCH   6   7
HETATM    7  C   UNL     1     -41.238  56.200 -50.024  1.00  0.00    -0.078 C 
BRANCH   7   8
HETATM    8  C   UNL     1     -41.469  54.838 -49.521  1.00  0.00     0.269 C 
BRANCH   8   9
HETATM    9  O   UNL     1     -40.383  54.001 -49.914  1.00  0.00    -0.339 OA
BRANCH   9  10
HETATM   10  C   UNL     1     -40.457  53.440 -51.161  1.00  0.00     0.072 A 
HETATM   11  C   UNL     1     -41.284  53.867 -52.207  1.00  0.00     0.066 A 
HETATM   12  C   UNL     1     -41.268  53.213 -53.443  1.00  0.00     0.037 A 
HETATM   13  C   UNL     1     -40.416  52.117 -53.622  1.00  0.00     0.029 A 
HETATM   14  C   UNL     1     -39.591  51.683 -52.583  1.00  0.00     0.005 A 
HETATM   15  C   UNL     1     -39.615  52.346 -51.357  1.00  0.00     0.037 A 
BRANCH  12  16
HETATM   16  N   UNL     1     -42.070  53.589 -54.543  1.00  0.00    -0.327 N 
HETATM   17  C   UNL     1     -41.884  54.664 -55.396  1.00  0.00     0.218 C 
HETATM   18  C   UNL     1     -42.946  54.744 -56.464  1.00  0.00     0.117 C 
HETATM   19  O   UNL     1     -40.969  55.480 -55.364  1.00  0.00    -0.274 OA
HETATM   20  H   UNL     1     -42.864  52.991 -54.732  1.00  0.00     0.169 HD
ENDBRANCH  12  16
ENDBRANCH   9  10
ENDBRANCH   8   9
ENDBRANCH   7   8
ENDBRANCH   6   7
ENDBRANCH   5   6
ENDBRANCH   1   5
BRANCH   2  21
HETATM   21  C   UNL     1     -42.038  59.490 -54.498  1.00  0.00     0.120 A 
HETATM   22  N   UNL     1     -41.773  60.472 -55.409  1.00  0.00    -0.272 N 
HETATM   23  H   UNL     1     -41.410  61.401 -55.214  1.00  0.00     0.189 HD
HETATM   24  N   UNL     1     -42.038  60.133 -56.679  1.00  0.00    -0.174 NA
HETATM   25  C   UNL     1     -42.483  58.868 -56.610  1.00  0.00     0.089 A 
HETATM   26  C   UNL     1     -42.496  58.429 -55.256  1.00  0.00     0.071 A 
BRANCH  25  27
HETATM   27  C   UNL     1     -42.885  58.125 -57.811  1.00  0.00    -0.003 A 
HETATM   28  C   UNL     1     -44.214  57.691 -57.959  1.00  0.00     0.053 A 
HETATM   29  C   UNL     1     -44.553  56.983 -59.094  1.00  0.00     0.106 A 
HETATM   30  C   UNL     1     -43.632  56.697 -60.072  1.00  0.00     0.105 A 
HETATM   31  O   UNL     1     -45.787  56.489 -59.385  1.00  0.00    -0.323 OA
HETATM   32  O   UNL     1     -44.168  55.989 -61.101  1.00  0.00    -0.323 OA
HETATM   33  C   UNL     1     -42.322  57.106 -59.973  1.00  0.00     0.040 A 
HETATM   34  C   UNL     1     -45.535  55.861 -60.658  1.00  0.00     0.352 A 
HETATM   35  C   UNL     1     -41.948  57.827 -58.830  1.00  0.00     0.017 A 
ENDBRANCH  25  27
ENDBRANCH   2  21
TORSDOF 9
ENDMDL
MODEL 4
REMARK VINA RESULT:      -7.5      1.906      2.637
REMARK  9 active torsions:
REMARK  status: ('A' for Active; 'I' for Inactive)
REMARK       I    between atoms: C_2  and  N_3 
REMARK    1  A    between atoms: N_3  and  C_4 
REMARK    2  A    between atoms: C_6  and  O_7 
REMARK    3  A    between atoms: O_7  and  C_8 
REMARK    4  A    between atoms: C_8  and  C_9 
REMARK    5  A    between atoms: C_9  and  C_10 
REMARK    6  A    between atoms: C_10  and  C_11 
REMARK    7  A    between atoms: C_11  and  N_12 
REMARK       I    between atoms: N_12  and  C_13 
REMARK    8  A    between atoms: C_13  and  C_14 
REMARK    9  A    between atoms: C_18  and  C_19 
ROOT
HETATM    1  N   UNL     1     -41.862  58.583 -54.397  1.00  0.00    -0.345 N 
HETATM    2  C   UNL     1     -41.535  58.361 -53.085  1.00  0.00     0.270 C 
HETATM    3  O   UNL     1     -41.451  59.264 -52.261  1.00  0.00    -0.266 OA
HETATM    4  H   UNL     1     -41.817  57.827 -55.062  1.00  0.00     0.163 HD
ENDROOT
BRANCH   1   5
HETATM    5  C   UNL     1     -42.095  59.910 -54.905  1.00  0.00     0.217 C 
BRANCH   5   6
HETATM    6  C   UNL     1     -42.100  59.840 -56.423  1.00  0.00    -0.085 C 
BRANCH   6   7
HETATM    7  C   UNL     1     -42.103  59.781 -57.726  1.00  0.00    -0.078 C 
BRANCH   7   8
HETATM    8  C   UNL     1     -42.119  59.661 -59.191  1.00  0.00     0.269 C 
BRANCH   8   9
HETATM    9  O   UNL     1     -41.701  58.346 -59.558  1.00  0.00    -0.339 OA
BRANCH   9  10
HETATM   10  C   UNL     1     -42.676  57.387 -59.627  1.00  0.00     0.072 A 
HETATM   11  C   UNL     1     -43.819  57.433 -60.434  1.00  0.00     0.066 A 
HETATM   12  C   UNL     1     -44.745  56.384 -60.421  1.00  0.00     0.037 A 
HETATM   13  C   UNL     1     -44.517  55.286 -59.583  1.00  0.00     0.029 A 
HETATM   14  C   UNL     1     -43.382  55.235 -58.774  1.00  0.00     0.005 A 
HETATM   15  C   UNL     1     -42.466  56.285 -58.798  1.00  0.00     0.037 A 
BRANCH  12  16
HETATM   16  N   UNL     1     -45.916  56.358 -61.209  1.00  0.00    -0.327 N 
HETATM   17  C   UNL     1     -47.169  56.843 -60.876  1.00  0.00     0.218 C 
HETATM   18  C   UNL     1     -48.179  56.642 -61.978  1.00  0.00     0.117 C 
HETATM   19  O   UNL     1     -47.488  57.407 -59.834  1.00  0.00    -0.274 OA
HETATM   20  H   UNL     1     -45.818  55.947 -62.129  1.00  0.00     0.169 HD
ENDBRANCH  12  16
ENDBRANCH   9  10
ENDBRANCH   8   9
ENDBRANCH   7   8
ENDBRANCH   6   7
ENDBRANCH   5   6
ENDBRANCH   1   5
BRANCH   2  21
HETATM   21  C   UNL     1     -41.294  56.985 -52.744  1.00  0.00     0.120 A 
HETATM   22  N   UNL     1     -41.335  56.547 -51.450  1.00  0.00    -0.272 N 
HETATM   23  H   UNL     1     -41.531  57.106 -50.625  1.00  0.00     0.189 HD
HETATM   24  N   UNL     1     -41.079  55.239 -51.302  1.00  0.00    -0.174 NA
HETATM   25  C   UNL     1     -40.876  54.786 -52.549  1.00  0.00     0.089 A 
HETATM   26  C   UNL     1     -41.003  55.854 -53.482  1.00  0.00     0.071 A 
BRANCH  25  27
HETATM   27  C   UNL     1     -40.562  53.377 -52.817  1.00  0.00    -0.003 A 
HETATM   28  C   UNL     1     -40.102  52.547 -51.780  1.00  0.00     0.053 A 
HETATM   29  C   UNL     1     -39.803  51.232 -52.072  1.00  0.00     0.106 A 
HETATM   30  C   UNL     1     -39.946  50.720 -53.340  1.00  0.00     0.105 A 
HETATM   31  O   UNL     1     -39.344  50.305 -51.188  1.00  0.00    -0.323 OA
HETATM   32  O   UNL     1     -39.596  49.409 -53.414  1.00  0.00    -0.323 OA
HETATM   33  C   UNL     1     -40.399  51.493 -54.384  1.00  0.00     0.040 A 
HETATM   34  C   UNL     1     -39.214  49.153 -52.046  1.00  0.00     0.352 A 
HETATM   35  C   UNL     1     -40.709  52.834 -54.117  1.00  0.00     0.017 A 
ENDBRANCH  25  27
ENDBRANCH   2  21
TORSDOF 9
ENDMDL
MODEL 5
REMARK VINA RESULT:      -7.4      1.987      2.792
REMARK  9 active torsions:
REMARK  status: ('A' for Active; 'I' for Inactive)
REMARK       I    between atoms: C_2  and  N_3 
REMARK    1  A    between atoms: N_3  and  C_4 
REMARK    2  A    between atoms: C_6  and  O_7 
REMARK    3  A    between atoms: O_7  and  C_8 
REMARK    4  A    between atoms: C_8  and  C_9 
REMARK    5  A    between atoms: C_9  and  C_10 
REMARK    6  A    between atoms: C_10  and  C_11 
REMARK    7  A    between atoms: C_11  and  N_12 
REMARK       I    between atoms: N_12  and  C_13 
REMARK    8  A    between atoms: C_13  and  C_14 
REMARK    9  A    between atoms: C_18  and  C_19 
ROOT
HETATM    1  N   UNL     1     -43.678  58.066 -52.890  1.00  0.00    -0.345 N 
HETATM    2  C   UNL     1     -42.310  58.082 -52.974  1.00  0.00     0.270 C 
HETATM    3  O   UNL     1     -41.647  59.096 -52.788  1.00  0.00    -0.266 OA
HETATM    4  H   UNL     1     -44.189  57.238 -53.153  1.00  0.00     0.163 HD
ENDROOT
BRANCH   1   5
HETATM    5  C   UNL     1     -44.434  59.259 -52.609  1.00  0.00     0.217 C 
BRANCH   5   6
HETATM    6  C   UNL     1     -44.965  59.802 -53.925  1.00  0.00    -0.085 C 
BRANCH   6   7
HETATM    7  C   UNL     1     -45.421  60.268 -55.055  1.00  0.00    -0.078 C 
BRANCH   7   8
HETATM    8  C   UNL     1     -45.973  60.753 -56.328  1.00  0.00     0.269 C 
BRANCH   8   9
HETATM    9  O   UNL     1     -44.910  60.926 -57.265  1.00  0.00    -0.339 OA
BRANCH   9  10
HETATM   10  C   UNL     1     -44.144  59.824 -57.539  1.00  0.00     0.072 A 
HETATM   11  C   UNL     1     -44.624  58.552 -57.870  1.00  0.00     0.066 A 
HETATM   12  C   UNL     1     -43.738  57.502 -58.135  1.00  0.00     0.037 A 
HETATM   13  C   UNL     1     -42.360  57.737 -58.057  1.00  0.00     0.029 A 
HETATM   14  C   UNL     1     -41.875  59.002 -57.724  1.00  0.00     0.005 A 
HETATM   15  C   UNL     1     -42.768  60.041 -57.465  1.00  0.00     0.037 A 
BRANCH  12  16
HETATM   16  N   UNL     1     -44.147  56.195 -58.479  1.00  0.00    -0.327 N 
HETATM   17  C   UNL     1     -44.120  55.603 -59.730  1.00  0.00     0.218 C 
HETATM   18  C   UNL     1     -44.635  54.185 -59.710  1.00  0.00     0.117 C 
HETATM   19  O   UNL     1     -43.711  56.103 -60.773  1.00  0.00    -0.274 OA
HETATM   20  H   UNL     1     -44.488  55.626 -57.715  1.00  0.00     0.169 HD
ENDBRANCH  12  16
ENDBRANCH   9  10
ENDBRANCH   8   9
ENDBRANCH   7   8
ENDBRANCH   6   7
ENDBRANCH   5   6
ENDBRANCH   1   5
BRANCH   2  21
HETATM   21  C   UNL     1     -41.707  56.818 -53.300  1.00  0.00     0.120 A 
HETATM   22  N   UNL     1     -41.059  56.616 -54.486  1.00  0.00    -0.272 N 
HETATM   23  H   UNL     1     -40.930  57.294 -55.231  1.00  0.00     0.189 HD
HETATM   24  N   UNL     1     -40.561  55.381 -54.639  1.00  0.00    -0.174 NA
HETATM   25  C   UNL     1     -40.878  54.741 -53.503  1.00  0.00     0.089 A 
HETATM   26  C   UNL     1     -41.598  55.612 -52.637  1.00  0.00     0.071 A 
BRANCH  25  27
HETATM   27  C   UNL     1     -40.503  53.339 -53.275  1.00  0.00    -0.003 A 
HETATM   28  C   UNL     1     -40.355  52.852 -51.965  1.00  0.00     0.053 A 
HETATM   29  C   UNL     1     -39.988  51.533 -51.790  1.00  0.00     0.106 A 
HETATM   30  C   UNL     1     -39.769  50.694 -52.856  1.00  0.00     0.105 A 
HETATM   31  O   UNL     1     -39.798  50.912 -50.594  1.00  0.00    -0.323 OA
HETATM   32  O   UNL     1     -39.414  49.441 -52.467  1.00  0.00    -0.323 OA
HETATM   33  C   UNL     1     -39.908  51.125 -54.155  1.00  0.00     0.040 A 
HETATM   34  C   UNL     1     -39.434  49.587 -51.032  1.00  0.00     0.352 A 
HETATM   35  C   UNL     1     -40.279  52.460 -54.364  1.00  0.00     0.017 A 
ENDBRANCH  25  27
ENDBRANCH   2  21
TORSDOF 9
ENDMDL
MODEL 6
REMARK VINA RESULT:      -7.4      1.496      1.987
REMARK  9 active torsions:
REMARK  status: ('A' for Active; 'I' for Inactive)
REMARK       I    between atoms: C_2  and  N_3 
REMARK    1  A    between atoms: N_3  and  C_4 
REMARK    2  A    between atoms: C_6  and  O_7 
REMARK    3  A    between atoms: O_7  and  C_8 
REMARK    4  A    between atoms: C_8  and  C_9 
REMARK    5  A    between atoms: C_9  and  C_10 
REMARK    6  A    between atoms: C_10  and  C_11 
REMARK    7  A    between atoms: C_11  and  N_12 
REMARK       I    between atoms: N_12  and  C_13 
REMARK    8  A    between atoms: C_13  and  C_14 
REMARK    9  A    between atoms: C_18  and  C_19 
ROOT
HETATM    1  N   UNL     1     -42.939  59.795 -53.286  1.00  0.00    -0.345 N 
HETATM    2  C   UNL     1     -41.733  59.158 -53.411  1.00  0.00     0.270 C 
HETATM    3  O   UNL     1     -40.676  59.763 -53.559  1.00  0.00    -0.266 OA
HETATM    4  H   UNL     1     -43.793  59.258 -53.272  1.00  0.00     0.163 HD
ENDROOT
BRANCH   1   5
HETATM    5  C   UNL     1     -43.050  61.229 -53.357  1.00  0.00     0.217 C 
BRANCH   5   6
HETATM    6  C   UNL     1     -43.074  61.629 -54.822  1.00  0.00    -0.085 C 
BRANCH   6   7
HETATM    7  C   UNL     1     -43.094  61.973 -56.080  1.00  0.00    -0.078 C 
BRANCH   7   8
HETATM    8  C   UNL     1     -43.064  62.343 -57.503  1.00  0.00     0.269 C 
BRANCH   8   9
HETATM    9  O   UNL     1     -41.859  61.853 -58.090  1.00  0.00    -0.339 OA
BRANCH   9  10
HETATM   10  C   UNL     1     -41.916  60.615 -58.671  1.00  0.00     0.072 A 
HETATM   11  C   UNL     1     -41.988  59.392 -57.995  1.00  0.00     0.066 A 
HETATM   12  C   UNL     1     -42.046  58.186 -58.702  1.00  0.00     0.037 A 
HETATM   13  C   UNL     1     -42.025  58.217 -60.102  1.00  0.00     0.029 A 
HETATM   14  C   UNL     1     -41.951  59.433 -60.783  1.00  0.00     0.005 A 
HETATM   15  C   UNL     1     -41.896  60.626 -60.066  1.00  0.00     0.037 A 
BRANCH  12  16
HETATM   16  N   UNL     1     -42.123  56.916 -58.089  1.00  0.00    -0.327 N 
HETATM   17  C   UNL     1     -43.076  56.470 -57.189  1.00  0.00     0.218 C 
HETATM   18  C   UNL     1     -42.835  55.046 -56.752  1.00  0.00     0.117 C 
HETATM   19  O   UNL     1     -44.047  57.093 -56.773  1.00  0.00    -0.274 OA
HETATM   20  H   UNL     1     -41.403  56.257 -58.353  1.00  0.00     0.169 HD
ENDBRANCH  12  16
ENDBRANCH   9  10
ENDBRANCH   8   9
ENDBRANCH   7   8
ENDBRANCH   6   7
ENDBRANCH   5   6
ENDBRANCH   1   5
BRANCH   2  21
HETATM   21  C   UNL     1     -41.795  57.723 -53.358  1.00  0.00     0.120 A 
HETATM   22  N   UNL     1     -42.987  57.054 -53.366  1.00  0.00    -0.272 N 
HETATM   23  H   UNL     1     -43.914  57.466 -53.411  1.00  0.00     0.189 HD
HETATM   24  N   UNL     1     -42.871  55.720 -53.303  1.00  0.00    -0.174 NA
HETATM   25  C   UNL     1     -41.549  55.492 -53.268  1.00  0.00     0.089 A 
HETATM   26  C   UNL     1     -40.840  56.726 -53.301  1.00  0.00     0.071 A 
BRANCH  25  27
HETATM   27  C   UNL     1     -41.002  54.131 -53.195  1.00  0.00    -0.003 A 
HETATM   28  C   UNL     1     -40.771  53.529 -51.946  1.00  0.00     0.053 A 
HETATM   29  C   UNL     1     -40.243  52.255 -51.916  1.00  0.00     0.106 A 
HETATM   30  C   UNL     1     -39.943  51.567 -53.067  1.00  0.00     0.105 A 
HETATM   31  O   UNL     1     -39.955  51.539 -50.795  1.00  0.00    -0.323 OA
HETATM   32  O   UNL     1     -39.430  50.333 -52.817  1.00  0.00    -0.323 OA
HETATM   33  C   UNL     1     -40.158  52.113 -54.312  1.00  0.00     0.040 A 
HETATM   34  C   UNL     1     -39.441  50.323 -51.374  1.00  0.00     0.352 A 
HETATM   35  C   UNL     1     -40.693  53.407 -54.373  1.00  0.00     0.017 A 
ENDBRANCH  25  27
ENDBRANCH   2  21
TORSDOF 9
ENDMDL
MODEL 7
REMARK VINA RESULT:      -7.3     15.281     20.076
REMARK  9 active torsions:
REMARK  status: ('A' for Active; 'I' for Inactive)
REMARK       I    between atoms: C_2  and  N_3 
REMARK    1  A    between atoms: N_3  and  C_4 
REMARK    2  A    between atoms: C_6  and  O_7 
REMARK    3  A    between atoms: O_7  and  C_8 
REMARK    4  A    between atoms: C_8  and  C_9 
REMARK    5  A    between atoms: C_9  and  C_10 
REMARK    6  A    between atoms: C_10  and  C_11 
REMARK    7  A    between atoms: C_11  and  N_12 
REMARK       I    between atoms: N_12  and  C_13 
REMARK    8  A    between atoms: C_13  and  C_14 
REMARK    9  A    between atoms: C_18  and  C_19 
ROOT
HETATM    1  N   UNL     1     -34.587  41.984 -52.607  1.00  0.00    -0.345 N 
HETATM    2  C   UNL     1     -35.780  42.046 -53.276  1.00  0.00     0.270 C 
HETATM    3  O   UNL     1     -36.845  42.274 -52.713  1.00  0.00    -0.266 OA
HETATM    4  H   UNL     1     -33.753  41.690 -53.091  1.00  0.00     0.163 HD
ENDROOT
BRANCH   1   5
HETATM    5  C   UNL     1     -34.509  42.150 -51.179  1.00  0.00     0.217 C 
BRANCH   5   6
HETATM    6  C   UNL     1     -33.610  41.058 -50.624  1.00  0.00    -0.085 C 
BRANCH   6   7
HETATM    7  C   UNL     1     -32.840  40.121 -50.147  1.00  0.00    -0.078 C 
BRANCH   7   8
HETATM    8  C   UNL     1     -31.941  39.102 -49.584  1.00  0.00     0.269 C 
BRANCH   8   9
HETATM    9  O   UNL     1     -30.986  39.737 -48.735  1.00  0.00    -0.339 OA
BRANCH   9  10
HETATM   10  C   UNL     1     -31.060  39.447 -47.399  1.00  0.00     0.072 A 
HETATM   11  C   UNL     1     -30.284  40.026 -46.388  1.00  0.00     0.066 A 
HETATM   12  C   UNL     1     -30.456  39.649 -45.052  1.00  0.00     0.037 A 
HETATM   13  C   UNL     1     -31.413  38.676 -44.736  1.00  0.00     0.029 A 
HETATM   14  C   UNL     1     -32.188  38.093 -45.740  1.00  0.00     0.005 A 
HETATM   15  C   UNL     1     -32.009  38.480 -47.067  1.00  0.00     0.037 A 
BRANCH  12  16
HETATM   16  N   UNL     1     -29.714  40.191 -43.979  1.00  0.00    -0.327 N 
HETATM   17  C   UNL     1     -28.456  39.810 -43.545  1.00  0.00     0.218 C 
HETATM   18  C   UNL     1     -27.980  40.625 -42.368  1.00  0.00     0.117 C 
HETATM   19  O   UNL     1     -27.741  38.940 -44.030  1.00  0.00    -0.274 OA
HETATM   20  H   UNL     1     -30.154  40.954 -43.482  1.00  0.00     0.169 HD
ENDBRANCH  12  16
ENDBRANCH   9  10
ENDBRANCH   8   9
ENDBRANCH   7   8
ENDBRANCH   6   7
ENDBRANCH   5   6
ENDBRANCH   1   5
BRANCH   2  21
HETATM   21  C   UNL     1     -35.694  41.819 -54.694  1.00  0.00     0.120 A 
HETATM   22  N   UNL     1     -34.589  42.175 -55.413  1.00  0.00    -0.272 N 
HETATM   23  H   UNL     1     -33.746  42.614 -55.054  1.00  0.00     0.189 HD
HETATM   24  N   UNL     1     -34.672  41.904 -56.723  1.00  0.00    -0.174 NA
HETATM   25  C   UNL     1     -35.875  41.329 -56.879  1.00  0.00     0.089 A 
HETATM   26  C   UNL     1     -36.547  41.257 -55.625  1.00  0.00     0.071 A 
BRANCH  25  27
HETATM   27  C   UNL     1     -36.352  40.878 -58.192  1.00  0.00    -0.003 A 
HETATM   28  C   UNL     1     -36.045  39.584 -58.648  1.00  0.00     0.053 A 
HETATM   29  C   UNL     1     -36.498  39.200 -59.893  1.00  0.00     0.106 A 
HETATM   30  C   UNL     1     -37.237  40.042 -60.689  1.00  0.00     0.105 A 
HETATM   31  O   UNL     1     -36.282  37.991 -60.481  1.00  0.00    -0.323 OA
HETATM   32  O   UNL     1     -37.580  39.472 -61.874  1.00  0.00    -0.323 OA
HETATM   33  C   UNL     1     -37.567  41.315 -60.281  1.00  0.00     0.040 A 
HETATM   34  C   UNL     1     -36.971  38.172 -61.735  1.00  0.00     0.352 A 
HETATM   35  C   UNL     1     -37.119  41.733 -59.021  1.00  0.00     0.017 A 
ENDBRANCH  25  27
ENDBRANCH   2  21
TORSDOF 9
ENDMDL
MODEL 8
REMARK VINA RESULT:      -7.2      1.731      4.129
REMARK  9 active torsions:
REMARK  status: ('A' for Active; 'I' for Inactive)
REMARK       I    between atoms: C_2  and  N_3 
REMARK    1  A    between atoms: N_3  and  C_4 
REMARK    2  A    between atoms: C_6  and  O_7 
REMARK    3  A    between atoms: O_7  and  C_8 
REMARK    4  A    between atoms: C_8  and  C_9 
REMARK    5  A    between atoms: C_9  and  C_10 
REMARK    6  A    between atoms: C_10  and  C_11 
REMARK    7  A    between atoms: C_11  and  N_12 
REMARK       I    between atoms: N_12  and  C_13 
REMARK    8  A    between atoms: C_13  and  C_14 
REMARK    9  A    between atoms: C_18  and  C_19 
ROOT
HETATM    1  N   UNL     1     -42.253  56.416 -58.903  1.00  0.00    -0.345 N 
HETATM    2  C   UNL     1     -43.368  56.493 -58.110  1.00  0.00     0.270 C 
HETATM    3  O   UNL     1     -44.436  56.943 -58.510  1.00  0.00    -0.266 OA
HETATM    4  H   UNL     1     -41.370  56.138 -58.504  1.00  0.00     0.163 HD
ENDROOT
BRANCH   1   5
HETATM    5  C   UNL     1     -42.254  56.896 -60.260  1.00  0.00     0.217 C 
BRANCH   5   6
HETATM    6  C   UNL     1     -42.243  58.415 -60.224  1.00  0.00    -0.085 C 
BRANCH   6   7
HETATM    7  C   UNL     1     -42.232  59.719 -60.192  1.00  0.00    -0.078 C 
BRANCH   7   8
HETATM    8  C   UNL     1     -42.266  61.187 -60.127  1.00  0.00     0.269 C 
BRANCH   8   9
HETATM    9  O   UNL     1     -41.827  61.609 -58.836  1.00  0.00    -0.339 OA
BRANCH   9  10
HETATM   10  C   UNL     1     -42.410  60.999 -57.757  1.00  0.00     0.072 A 
HETATM   11  C   UNL     1     -41.772  60.138 -56.856  1.00  0.00     0.066 A 
HETATM   12  C   UNL     1     -42.475  59.577 -55.785  1.00  0.00     0.037 A 
HETATM   13  C   UNL     1     -43.832  59.883 -55.627  1.00  0.00     0.029 A 
HETATM   14  C   UNL     1     -44.476  60.738 -56.523  1.00  0.00     0.005 A 
HETATM   15  C   UNL     1     -43.763  61.292 -57.584  1.00  0.00     0.037 A 
BRANCH  12  16
HETATM   16  N   UNL     1     -41.899  58.705 -54.835  1.00  0.00    -0.327 N 
HETATM   17  C   UNL     1     -41.404  59.027 -53.583  1.00  0.00     0.218 C 
HETATM   18  C   UNL     1     -40.868  57.825 -52.846  1.00  0.00     0.117 C 
HETATM   19  O   UNL     1     -41.396  60.135 -53.057  1.00  0.00    -0.274 OA
HETATM   20  H   UNL     1     -41.857  57.730 -55.103  1.00  0.00     0.169 HD
ENDBRANCH  12  16
ENDBRANCH   9  10
ENDBRANCH   8   9
ENDBRANCH   7   8
ENDBRANCH   6   7
ENDBRANCH   5   6
ENDBRANCH   1   5
BRANCH   2  21
HETATM   21  C   UNL     1     -43.193  56.008 -56.768  1.00  0.00     0.120 A 
HETATM   22  N   UNL     1     -44.037  56.371 -55.756  1.00  0.00    -0.272 N 
HETATM   23  H   UNL     1     -44.842  56.987 -55.828  1.00  0.00     0.189 HD
HETATM   24  N   UNL     1     -43.731  55.840 -54.564  1.00  0.00    -0.174 NA
HETATM   25  C   UNL     1     -42.649  55.080 -54.796  1.00  0.00     0.089 A 
HETATM   26  C   UNL     1     -42.281  55.160 -56.169  1.00  0.00     0.071 A 
BRANCH  25  27
HETATM   27  C   UNL     1     -41.996  54.318 -53.723  1.00  0.00    -0.003 A 
HETATM   28  C   UNL     1     -41.024  53.352 -54.035  1.00  0.00     0.053 A 
HETATM   29  C   UNL     1     -40.442  52.646 -53.003  1.00  0.00     0.106 A 
HETATM   30  C   UNL     1     -40.786  52.864 -51.690  1.00  0.00     0.105 A 
HETATM   31  O   UNL     1     -39.495  51.677 -53.135  1.00  0.00    -0.323 OA
HETATM   32  O   UNL     1     -40.101  52.063 -50.832  1.00  0.00    -0.323 OA
HETATM   33  C   UNL     1     -41.728  53.803 -51.337  1.00  0.00     0.040 A 
HETATM   34  C   UNL     1     -39.284  51.313 -51.756  1.00  0.00     0.352 A 
HETATM   35  C   UNL     1     -42.337  54.536 -52.365  1.00  0.00     0.017 A 
ENDBRANCH  25  27
ENDBRANCH   2  21
TORSDOF 9
ENDMDL
MODEL 9
REMARK VINA RESULT:      -7.1      1.860      2.652
REMARK  9 active torsions:
REMARK  status: ('A' for Active; 'I' for Inactive)
REMARK       I    between atoms: C_2  and  N_3 
REMARK    1  A    between atoms: N_3  and  C_4 
REMARK    2  A    between atoms: C_6  and  O_7 
REMARK    3  A    between atoms: O_7  and  C_8 
REMARK    4  A    between atoms: C_8  and  C_9 
REMARK    5  A    between atoms: C_9  and  C_10 
REMARK    6  A    between atoms: C_10  and  C_11 
REMARK    7  A    between atoms: C_11  and  N_12 
REMARK       I    between atoms: N_12  and  C_13 
REMARK    8  A    between atoms: C_13  and  C_14 
REMARK    9  A    between atoms: C_18  and  C_19 
ROOT
HETATM    1  N   UNL     1     -42.808  59.381 -54.148  1.00  0.00    -0.345 N 
HETATM    2  C   UNL     1     -41.793  59.035 -53.295  1.00  0.00     0.270 C 
HETATM    3  O   UNL     1     -40.980  59.847 -52.868  1.00  0.00    -0.266 OA
HETATM    4  H   UNL     1     -43.388  58.665 -54.557  1.00  0.00     0.163 HD
ENDROOT
BRANCH   1   5
HETATM    5  C   UNL     1     -42.965  60.728 -54.631  1.00  0.00     0.217 C 
BRANCH   5   6
HETATM    6  C   UNL     1     -43.850  60.688 -55.866  1.00  0.00    -0.085 C 
BRANCH   6   7
HETATM    7  C   UNL     1     -44.610  60.652 -56.925  1.00  0.00    -0.078 C 
BRANCH   7   8
HETATM    8  C   UNL     1     -45.507  60.592 -58.088  1.00  0.00     0.269 C 
BRANCH   8   9
HETATM    9  O   UNL     1     -44.725  60.505 -59.279  1.00  0.00    -0.339 OA
BRANCH   9  10
HETATM   10  C   UNL     1     -44.027  59.344 -59.475  1.00  0.00     0.072 A 
HETATM   11  C   UNL     1     -44.494  58.050 -59.216  1.00  0.00     0.066 A 
HETATM   12  C   UNL     1     -43.685  56.936 -59.462  1.00  0.00     0.037 A 
HETATM   13  C   UNL     1     -42.393  57.131 -59.966  1.00  0.00     0.029 A 
HETATM   14  C   UNL     1     -41.919  58.418 -60.223  1.00  0.00     0.005 A 
HETATM   15  C   UNL     1     -42.737  59.519 -59.977  1.00  0.00     0.037 A 
BRANCH  12  16
HETATM   16  N   UNL     1     -44.089  55.603 -59.230  1.00  0.00    -0.327 N 
HETATM   17  C   UNL     1     -44.605  54.704 -60.148  1.00  0.00     0.218 C 
HETATM   18  C   UNL     1     -44.918  53.363 -59.531  1.00  0.00     0.117 C 
HETATM   19  O   UNL     1     -44.786  54.897 -61.346  1.00  0.00    -0.274 OA
HETATM   20  H   UNL     1     -43.973  55.268 -58.282  1.00  0.00     0.169 HD
ENDBRANCH  12  16
ENDBRANCH   9  10
ENDBRANCH   8   9
ENDBRANCH   7   8
ENDBRANCH   6   7
ENDBRANCH   5   6
ENDBRANCH   1   5
BRANCH   2  21
HETATM   21  C   UNL     1     -41.750  57.643 -52.937  1.00  0.00     0.120 A 
HETATM   22  N   UNL     1     -42.707  57.073 -52.146  1.00  0.00    -0.272 N 
HETATM   23  H   UNL     1     -43.516  57.536 -51.743  1.00  0.00     0.189 HD
HETATM   24  N   UNL     1     -42.515  55.769 -51.899  1.00  0.00    -0.174 NA
HETATM   25  C   UNL     1     -41.393  55.456 -52.566  1.00  0.00     0.089 A 
HETATM   26  C   UNL     1     -40.883  56.607 -53.231  1.00  0.00     0.071 A 
BRANCH  25  27
HETATM   27  C   UNL     1     -40.837  54.097 -52.548  1.00  0.00    -0.003 A 
HETATM   28  C   UNL     1     -40.831  53.322 -53.721  1.00  0.00     0.053 A 
HETATM   29  C   UNL     1     -40.314  52.044 -53.663  1.00  0.00     0.106 A 
HETATM   30  C   UNL     1     -39.809  51.518 -52.498  1.00  0.00     0.105 A 
HETATM   31  O   UNL     1     -40.241  51.167 -54.701  1.00  0.00    -0.323 OA
HETATM   32  O   UNL     1     -39.353  50.247 -52.655  1.00  0.00    -0.323 OA
HETATM   33  C   UNL     1     -39.788  52.242 -51.328  1.00  0.00     0.040 A 
HETATM   34  C   UNL     1     -39.631  50.031 -54.054  1.00  0.00     0.352 A 
HETATM   35  C   UNL     1     -40.308  53.543 -51.356  1.00  0.00     0.017 A 
ENDBRANCH  25  27
ENDBRANCH   2  21
TORSDOF 9
ENDMDL
MODEL 10
REMARK VINA RESULT:      -7.0      2.499      7.598
REMARK  9 active torsions:
REMARK  status: ('A' for Active; 'I' for Inactive)
REMARK       I    between atoms: C_2  and  N_3 
REMARK    1  A    between atoms: N_3  and  C_4 
REMARK    2  A    between atoms: C_6  and  O_7 
REMARK    3  A    between atoms: O_7  and  C_8 
REMARK    4  A    between atoms: C_8  and  C_9 
REMARK    5  A    between atoms: C_9  and  C_10 
REMARK    6  A    between atoms: C_10  and  C_11 
REMARK    7  A    between atoms: C_11  and  N_12 
REMARK       I    between atoms: N_12  and  C_13 
REMARK    8  A    between atoms: C_13  and  C_14 
REMARK    9  A    between atoms: C_18  and  C_19 
ROOT
HETATM    1  N   UNL     1     -41.601  59.090 -52.112  1.00  0.00    -0.345 N 
HETATM    2  C   UNL     1     -40.878  59.076 -53.276  1.00  0.00     0.270 C 
HETATM    3  O   UNL     1     -39.654  59.015 -53.295  1.00  0.00    -0.266 OA
HETATM    4  H   UNL     1     -42.597  59.248 -52.140  1.00  0.00     0.163 HD
ENDROOT
BRANCH   1   5
HETATM    5  C   UNL     1     -40.961  59.069 -50.823  1.00  0.00     0.217 C 
BRANCH   5   6
HETATM    6  C   UNL     1     -41.039  57.651 -50.281  1.00  0.00    -0.085 C 
BRANCH   6   7
HETATM    7  C   UNL     1     -41.105  56.435 -49.815  1.00  0.00    -0.078 C 
BRANCH   7   8
HETATM    8  C   UNL     1     -41.229  55.075 -49.271  1.00  0.00     0.269 C 
BRANCH   8   9
HETATM    9  O   UNL     1     -42.344  54.426 -49.881  1.00  0.00    -0.339 OA
BRANCH   9  10
HETATM   10  C   UNL     1     -42.266  54.204 -51.230  1.00  0.00     0.072 A 
HETATM   11  C   UNL     1     -41.496  53.218 -51.857  1.00  0.00     0.066 A 
HETATM   12  C   UNL     1     -41.501  53.086 -53.250  1.00  0.00     0.037 A 
HETATM   13  C   UNL     1     -42.285  53.960 -54.013  1.00  0.00     0.029 A 
HETATM   14  C   UNL     1     -43.052  54.947 -53.395  1.00  0.00     0.005 A 
HETATM   15  C   UNL     1     -43.040  55.066 -52.006  1.00  0.00     0.037 A 
BRANCH  12  16
HETATM   16  N   UNL     1     -40.755  52.114 -53.952  1.00  0.00    -0.327 N 
HETATM   17  C   UNL     1     -39.826  51.226 -53.435  1.00  0.00     0.218 C 
HETATM   18  C   UNL     1     -39.233  50.330 -54.493  1.00  0.00     0.117 C 
HETATM   19  O   UNL     1     -39.496  51.106 -52.260  1.00  0.00    -0.274 OA
HETATM   20  H   UNL     1     -40.933  52.057 -54.946  1.00  0.00     0.169 HD
ENDBRANCH  12  16
ENDBRANCH   9  10
ENDBRANCH   8   9
ENDBRANCH   7   8
ENDBRANCH   6   7
ENDBRANCH   5   6
ENDBRANCH   1   5
BRANCH   2  21
HETATM   21  C   UNL     1     -41.663  59.143 -54.479  1.00  0.00     0.120 A 
HETATM   22  N   UNL     1     -41.952  60.333 -55.084  1.00  0.00    -0.272 N 
HETATM   23  H   UNL     1     -41.662  61.257 -54.778  1.00  0.00     0.189 HD
HETATM   24  N   UNL     1     -42.701  60.222 -56.191  1.00  0.00    -0.174 NA
HETATM   25  C   UNL     1     -42.904  58.903 -56.336  1.00  0.00     0.089 A 
HETATM   26  C   UNL     1     -42.267  58.192 -55.280  1.00  0.00     0.071 A 
BRANCH  25  27
HETATM   27  C   UNL     1     -43.693  58.361 -57.450  1.00  0.00    -0.003 A 
HETATM   28  C   UNL     1     -43.359  57.117 -58.011  1.00  0.00     0.053 A 
HETATM   29  C   UNL     1     -44.114  56.646 -59.066  1.00  0.00     0.106 A 
HETATM   30  C   UNL     1     -45.175  57.356 -59.573  1.00  0.00     0.105 A 
HETATM   31  O   UNL     1     -43.918  55.470 -59.722  1.00  0.00    -0.323 OA
HETATM   32  O   UNL     1     -45.781  56.719 -60.609  1.00  0.00    -0.323 OA
HETATM   33  C   UNL     1     -45.543  58.576 -59.051  1.00  0.00     0.040 A 
HETATM   34  C   UNL     1     -44.978  55.523 -60.698  1.00  0.00     0.352 A 
HETATM   35  C   UNL     1     -44.793  59.080 -57.979  1.00  0.00     0.017 A 
ENDBRANCH  25  27
ENDBRANCH   2  21
TORSDOF 9
ENDMDL
