MODEL 1
REMARK VINA RESULT:      -8.0      0.000      0.000
REMARK  3 active torsions:
REMARK  status: ('A' for Active; 'I' for Inactive)
REMARK    1  A    between atoms: C_4  and  C_5 
REMARK       I    between atoms: C_5  and  N_6 
REMARK    2  A    between atoms: C_16  and  C_17 
REMARK    3  A    between atoms: C_27  and  O_28 
ROOT
HETATM    1  C   UNL     1     -43.761  58.178 -56.507  1.00  0.00     0.275 C 
HETATM    2  N   UNL     1     -43.610  57.567 -55.254  1.00  0.00    -0.339 N 
HETATM    3  C   UNL     1     -43.586  58.401 -54.066  1.00  0.00     0.123 C 
HETATM    4  C   UNL     1     -43.619  57.410 -52.876  1.00  0.00     0.221 C 
HETATM    5  N   UNL     1     -42.462  57.728 -51.924  1.00  0.00    -0.064 N 
HETATM    6  H   UNL     1     -42.478  57.071 -51.133  1.00  0.00     0.280 HD
HETATM    7  C   UNL     1     -41.072  57.697 -52.544  1.00  0.00     0.236 C 
HETATM    8  C   UNL     1     -41.081  58.534 -53.817  1.00  0.00     0.034 C 
HETATM    9  C   UNL     1     -42.378  59.351 -53.909  1.00  0.00     0.014 C 
HETATM   10  C   UNL     1     -42.555  60.118 -52.577  1.00  0.00     0.034 C 
HETATM   11  C   UNL     1     -42.677  59.146 -51.391  1.00  0.00     0.236 C 
HETATM   12  C   UNL     1     -43.739  55.981 -53.476  1.00  0.00     0.070 C 
HETATM   13  C   UNL     1     -44.189  56.267 -54.921  1.00  0.00     0.138 C 
HETATM   14  O   UNL     1     -43.838  59.406 -56.604  1.00  0.00    -0.266 OA
ENDROOT
BRANCH   1  15
HETATM   15  C   UNL     1     -43.849  57.361 -57.762  1.00  0.00     0.157 A 
HETATM   16  N   UNL     1     -42.694  56.820 -58.234  1.00  0.00    -0.253 NA
HETATM   17  C   UNL     1     -42.790  56.089 -59.369  1.00  0.00     0.117 A 
HETATM   18  C   UNL     1     -43.976  55.873 -60.054  1.00  0.00     0.022 A 
HETATM   19  C   UNL     1     -45.141  56.452 -59.562  1.00  0.00     0.040 A 
HETATM   20  C   UNL     1     -45.082  57.221 -58.406  1.00  0.00     0.100 A 
BRANCH  20  21
HETATM   21  O   UNL     1     -46.249  57.790 -57.981  1.00  0.00    -0.358 OA
HETATM   22  H   UNL     1     -46.543  57.326 -57.165  1.00  0.00     0.218 HD
ENDBRANCH  20  21
ENDBRANCH   1  15
BRANCH  12  23
HETATM   23  C   UNL     1     -42.573  55.022 -53.348  1.00  0.00    -0.044 A 
HETATM   24  C   UNL     1     -41.699  54.860 -54.438  1.00  0.00     0.050 A 
HETATM   25  C   UNL     1     -40.609  53.991 -54.353  1.00  0.00     0.119 A 
HETATM   26  F   UNL     1     -39.809  53.848 -55.416  1.00  0.00    -0.206 F 
HETATM   27  C   UNL     1     -40.352  53.269 -53.199  1.00  0.00     0.084 A 
HETATM   28  C   UNL     1     -41.200  53.434 -52.116  1.00  0.00     0.119 A 
HETATM   29  F   UNL     1     -40.978  52.739 -50.994  1.00  0.00    -0.206 F 
HETATM   30  C   UNL     1     -42.296  54.297 -52.176  1.00  0.00     0.050 A 
ENDBRANCH  12  23
TORSDOF 3
ENDMDL
MODEL 2
REMARK VINA RESULT:      -7.9      0.223      1.562
REMARK  3 active torsions:
REMARK  status: ('A' for Active; 'I' for Inactive)
REMARK    1  A    between atoms: C_4  and  C_5 
REMARK       I    between atoms: C_5  and  N_6 
REMARK    2  A    between atoms: C_16  and  C_17 
REMARK    3  A    between atoms: C_27  and  O_28 
ROOT
HETATM    1  C   UNL     1     -43.734  58.289 -56.454  1.00  0.00     0.275 C 
HETATM    2  N   UNL     1     -43.576  57.693 -55.195  1.00  0.00    -0.339 N 
HETATM    3  C   UNL     1     -43.529  58.544 -54.018  1.00  0.00     0.123 C 
HETATM    4  C   UNL     1     -43.561  57.570 -52.814  1.00  0.00     0.221 C 
HETATM    5  N   UNL     1     -42.390  57.886 -51.880  1.00  0.00    -0.064 N 
HETATM    6  H   UNL     1     -42.405  57.241 -51.079  1.00  0.00     0.280 HD
HETATM    7  C   UNL     1     -41.008  57.830 -52.514  1.00  0.00     0.236 C 
HETATM    8  C   UNL     1     -41.020  58.649 -53.798  1.00  0.00     0.034 C 
HETATM    9  C   UNL     1     -42.308  59.481 -53.888  1.00  0.00     0.014 C 
HETATM   10  C   UNL     1     -42.461  60.268 -52.565  1.00  0.00     0.034 C 
HETATM   11  C   UNL     1     -42.581  59.315 -51.365  1.00  0.00     0.236 C 
HETATM   12  C   UNL     1     -43.705  56.134 -53.393  1.00  0.00     0.070 C 
HETATM   13  C   UNL     1     -44.167  56.406 -54.837  1.00  0.00     0.138 C 
HETATM   14  O   UNL     1     -43.796  59.516 -56.568  1.00  0.00    -0.266 OA
ENDROOT
BRANCH   1  15
HETATM   15  C   UNL     1     -43.846  57.456 -57.697  1.00  0.00     0.157 A 
HETATM   16  N   UNL     1     -42.756  56.726 -58.056  1.00  0.00    -0.253 NA
HETATM   17  C   UNL     1     -42.872  55.983 -59.182  1.00  0.00     0.117 A 
HETATM   18  C   UNL     1     -44.016  55.933 -59.963  1.00  0.00     0.022 A 
HETATM   19  C   UNL     1     -45.112  56.703 -59.584  1.00  0.00     0.040 A 
HETATM   20  C   UNL     1     -45.027  57.489 -58.443  1.00  0.00     0.100 A 
BRANCH  20  21
HETATM   21  O   UNL     1     -46.122  58.247 -58.131  1.00  0.00    -0.358 OA
HETATM   22  H   UNL     1     -46.659  58.368 -58.944  1.00  0.00     0.218 HD
ENDBRANCH  20  21
ENDBRANCH   1  15
BRANCH  12  23
HETATM   23  C   UNL     1     -42.550  55.163 -53.265  1.00  0.00    -0.044 A 
HETATM   24  C   UNL     1     -42.411  54.419 -52.079  1.00  0.00     0.050 A 
HETATM   25  C   UNL     1     -41.363  53.509 -51.930  1.00  0.00     0.119 A 
HETATM   26  F   UNL     1     -41.251  52.831 -50.781  1.00  0.00    -0.206 F 
HETATM   27  C   UNL     1     -40.435  53.305 -52.939  1.00  0.00     0.084 A 
HETATM   28  C   UNL     1     -40.574  54.023 -54.116  1.00  0.00     0.119 A 
HETATM   29  F   UNL     1     -39.684  53.853 -55.100  1.00  0.00    -0.206 F 
HETATM   30  C   UNL     1     -41.613  54.940 -54.289  1.00  0.00     0.050 A 
ENDBRANCH  12  23
TORSDOF 3
ENDMDL
MODEL 3
REMARK VINA RESULT:      -7.8      3.286      6.099
REMARK  3 active torsions:
REMARK  status: ('A' for Active; 'I' for Inactive)
REMARK    1  A    between atoms: C_4  and  C_5 
REMARK       I    between atoms: C_5  and  N_6 
REMARK    2  A    between atoms: C_16  and  C_17 
REMARK    3  A    between atoms: C_27  and  O_28 
ROOT
HETATM    1  C   UNL     1     -42.817  57.258 -51.831  1.00  0.00     0.275 C 
HETATM    2  N   UNL     1     -42.982  56.510 -53.005  1.00  0.00    -0.339 N 
HETATM    3  C   UNL     1     -42.570  55.117 -53.012  1.00  0.00     0.123 C 
HETATM    4  C   UNL     1     -43.077  54.552 -54.362  1.00  0.00     0.221 C 
HETATM    5  N   UNL     1     -41.914  53.878 -55.094  1.00  0.00    -0.064 N 
HETATM    6  H   UNL     1     -42.245  53.503 -55.993  1.00  0.00     0.280 HD
HETATM    7  C   UNL     1     -40.703  54.760 -55.360  1.00  0.00     0.236 C 
HETATM    8  C   UNL     1     -40.305  55.456 -54.065  1.00  0.00     0.034 C 
HETATM    9  C   UNL     1     -41.057  54.840 -52.876  1.00  0.00     0.014 C 
HETATM   10  C   UNL     1     -40.855  53.307 -52.926  1.00  0.00     0.034 C 
HETATM   11  C   UNL     1     -41.431  52.715 -54.224  1.00  0.00     0.236 C 
HETATM   12  C   UNL     1     -43.859  55.695 -55.069  1.00  0.00     0.070 C 
HETATM   13  C   UNL     1     -44.111  56.685 -53.915  1.00  0.00     0.138 C 
HETATM   14  O   UNL     1     -42.300  56.755 -50.830  1.00  0.00    -0.266 OA
ENDROOT
BRANCH   1  15
HETATM   15  C   UNL     1     -43.276  58.684 -51.750  1.00  0.00     0.157 A 
HETATM   16  N   UNL     1     -42.524  59.617 -52.393  1.00  0.00    -0.253 NA
HETATM   17  C   UNL     1     -42.949  60.899 -52.306  1.00  0.00     0.117 A 
HETATM   18  C   UNL     1     -44.084  61.294 -51.614  1.00  0.00     0.022 A 
HETATM   19  C   UNL     1     -44.827  60.324 -50.949  1.00  0.00     0.040 A 
HETATM   20  C   UNL     1     -44.415  58.998 -51.002  1.00  0.00     0.100 A 
BRANCH  20  21
HETATM   21  O   UNL     1     -45.165  58.089 -50.310  1.00  0.00    -0.358 OA
HETATM   22  H   UNL     1     -45.885  58.569 -49.845  1.00  0.00     0.218 HD
ENDBRANCH  20  21
ENDBRANCH   1  15
BRANCH  12  23
HETATM   23  C   UNL     1     -43.291  56.315 -56.329  1.00  0.00    -0.044 A 
HETATM   24  C   UNL     1     -43.369  55.599 -57.538  1.00  0.00     0.050 A 
HETATM   25  C   UNL     1     -42.863  56.144 -58.720  1.00  0.00     0.119 A 
HETATM   26  F   UNL     1     -42.938  55.427 -59.848  1.00  0.00    -0.206 F 
HETATM   27  C   UNL     1     -42.277  57.399 -58.742  1.00  0.00     0.084 A 
HETATM   28  C   UNL     1     -42.209  58.116 -57.559  1.00  0.00     0.119 A 
HETATM   29  F   UNL     1     -41.637  59.326 -57.553  1.00  0.00    -0.206 F 
HETATM   30  C   UNL     1     -42.708  57.594 -56.363  1.00  0.00     0.050 A 
ENDBRANCH  12  23
TORSDOF 3
ENDMDL
MODEL 4
REMARK VINA RESULT:      -7.5      3.283      5.994
REMARK  3 active torsions:
REMARK  status: ('A' for Active; 'I' for Inactive)
REMARK    1  A    between atoms: C_4  and  C_5 
REMARK       I    between atoms: C_5  and  N_6 
REMARK    2  A    between atoms: C_16  and  C_17 
REMARK    3  A    between atoms: C_27  and  O_28 
ROOT
HETATM    1  C   UNL     1     -41.722  54.863 -52.065  1.00  0.00     0.275 C 
HETATM    2  N   UNL     1     -41.845  56.016 -52.853  1.00  0.00    -0.339 N 
HETATM    3  C   UNL     1     -42.442  57.204 -52.269  1.00  0.00     0.123 C 
HETATM    4  C   UNL     1     -42.232  58.321 -53.321  1.00  0.00     0.221 C 
HETATM    5  N   UNL     1     -43.576  58.991 -53.620  1.00  0.00    -0.064 N 
HETATM    6  H   UNL     1     -43.443  59.732 -54.320  1.00  0.00     0.280 HD
HETATM    7  C   UNL     1     -44.680  58.064 -54.109  1.00  0.00     0.236 C 
HETATM    8  C   UNL     1     -44.773  56.869 -53.169  1.00  0.00     0.034 C 
HETATM    9  C   UNL     1     -43.941  57.119 -51.903  1.00  0.00     0.014 C 
HETATM   10  C   UNL     1     -44.358  58.491 -51.321  1.00  0.00     0.034 C 
HETATM   11  C   UNL     1     -44.077  59.625 -52.320  1.00  0.00     0.236 C 
HETATM   12  C   UNL     1     -41.417  57.699 -54.490  1.00  0.00     0.070 C 
HETATM   13  C   UNL     1     -40.856  56.413 -53.852  1.00  0.00     0.138 C 
HETATM   14  O   UNL     1     -42.145  54.844 -50.906  1.00  0.00    -0.266 OA
ENDROOT
BRANCH   1  15
HETATM   15  C   UNL     1     -41.063  53.626 -52.599  1.00  0.00     0.157 A 
HETATM   16  N   UNL     1     -41.504  53.154 -53.796  1.00  0.00    -0.253 NA
HETATM   17  C   UNL     1     -40.901  52.034 -54.262  1.00  0.00     0.117 A 
HETATM   18  C   UNL     1     -39.885  51.367 -53.595  1.00  0.00     0.022 A 
HETATM   19  C   UNL     1     -39.463  51.860 -52.364  1.00  0.00     0.040 A 
HETATM   20  C   UNL     1     -40.067  52.998 -51.845  1.00  0.00     0.100 A 
BRANCH  20  21
HETATM   21  O   UNL     1     -39.635  53.424 -50.621  1.00  0.00    -0.358 OA
HETATM   22  H   UNL     1     -40.036  52.850 -49.932  1.00  0.00     0.218 HD
ENDBRANCH  20  21
ENDBRANCH   1  15
BRANCH  12  23
HETATM   23  C   UNL     1     -42.081  57.506 -55.838  1.00  0.00    -0.044 A 
HETATM   24  C   UNL     1     -42.255  58.620 -56.679  1.00  0.00     0.050 A 
HETATM   25  C   UNL     1     -42.855  58.477 -57.932  1.00  0.00     0.119 A 
HETATM   26  F   UNL     1     -43.021  59.561 -58.699  1.00  0.00    -0.206 F 
HETATM   27  C   UNL     1     -43.291  57.243 -58.386  1.00  0.00     0.084 A 
HETATM   28  C   UNL     1     -43.110  56.139 -57.569  1.00  0.00     0.119 A 
HETATM   29  F   UNL     1     -43.533  54.938 -57.981  1.00  0.00    -0.206 F 
HETATM   30  C   UNL     1     -42.513  56.255 -56.312  1.00  0.00     0.050 A 
ENDBRANCH  12  23
TORSDOF 3
ENDMDL
MODEL 5
REMARK VINA RESULT:      -7.5      3.312      6.051
REMARK  3 active torsions:
REMARK  status: ('A' for Active; 'I' for Inactive)
REMARK    1  A    between atoms: C_4  and  C_5 
REMARK       I    between atoms: C_5  and  N_6 
REMARK    2  A    between atoms: C_16  and  C_17 
REMARK    3  A    between atoms: C_27  and  O_28 
ROOT
HETATM    1  C   UNL     1     -41.846  55.076 -51.886  1.00  0.00     0.275 C 
HETATM    2  N   UNL     1     -41.921  56.267 -52.620  1.00  0.00    -0.339 N 
HETATM    3  C   UNL     1     -42.538  57.431 -52.007  1.00  0.00     0.123 C 
HETATM    4  C   UNL     1     -42.268  58.597 -52.989  1.00  0.00     0.221 C 
HETATM    5  N   UNL     1     -43.590  59.293 -53.320  1.00  0.00    -0.064 N 
HETATM    6  H   UNL     1     -43.417  60.068 -53.975  1.00  0.00     0.280 HD
HETATM    7  C   UNL     1     -44.675  58.403 -53.910  1.00  0.00     0.236 C 
HETATM    8  C   UNL     1     -44.824  57.163 -53.036  1.00  0.00     0.034 C 
HETATM    9  C   UNL     1     -44.053  57.342 -51.720  1.00  0.00     0.014 C 
HETATM   10  C   UNL     1     -44.490  58.687 -51.091  1.00  0.00     0.034 C 
HETATM   11  C   UNL     1     -44.151  59.867 -52.016  1.00  0.00     0.236 C 
HETATM   12  C   UNL     1     -41.400  58.026 -54.147  1.00  0.00     0.070 C 
HETATM   13  C   UNL     1     -40.881  56.705 -53.548  1.00  0.00     0.138 C 
HETATM   14  O   UNL     1     -42.326  55.003 -50.751  1.00  0.00    -0.266 OA
ENDROOT
BRANCH   1  15
HETATM   15  C   UNL     1     -41.170  53.860 -52.448  1.00  0.00     0.157 A 
HETATM   16  N   UNL     1     -41.574  53.435 -53.675  1.00  0.00    -0.253 NA
HETATM   17  C   UNL     1     -40.957  52.335 -54.166  1.00  0.00     0.117 A 
HETATM   18  C   UNL     1     -39.960  51.642 -53.496  1.00  0.00     0.022 A 
HETATM   19  C   UNL     1     -39.576  52.086 -52.235  1.00  0.00     0.040 A 
HETATM   20  C   UNL     1     -40.196  53.203 -51.690  1.00  0.00     0.100 A 
BRANCH  20  21
HETATM   21  O   UNL     1     -39.801  53.581 -50.437  1.00  0.00    -0.358 OA
HETATM   22  H   UNL     1     -39.476  54.507 -50.479  1.00  0.00     0.218 HD
ENDBRANCH  20  21
ENDBRANCH   1  15
BRANCH  12  23
HETATM   23  C   UNL     1     -41.997  57.907 -55.534  1.00  0.00    -0.044 A 
HETATM   24  C   UNL     1     -42.396  56.642 -55.999  1.00  0.00     0.050 A 
HETATM   25  C   UNL     1     -42.958  56.496 -57.270  1.00  0.00     0.119 A 
HETATM   26  F   UNL     1     -43.311  55.275 -57.687  1.00  0.00    -0.206 F 
HETATM   27  C   UNL     1     -43.144  57.586 -58.104  1.00  0.00     0.084 A 
HETATM   28  C   UNL     1     -42.766  58.838 -57.647  1.00  0.00     0.119 A 
HETATM   29  F   UNL     1     -42.924  59.905 -58.440  1.00  0.00    -0.206 F 
HETATM   30  C   UNL     1     -42.202  59.010 -56.382  1.00  0.00     0.050 A 
ENDBRANCH  12  23
TORSDOF 3
ENDMDL
MODEL 6
REMARK VINA RESULT:      -7.4      3.132      6.250
REMARK  3 active torsions:
REMARK  status: ('A' for Active; 'I' for Inactive)
REMARK    1  A    between atoms: C_4  and  C_5 
REMARK       I    between atoms: C_5  and  N_6 
REMARK    2  A    between atoms: C_16  and  C_17 
REMARK    3  A    between atoms: C_27  and  O_28 
ROOT
HETATM    1  C   UNL     1     -43.479  56.837 -51.560  1.00  0.00     0.275 C 
HETATM    2  N   UNL     1     -43.423  56.245 -52.830  1.00  0.00    -0.339 N 
HETATM    3  C   UNL     1     -42.856  54.914 -52.959  1.00  0.00     0.123 C 
HETATM    4  C   UNL     1     -43.138  54.493 -54.422  1.00  0.00     0.221 C 
HETATM    5  N   UNL     1     -41.830  54.045 -55.078  1.00  0.00    -0.064 N 
HETATM    6  H   UNL     1     -42.011  53.767 -56.052  1.00  0.00     0.280 HD
HETATM    7  C   UNL     1     -40.706  55.071 -55.075  1.00  0.00     0.236 C 
HETATM    8  C   UNL     1     -40.540  55.618 -53.663  1.00  0.00     0.034 C 
HETATM    9  C   UNL     1     -41.345  54.772 -52.666  1.00  0.00     0.014 C 
HETATM   10  C   UNL     1     -40.965  53.288 -52.882  1.00  0.00     0.034 C 
HETATM   11  C   UNL     1     -41.317  52.827 -54.305  1.00  0.00     0.236 C 
HETATM   12  C   UNL     1     -43.961  55.640 -55.075  1.00  0.00     0.070 C 
HETATM   13  C   UNL     1     -44.454  56.431 -53.848  1.00  0.00     0.138 C 
HETATM   14  O   UNL     1     -43.024  56.254 -50.572  1.00  0.00    -0.266 OA
ENDROOT
BRANCH   1  15
HETATM   15  C   UNL     1     -44.105  58.185 -51.361  1.00  0.00     0.157 A 
HETATM   16  N   UNL     1     -45.357  58.216 -50.831  1.00  0.00    -0.253 NA
HETATM   17  C   UNL     1     -45.910  59.440 -50.661  1.00  0.00     0.117 A 
HETATM   18  C   UNL     1     -45.278  60.629 -50.991  1.00  0.00     0.022 A 
HETATM   19  C   UNL     1     -44.004  60.570 -51.548  1.00  0.00     0.040 A 
HETATM   20  C   UNL     1     -43.408  59.332 -51.752  1.00  0.00     0.100 A 
BRANCH  20  21
HETATM   21  O   UNL     1     -42.168  59.328 -52.327  1.00  0.00    -0.358 OA
HETATM   22  H   UNL     1     -41.532  59.736 -51.698  1.00  0.00     0.218 HD
ENDBRANCH  20  21
ENDBRANCH   1  15
BRANCH  12  23
HETATM   23  C   UNL     1     -43.329  56.481 -56.165  1.00  0.00    -0.044 A 
HETATM   24  C   UNL     1     -42.841  57.760 -55.844  1.00  0.00     0.050 A 
HETATM   25  C   UNL     1     -42.245  58.559 -56.822  1.00  0.00     0.119 A 
HETATM   26  F   UNL     1     -41.809  59.779 -56.485  1.00  0.00    -0.206 F 
HETATM   27  C   UNL     1     -42.110  58.119 -58.128  1.00  0.00     0.084 A 
HETATM   28  C   UNL     1     -42.575  56.854 -58.449  1.00  0.00     0.119 A 
HETATM   29  F   UNL     1     -42.466  56.411 -59.707  1.00  0.00    -0.206 F 
HETATM   30  C   UNL     1     -43.175  56.036 -57.490  1.00  0.00     0.050 A 
ENDBRANCH  12  23
TORSDOF 3
ENDMDL
MODEL 7
REMARK VINA RESULT:      -7.2      2.841      5.826
REMARK  3 active torsions:
REMARK  status: ('A' for Active; 'I' for Inactive)
REMARK    1  A    between atoms: C_4  and  C_5 
REMARK       I    between atoms: C_5  and  N_6 
REMARK    2  A    between atoms: C_16  and  C_17 
REMARK    3  A    between atoms: C_27  and  O_28 
ROOT
HETATM    1  C   UNL     1     -43.559  57.608 -53.094  1.00  0.00     0.275 C 
HETATM    2  N   UNL     1     -43.255  58.256 -54.299  1.00  0.00    -0.339 N 
HETATM    3  C   UNL     1     -43.845  59.556 -54.565  1.00  0.00     0.123 C 
HETATM    4  C   UNL     1     -43.146  60.062 -55.851  1.00  0.00     0.221 C 
HETATM    5  N   UNL     1     -44.209  60.464 -56.876  1.00  0.00    -0.064 N 
HETATM    6  H   UNL     1     -43.750  60.799 -57.734  1.00  0.00     0.280 HD
HETATM    7  C   UNL     1     -45.201  59.375 -57.259  1.00  0.00     0.236 C 
HETATM    8  C   UNL     1     -45.765  58.753 -55.988  1.00  0.00     0.034 C 
HETATM    9  C   UNL     1     -45.376  59.595 -54.763  1.00  0.00     0.014 C 
HETATM   10  C   UNL     1     -45.773  61.063 -55.049  1.00  0.00     0.034 C 
HETATM   11  C   UNL     1     -45.023  61.612 -56.274  1.00  0.00     0.236 C 
HETATM   12  C   UNL     1     -42.080  58.999 -56.239  1.00  0.00     0.070 C 
HETATM   13  C   UNL     1     -41.944  58.179 -54.941  1.00  0.00     0.138 C 
HETATM   14  O   UNL     1     -44.343  58.115 -52.286  1.00  0.00    -0.266 OA
ENDROOT
BRANCH   1  15
HETATM   15  C   UNL     1     -42.934  56.291 -52.742  1.00  0.00     0.157 A 
HETATM   16  N   UNL     1     -41.925  56.305 -51.831  1.00  0.00    -0.253 NA
HETATM   17  C   UNL     1     -41.368  55.109 -51.527  1.00  0.00     0.117 A 
HETATM   18  C   UNL     1     -41.769  53.905 -52.085  1.00  0.00     0.022 A 
HETATM   19  C   UNL     1     -42.792  53.917 -53.028  1.00  0.00     0.040 A 
HETATM   20  C   UNL     1     -43.379  55.127 -53.377  1.00  0.00     0.100 A 
BRANCH  20  21
HETATM   21  O   UNL     1     -44.360  55.088 -54.327  1.00  0.00    -0.358 OA
HETATM   22  H   UNL     1     -45.085  55.692 -54.052  1.00  0.00     0.218 HD
ENDBRANCH  20  21
ENDBRANCH   1  15
BRANCH  12  23
HETATM   23  C   UNL     1     -42.276  58.175 -57.496  1.00  0.00    -0.044 A 
HETATM   24  C   UNL     1     -41.835  58.693 -58.727  1.00  0.00     0.050 A 
HETATM   25  C   UNL     1     -41.992  57.958 -59.904  1.00  0.00     0.119 A 
HETATM   26  F   UNL     1     -41.577  58.489 -61.060  1.00  0.00    -0.206 F 
HETATM   27  C   UNL     1     -42.577  56.702 -59.897  1.00  0.00     0.084 A 
HETATM   28  C   UNL     1     -43.000  56.179 -58.686  1.00  0.00     0.119 A 
HETATM   29  F   UNL     1     -43.579  54.973 -58.655  1.00  0.00    -0.206 F 
HETATM   30  C   UNL     1     -42.855  56.894 -57.495  1.00  0.00     0.050 A 
ENDBRANCH  12  23
TORSDOF 3
ENDMDL
MODEL 8
REMARK VINA RESULT:      -7.1     16.611     19.452
REMARK  3 active torsions:
REMARK  status: ('A' for Active; 'I' for Inactive)
REMARK    1  A    between atoms: C_4  and  C_5 
REMARK       I    between atoms: C_5  and  N_6 
REMARK    2  A    between atoms: C_16  and  C_17 
REMARK    3  A    between atoms: C_27  and  O_28 
ROOT
HETATM    1  C   UNL     1     -36.076  40.777 -53.269  1.00  0.00     0.275 C 
HETATM    2  N   UNL     1     -35.102  39.782 -53.112  1.00  0.00    -0.339 N 
HETATM    3  C   UNL     1     -34.716  39.384 -51.769  1.00  0.00     0.123 C 
HETATM    4  C   UNL     1     -33.800  38.150 -51.960  1.00  0.00     0.221 C 
HETATM    5  N   UNL     1     -32.485  38.379 -51.210  1.00  0.00    -0.064 N 
HETATM    6  H   UNL     1     -31.871  37.563 -51.336  1.00  0.00     0.280 HD
HETATM    7  C   UNL     1     -31.709  39.626 -51.607  1.00  0.00     0.236 C 
HETATM    8  C   UNL     1     -32.653  40.822 -51.589  1.00  0.00     0.034 C 
HETATM    9  C   UNL     1     -33.981  40.443 -50.917  1.00  0.00     0.014 C 
HETATM   10  C   UNL     1     -33.656  39.797 -49.548  1.00  0.00     0.034 C 
HETATM   11  C   UNL     1     -32.818  38.521 -49.723  1.00  0.00     0.236 C 
HETATM   12  C   UNL     1     -33.762  37.842 -53.484  1.00  0.00     0.070 C 
HETATM   13  C   UNL     1     -34.972  38.637 -54.011  1.00  0.00     0.138 C 
HETATM   14  O   UNL     1     -36.575  41.332 -52.286  1.00  0.00    -0.266 OA
ENDROOT
BRANCH   1  15
HETATM   15  C   UNL     1     -36.554  41.186 -54.631  1.00  0.00     0.157 A 
HETATM   16  N   UNL     1     -37.802  40.789 -54.998  1.00  0.00    -0.253 NA
HETATM   17  C   UNL     1     -38.216  41.163 -56.231  1.00  0.00     0.117 A 
HETATM   18  C   UNL     1     -37.450  41.911 -57.112  1.00  0.00     0.022 A 
HETATM   19  C   UNL     1     -36.170  42.290 -56.721  1.00  0.00     0.040 A 
HETATM   20  C   UNL     1     -35.703  41.914 -55.468  1.00  0.00     0.100 A 
BRANCH  20  21
HETATM   21  O   UNL     1     -34.429  42.288 -55.144  1.00  0.00    -0.358 OA
HETATM   22  H   UNL     1     -34.424  43.254 -54.964  1.00  0.00     0.218 HD
ENDBRANCH  20  21
ENDBRANCH   1  15
BRANCH  12  23
HETATM   23  C   UNL     1     -32.474  38.056 -54.253  1.00  0.00    -0.044 A 
HETATM   24  C   UNL     1     -32.378  39.148 -55.133  1.00  0.00     0.050 A 
HETATM   25  C   UNL     1     -31.203  39.379 -55.852  1.00  0.00     0.119 A 
HETATM   26  F   UNL     1     -31.153  40.418 -56.695  1.00  0.00    -0.206 F 
HETATM   27  C   UNL     1     -30.101  38.551 -55.719  1.00  0.00     0.084 A 
HETATM   28  C   UNL     1     -30.184  37.481 -54.842  1.00  0.00     0.119 A 
HETATM   29  F   UNL     1     -29.136  36.659 -54.705  1.00  0.00    -0.206 F 
HETATM   30  C   UNL     1     -31.347  37.228 -54.112  1.00  0.00     0.050 A 
ENDBRANCH  12  23
TORSDOF 3
ENDMDL
MODEL 9
REMARK VINA RESULT:      -7.0     16.827     18.758
REMARK  3 active torsions:
REMARK  status: ('A' for Active; 'I' for Inactive)
REMARK    1  A    between atoms: C_4  and  C_5 
REMARK       I    between atoms: C_5  and  N_6 
REMARK    2  A    between atoms: C_16  and  C_17 
REMARK    3  A    between atoms: C_27  and  O_28 
ROOT
HETATM    1  C   UNL     1     -37.349  40.728 -55.008  1.00  0.00     0.275 C 
HETATM    2  N   UNL     1     -36.407  39.853 -54.449  1.00  0.00    -0.339 N 
HETATM    3  C   UNL     1     -36.426  39.625 -53.014  1.00  0.00     0.123 C 
HETATM    4  C   UNL     1     -35.418  38.475 -52.774  1.00  0.00     0.221 C 
HETATM    5  N   UNL     1     -34.413  38.902 -51.700  1.00  0.00    -0.064 N 
HETATM    6  H   UNL     1     -33.739  38.142 -51.538  1.00  0.00     0.280 HD
HETATM    7  C   UNL     1     -33.636  40.176 -51.995  1.00  0.00     0.236 C 
HETATM    8  C   UNL     1     -34.616  41.269 -52.403  1.00  0.00     0.034 C 
HETATM    9  C   UNL     1     -36.058  40.827 -52.116  1.00  0.00     0.014 C 
HETATM   10  C   UNL     1     -36.127  40.350 -50.645  1.00  0.00     0.034 C 
HETATM   11  C   UNL     1     -35.195  39.151 -50.408  1.00  0.00     0.236 C 
HETATM   12  C   UNL     1     -34.895  38.028 -54.168  1.00  0.00     0.070 C 
HETATM   13  C   UNL     1     -35.934  38.646 -55.123  1.00  0.00     0.138 C 
HETATM   14  O   UNL     1     -38.159  41.322 -54.292  1.00  0.00    -0.266 OA
ENDROOT
BRANCH   1  15
HETATM   15  C   UNL     1     -37.411  40.956 -56.489  1.00  0.00     0.157 A 
HETATM   16  N   UNL     1     -38.339  40.250 -57.188  1.00  0.00    -0.253 NA
HETATM   17  C   UNL     1     -38.380  40.464 -58.524  1.00  0.00     0.117 A 
HETATM   18  C   UNL     1     -37.545  41.346 -59.193  1.00  0.00     0.022 A 
HETATM   19  C   UNL     1     -36.592  42.045 -58.458  1.00  0.00     0.040 A 
HETATM   20  C   UNL     1     -36.509  41.841 -57.086  1.00  0.00     0.100 A 
BRANCH  20  21
HETATM   21  O   UNL     1     -35.538  42.531 -56.416  1.00  0.00    -0.358 OA
HETATM   22  H   UNL     1     -35.177  41.953 -55.708  1.00  0.00     0.218 HD
ENDBRANCH  20  21
ENDBRANCH   1  15
BRANCH  12  23
HETATM   23  C   UNL     1     -33.450  38.293 -54.540  1.00  0.00    -0.044 A 
HETATM   24  C   UNL     1     -32.443  37.481 -53.988  1.00  0.00     0.050 A 
HETATM   25  C   UNL     1     -31.102  37.692 -54.315  1.00  0.00     0.119 A 
HETATM   26  F   UNL     1     -30.168  36.911 -53.757  1.00  0.00    -0.206 F 
HETATM   27  C   UNL     1     -30.722  38.696 -55.190  1.00  0.00     0.084 A 
HETATM   28  C   UNL     1     -31.710  39.491 -55.749  1.00  0.00     0.119 A 
HETATM   29  F   UNL     1     -31.367  40.476 -56.588  1.00  0.00    -0.206 F 
HETATM   30  C   UNL     1     -33.058  39.301 -55.438  1.00  0.00     0.050 A 
ENDBRANCH  12  23
TORSDOF 3
ENDMDL
MODEL 10
REMARK VINA RESULT:      -7.0      1.669      2.058
REMARK  3 active torsions:
REMARK  status: ('A' for Active; 'I' for Inactive)
REMARK    1  A    between atoms: C_4  and  C_5 
REMARK       I    between atoms: C_5  and  N_6 
REMARK    2  A    between atoms: C_16  and  C_17 
REMARK    3  A    between atoms: C_27  and  O_28 
ROOT
HETATM    1  C   UNL     1     -43.920  59.258 -54.763  1.00  0.00     0.275 C 
HETATM    2  N   UNL     1     -43.574  58.439 -53.679  1.00  0.00    -0.339 N 
HETATM    3  C   UNL     1     -43.177  59.063 -52.428  1.00  0.00     0.123 C 
HETATM    4  C   UNL     1     -43.072  57.899 -51.412  1.00  0.00     0.221 C 
HETATM    5  N   UNL     1     -41.701  57.947 -50.733  1.00  0.00    -0.064 N 
HETATM    6  H   UNL     1     -41.624  57.174 -50.058  1.00  0.00     0.280 HD
HETATM    7  C   UNL     1     -40.500  57.887 -51.666  1.00  0.00     0.236 C 
HETATM    8  C   UNL     1     -40.684  58.917 -52.773  1.00  0.00     0.034 C 
HETATM    9  C   UNL     1     -41.852  59.857 -52.439  1.00  0.00     0.014 C 
HETATM   10  C   UNL     1     -41.627  60.409 -51.011  1.00  0.00     0.034 C 
HETATM   11  C   UNL     1     -41.605  59.274 -49.975  1.00  0.00     0.236 C 
HETATM   12  C   UNL     1     -43.507  56.604 -52.155  1.00  0.00     0.070 C 
HETATM   13  C   UNL     1     -44.227  57.164 -53.397  1.00  0.00     0.138 C 
HETATM   14  O   UNL     1     -43.857  60.487 -54.670  1.00  0.00    -0.266 OA
ENDROOT
BRANCH   1  15
HETATM   15  C   UNL     1     -44.392  58.669 -56.059  1.00  0.00     0.157 A 
HETATM   16  N   UNL     1     -45.702  58.841 -56.381  1.00  0.00    -0.253 NA
HETATM   17  C   UNL     1     -46.113  58.300 -57.552  1.00  0.00     0.117 A 
HETATM   18  C   UNL     1     -45.284  57.599 -58.414  1.00  0.00     0.022 A 
HETATM   19  C   UNL     1     -43.951  57.421 -58.056  1.00  0.00     0.040 A 
HETATM   20  C   UNL     1     -43.495  57.949 -56.854  1.00  0.00     0.100 A 
BRANCH  20  21
HETATM   21  O   UNL     1     -42.185  57.722 -56.537  1.00  0.00    -0.358 OA
HETATM   22  H   UNL     1     -42.009  58.104 -55.648  1.00  0.00     0.218 HD
ENDBRANCH  20  21
ENDBRANCH   1  15
BRANCH  12  23
HETATM   23  C   UNL     1     -42.476  55.532 -52.443  1.00  0.00    -0.044 A 
HETATM   24  C   UNL     1     -41.783  55.563 -53.666  1.00  0.00     0.050 A 
HETATM   25  C   UNL     1     -40.820  54.595 -53.962  1.00  0.00     0.119 A 
HETATM   26  F   UNL     1     -40.192  54.644 -55.142  1.00  0.00    -0.206 F 
HETATM   27  C   UNL     1     -40.516  53.584 -53.065  1.00  0.00     0.084 A 
HETATM   28  C   UNL     1     -41.185  53.555 -51.852  1.00  0.00     0.119 A 
HETATM   29  F   UNL     1     -40.917  52.581 -50.974  1.00  0.00    -0.206 F 
HETATM   30  C   UNL     1     -42.151  54.511 -51.533  1.00  0.00     0.050 A 
ENDBRANCH  12  23
TORSDOF 3
ENDMDL
