MODEL 1
REMARK VINA RESULT:      -8.1      0.000      0.000
REMARK  6 active torsions:
REMARK  status: ('A' for Active; 'I' for Inactive)
REMARK    1  A    between atoms: O_2  and  C_3 
REMARK    2  A    between atoms: C_6  and  C_7 
REMARK    3  A    between atoms: C_7  and  C_8 
REMARK    4  A    between atoms: C_8  and  C_9 
REMARK       I    between atoms: C_9  and  N_10 
REMARK    5  A    between atoms: N_10  and  N_11 
REMARK    6  A    between atoms: C_12  and  C_13 
ROOT
HETATM    1  C   UNL     1     -42.995  55.479 -55.787  1.00  0.00     0.237 C 
HETATM    2  N   UNL     1     -42.423  55.860 -54.581  1.00  0.00    -0.247 N 
HETATM    3  O   UNL     1     -43.271  54.329 -56.118  1.00  0.00    -0.272 OA
HETATM    4  H   UNL     1     -42.241  56.836 -54.381  1.00  0.00     0.192 HD
ENDROOT
BRANCH   2   5
HETATM    5  N   UNL     1     -42.119  54.911 -53.648  1.00  0.00    -0.184 NA
HETATM    6  C   UNL     1     -40.890  54.508 -53.629  1.00  0.00     0.152 C 
BRANCH   6   7
HETATM    7  C   UNL     1     -40.478  53.508 -52.667  1.00  0.00     0.011 A 
HETATM    8  C   UNL     1     -40.180  52.129 -52.919  1.00  0.00     0.004 A 
HETATM    9  C   UNL     1     -39.828  51.550 -51.698  1.00  0.00     0.043 A 
HETATM   10  C   UNL     1     -40.178  51.314 -54.071  1.00  0.00     0.014 A 
HETATM   11  C   UNL     1     -39.473  50.202 -51.570  1.00  0.00     0.030 A 
HETATM   12  N   UNL     1     -39.909  52.536 -50.741  1.00  0.00    -0.364 N 
HETATM   13  C   UNL     1     -39.480  49.418 -52.727  1.00  0.00     0.002 A 
HETATM   14  C   UNL     1     -39.826  49.962 -53.960  1.00  0.00     0.001 A 
HETATM   15  H   UNL     1     -39.710  52.404 -49.759  1.00  0.00     0.165 HD
HETATM   16  C   UNL     1     -40.302  53.714 -51.312  1.00  0.00     0.102 A 
ENDBRANCH   6   7
ENDBRANCH   2   5
BRANCH   1  17
HETATM   17  C   UNL     1     -43.235  56.645 -56.719  1.00  0.00     0.109 C 
BRANCH  17  18
HETATM   18  C   UNL     1     -42.786  56.292 -58.133  1.00  0.00     0.048 C 
BRANCH  18  19
HETATM   19  C   UNL     1     -43.951  56.208 -59.087  1.00  0.00    -0.058 A 
HETATM   20  C   UNL     1     -44.017  55.200 -60.055  1.00  0.00     0.010 A 
HETATM   21  C   UNL     1     -45.103  55.138 -60.931  1.00  0.00     0.037 A 
HETATM   22  C   UNL     1     -46.136  56.075 -60.859  1.00  0.00     0.068 A 
HETATM   23  C   UNL     1     -46.067  57.090 -59.905  1.00  0.00     0.037 A 
HETATM   24  C   UNL     1     -44.981  57.155 -59.025  1.00  0.00     0.010 A 
BRANCH  22  25
HETATM   25  O   UNL     1     -47.140  55.894 -61.769  1.00  0.00    -0.356 OA
HETATM   26  C   UNL     1     -48.174  56.870 -61.783  1.00  0.00     0.210 C 
ENDBRANCH  22  25
ENDBRANCH  18  19
ENDBRANCH  17  18
ENDBRANCH   1  17
TORSDOF 6
ENDMDL
MODEL 2
REMARK VINA RESULT:      -7.6      1.780      2.278
REMARK  6 active torsions:
REMARK  status: ('A' for Active; 'I' for Inactive)
REMARK    1  A    between atoms: O_2  and  C_3 
REMARK    2  A    between atoms: C_6  and  C_7 
REMARK    3  A    between atoms: C_7  and  C_8 
REMARK    4  A    between atoms: C_8  and  C_9 
REMARK       I    between atoms: C_9  and  N_10 
REMARK    5  A    between atoms: N_10  and  N_11 
REMARK    6  A    between atoms: C_12  and  C_13 
ROOT
HETATM    1  C   UNL     1     -44.553  57.005 -53.957  1.00  0.00     0.237 C 
HETATM    2  N   UNL     1     -44.211  55.733 -54.395  1.00  0.00    -0.247 N 
HETATM    3  O   UNL     1     -44.265  57.489 -52.866  1.00  0.00    -0.272 OA
HETATM    4  H   UNL     1     -44.477  55.416 -55.319  1.00  0.00     0.192 HD
ENDROOT
BRANCH   2   5
HETATM    5  N   UNL     1     -43.492  54.908 -53.579  1.00  0.00    -0.184 NA
HETATM    6  C   UNL     1     -42.205  54.990 -53.682  1.00  0.00     0.152 C 
BRANCH   6   7
HETATM    7  C   UNL     1     -41.365  54.154 -52.852  1.00  0.00     0.011 A 
HETATM    8  C   UNL     1     -40.811  52.875 -53.182  1.00  0.00     0.004 A 
HETATM    9  C   UNL     1     -40.070  52.445 -52.079  1.00  0.00     0.043 A 
HETATM   10  C   UNL     1     -40.871  52.035 -54.315  1.00  0.00     0.014 A 
HETATM   11  C   UNL     1     -39.385  51.224 -52.053  1.00  0.00     0.030 A 
HETATM   12  N   UNL     1     -40.168  53.423 -51.116  1.00  0.00    -0.364 N 
HETATM   13  C   UNL     1     -39.462  50.413 -53.188  1.00  0.00     0.002 A 
HETATM   14  C   UNL     1     -40.193  50.810 -54.304  1.00  0.00     0.001 A 
HETATM   15  H   UNL     1     -39.730  53.383 -50.207  1.00  0.00     0.165 HD
HETATM   16  C   UNL     1     -40.946  54.452 -51.569  1.00  0.00     0.102 A 
ENDBRANCH   6   7
ENDBRANCH   2   5
BRANCH   1  17
HETATM   17  C   UNL     1     -45.378  57.773 -54.966  1.00  0.00     0.109 C 
BRANCH  17  18
HETATM   18  C   UNL     1     -44.467  58.531 -55.926  1.00  0.00     0.048 C 
BRANCH  18  19
HETATM   19  C   UNL     1     -44.402  57.869 -57.278  1.00  0.00    -0.058 A 
HETATM   20  C   UNL     1     -43.402  56.938 -57.576  1.00  0.00     0.010 A 
HETATM   21  C   UNL     1     -43.356  56.335 -58.836  1.00  0.00     0.037 A 
HETATM   22  C   UNL     1     -44.300  56.650 -59.815  1.00  0.00     0.068 A 
HETATM   23  C   UNL     1     -45.289  57.590 -59.528  1.00  0.00     0.037 A 
HETATM   24  C   UNL     1     -45.339  58.195 -58.267  1.00  0.00     0.010 A 
BRANCH  22  25
HETATM   25  O   UNL     1     -44.143  55.984 -60.999  1.00  0.00    -0.356 OA
HETATM   26  C   UNL     1     -44.983  54.856 -61.213  1.00  0.00     0.210 C 
ENDBRANCH  22  25
ENDBRANCH  18  19
ENDBRANCH  17  18
ENDBRANCH   1  17
TORSDOF 6
ENDMDL
MODEL 3
REMARK VINA RESULT:      -7.4      2.488      9.703
REMARK  6 active torsions:
REMARK  status: ('A' for Active; 'I' for Inactive)
REMARK    1  A    between atoms: O_2  and  C_3 
REMARK    2  A    between atoms: C_6  and  C_7 
REMARK    3  A    between atoms: C_7  and  C_8 
REMARK    4  A    between atoms: C_8  and  C_9 
REMARK       I    between atoms: C_9  and  N_10 
REMARK    5  A    between atoms: N_10  and  N_11 
REMARK    6  A    between atoms: C_12  and  C_13 
ROOT
HETATM    1  C   UNL     1     -42.361  55.849 -54.972  1.00  0.00     0.237 C 
HETATM    2  N   UNL     1     -41.996  55.512 -56.268  1.00  0.00    -0.247 N 
HETATM    3  O   UNL     1     -43.509  55.883 -54.537  1.00  0.00    -0.272 OA
HETATM    4  H   UNL     1     -41.021  55.494 -56.542  1.00  0.00     0.192 HD
ENDROOT
BRANCH   2   5
HETATM    5  N   UNL     1     -42.958  55.183 -57.178  1.00  0.00    -0.184 NA
HETATM    6  C   UNL     1     -43.180  56.053 -58.109  1.00  0.00     0.152 C 
BRANCH   6   7
HETATM    7  C   UNL     1     -44.180  55.783 -59.120  1.00  0.00     0.011 A 
HETATM    8  C   UNL     1     -45.250  56.640 -59.537  1.00  0.00     0.004 A 
HETATM    9  C   UNL     1     -45.959  55.965 -60.533  1.00  0.00     0.043 A 
HETATM   10  C   UNL     1     -45.687  57.927 -59.161  1.00  0.00     0.014 A 
HETATM   11  C   UNL     1     -47.078  56.512 -61.172  1.00  0.00     0.030 A 
HETATM   12  N   UNL     1     -45.346  54.747 -60.715  1.00  0.00    -0.364 N 
HETATM   13  C   UNL     1     -47.489  57.789 -60.779  1.00  0.00     0.002 A 
HETATM   14  C   UNL     1     -46.806  58.488 -59.789  1.00  0.00     0.001 A 
HETATM   15  H   UNL     1     -45.646  54.044 -61.377  1.00  0.00     0.165 HD
HETATM   16  C   UNL     1     -44.279  54.626 -59.869  1.00  0.00     0.102 A 
ENDBRANCH   6   7
ENDBRANCH   2   5
BRANCH   1  17
HETATM   17  C   UNL     1     -41.180  56.221 -54.105  1.00  0.00     0.109 C 
BRANCH  17  18
HETATM   18  C   UNL     1     -41.389  55.716 -52.681  1.00  0.00     0.048 C 
BRANCH  18  19
HETATM   19  C   UNL     1     -40.814  54.336 -52.486  1.00  0.00    -0.058 A 
HETATM   20  C   UNL     1     -40.496  53.864 -51.208  1.00  0.00     0.010 A 
HETATM   21  C   UNL     1     -39.962  52.583 -51.045  1.00  0.00     0.037 A 
HETATM   22  C   UNL     1     -39.738  51.756 -52.147  1.00  0.00     0.068 A 
HETATM   23  C   UNL     1     -40.040  52.229 -53.424  1.00  0.00     0.037 A 
HETATM   24  C   UNL     1     -40.575  53.511 -53.591  1.00  0.00     0.010 A 
BRANCH  22  25
HETATM   25  O   UNL     1     -39.220  50.527 -51.847  1.00  0.00    -0.356 OA
HETATM   26  C   UNL     1     -39.749  49.874 -50.699  1.00  0.00     0.210 C 
ENDBRANCH  22  25
ENDBRANCH  18  19
ENDBRANCH  17  18
ENDBRANCH   1  17
TORSDOF 6
ENDMDL
MODEL 4
REMARK VINA RESULT:      -7.3      4.226      6.507
REMARK  6 active torsions:
REMARK  status: ('A' for Active; 'I' for Inactive)
REMARK    1  A    between atoms: O_2  and  C_3 
REMARK    2  A    between atoms: C_6  and  C_7 
REMARK    3  A    between atoms: C_7  and  C_8 
REMARK    4  A    between atoms: C_8  and  C_9 
REMARK       I    between atoms: C_9  and  N_10 
REMARK    5  A    between atoms: N_10  and  N_11 
REMARK    6  A    between atoms: C_12  and  C_13 
ROOT
HETATM    1  C   UNL     1     -44.179  56.696 -53.883  1.00  0.00     0.237 C 
HETATM    2  N   UNL     1     -44.057  56.303 -52.557  1.00  0.00    -0.247 N 
HETATM    3  O   UNL     1     -43.700  56.112 -54.851  1.00  0.00    -0.272 OA
HETATM    4  H   UNL     1     -44.499  56.836 -51.817  1.00  0.00     0.192 HD
ENDROOT
BRANCH   2   5
HETATM    5  N   UNL     1     -43.353  55.175 -52.248  1.00  0.00    -0.184 NA
HETATM    6  C   UNL     1     -42.137  55.359 -51.846  1.00  0.00     0.152 C 
BRANCH   6   7
HETATM    7  C   UNL     1     -41.319  54.219 -51.493  1.00  0.00     0.011 A 
HETATM    8  C   UNL     1     -40.806  53.209 -52.370  1.00  0.00     0.004 A 
HETATM    9  C   UNL     1     -40.073  52.313 -51.590  1.00  0.00     0.043 A 
HETATM   10  C   UNL     1     -40.897  52.969 -53.758  1.00  0.00     0.014 A 
HETATM   11  C   UNL     1     -39.426  51.193 -52.126  1.00  0.00     0.030 A 
HETATM   12  N   UNL     1     -40.137  52.758 -50.290  1.00  0.00    -0.364 N 
HETATM   13  C   UNL     1     -39.533  50.979 -53.503  1.00  0.00     0.002 A 
HETATM   14  C   UNL     1     -40.256  51.852 -54.309  1.00  0.00     0.001 A 
HETATM   15  H   UNL     1     -39.696  52.303 -49.503  1.00  0.00     0.165 HD
HETATM   16  C   UNL     1     -40.885  53.900 -50.220  1.00  0.00     0.102 A 
ENDBRANCH   6   7
ENDBRANCH   2   5
BRANCH   1  17
HETATM   17  C   UNL     1     -44.959  57.982 -54.046  1.00  0.00     0.109 C 
BRANCH  17  18
HETATM   18  C   UNL     1     -44.013  59.138 -54.354  1.00  0.00     0.048 C 
BRANCH  18  19
HETATM   19  C   UNL     1     -42.937  59.276 -53.308  1.00  0.00    -0.058 A 
HETATM   20  C   UNL     1     -43.225  59.799 -52.044  1.00  0.00     0.010 A 
HETATM   21  C   UNL     1     -42.215  59.922 -51.087  1.00  0.00     0.037 A 
HETATM   22  C   UNL     1     -40.906  59.529 -51.373  1.00  0.00     0.068 A 
HETATM   23  C   UNL     1     -40.610  59.022 -52.638  1.00  0.00     0.037 A 
HETATM   24  C   UNL     1     -41.620  58.896 -53.599  1.00  0.00     0.010 A 
BRANCH  22  25
HETATM   25  O   UNL     1     -40.019  59.696 -50.347  1.00  0.00    -0.356 OA
HETATM   26  C   UNL     1     -38.653  59.416 -50.630  1.00  0.00     0.210 C 
ENDBRANCH  22  25
ENDBRANCH  18  19
ENDBRANCH  17  18
ENDBRANCH   1  17
TORSDOF 6
ENDMDL
MODEL 5
REMARK VINA RESULT:      -7.2      1.469      2.228
REMARK  6 active torsions:
REMARK  status: ('A' for Active; 'I' for Inactive)
REMARK    1  A    between atoms: O_2  and  C_3 
REMARK    2  A    between atoms: C_6  and  C_7 
REMARK    3  A    between atoms: C_7  and  C_8 
REMARK    4  A    between atoms: C_8  and  C_9 
REMARK       I    between atoms: C_9  and  N_10 
REMARK    5  A    between atoms: N_10  and  N_11 
REMARK    6  A    between atoms: C_12  and  C_13 
ROOT
HETATM    1  C   UNL     1     -43.546  57.034 -56.747  1.00  0.00     0.237 C 
HETATM    2  N   UNL     1     -43.108  55.727 -56.592  1.00  0.00    -0.247 N 
HETATM    3  O   UNL     1     -43.688  57.855 -55.845  1.00  0.00    -0.272 OA
HETATM    4  H   UNL     1     -43.004  55.117 -57.395  1.00  0.00     0.192 HD
ENDROOT
BRANCH   2   5
HETATM    5  N   UNL     1     -42.793  55.262 -55.347  1.00  0.00    -0.184 NA
HETATM    6  C   UNL     1     -41.562  54.909 -55.169  1.00  0.00     0.152 C 
BRANCH   6   7
HETATM    7  C   UNL     1     -41.139  54.409 -53.878  1.00  0.00     0.011 A 
HETATM    8  C   UNL     1     -40.591  53.119 -53.580  1.00  0.00     0.004 A 
HETATM    9  C   UNL     1     -40.332  53.083 -52.209  1.00  0.00     0.043 A 
HETATM   10  C   UNL     1     -40.292  51.973 -54.348  1.00  0.00     0.014 A 
HETATM   11  C   UNL     1     -39.788  51.964 -51.567  1.00  0.00     0.030 A 
HETATM   12  N   UNL     1     -40.708  54.301 -51.692  1.00  0.00    -0.364 N 
HETATM   13  C   UNL     1     -39.502  50.843 -52.351  1.00  0.00     0.002 A 
HETATM   14  C   UNL     1     -39.749  50.844 -53.720  1.00  0.00     0.001 A 
HETATM   15  H   UNL     1     -40.634  54.562 -50.718  1.00  0.00     0.165 HD
HETATM   16  C   UNL     1     -41.197  55.103 -52.685  1.00  0.00     0.102 A 
ENDBRANCH   6   7
ENDBRANCH   2   5
BRANCH   1  17
HETATM   17  C   UNL     1     -43.885  57.375 -58.181  1.00  0.00     0.109 C 
BRANCH  17  18
HETATM   18  C   UNL     1     -45.217  58.113 -58.249  1.00  0.00     0.048 C 
BRANCH  18  19
HETATM   19  C   UNL     1     -46.055  57.653 -59.415  1.00  0.00    -0.058 A 
HETATM   20  C   UNL     1     -46.892  58.544 -60.095  1.00  0.00     0.010 A 
HETATM   21  C   UNL     1     -47.662  58.100 -61.173  1.00  0.00     0.037 A 
HETATM   22  C   UNL     1     -47.613  56.768 -61.587  1.00  0.00     0.068 A 
HETATM   23  C   UNL     1     -46.792  55.873 -60.901  1.00  0.00     0.037 A 
HETATM   24  C   UNL     1     -46.018  56.314 -59.822  1.00  0.00     0.010 A 
BRANCH  22  25
HETATM   25  O   UNL     1     -48.411  56.469 -62.657  1.00  0.00    -0.356 OA
HETATM   26  C   UNL     1     -49.052  57.563 -63.301  1.00  0.00     0.210 C 
ENDBRANCH  22  25
ENDBRANCH  18  19
ENDBRANCH  17  18
ENDBRANCH   1  17
TORSDOF 6
ENDMDL
MODEL 6
REMARK VINA RESULT:      -7.1      2.846      3.410
REMARK  6 active torsions:
REMARK  status: ('A' for Active; 'I' for Inactive)
REMARK    1  A    between atoms: O_2  and  C_3 
REMARK    2  A    between atoms: C_6  and  C_7 
REMARK    3  A    between atoms: C_7  and  C_8 
REMARK    4  A    between atoms: C_8  and  C_9 
REMARK       I    between atoms: C_9  and  N_10 
REMARK    5  A    between atoms: N_10  and  N_11 
REMARK    6  A    between atoms: C_12  and  C_13 
ROOT
HETATM    1  C   UNL     1     -42.355  56.035 -55.692  1.00  0.00     0.237 C 
HETATM    2  N   UNL     1     -42.367  56.073 -54.305  1.00  0.00    -0.247 N 
HETATM    3  O   UNL     1     -42.099  55.050 -56.380  1.00  0.00    -0.272 OA
HETATM    4  H   UNL     1     -42.604  56.926 -53.813  1.00  0.00     0.192 HD
ENDROOT
BRANCH   2   5
HETATM    5  N   UNL     1     -42.078  54.943 -53.595  1.00  0.00    -0.184 NA
HETATM    6  C   UNL     1     -40.850  54.817 -53.208  1.00  0.00     0.152 C 
BRANCH   6   7
HETATM    7  C   UNL     1     -40.455  53.652 -52.445  1.00  0.00     0.011 A 
HETATM    8  C   UNL     1     -40.209  52.330 -52.940  1.00  0.00     0.004 A 
HETATM    9  C   UNL     1     -39.855  51.536 -51.846  1.00  0.00     0.043 A 
HETATM   10  C   UNL     1     -40.256  51.728 -54.215  1.00  0.00     0.014 A 
HETATM   11  C   UNL     1     -39.544  50.176 -51.964  1.00  0.00     0.030 A 
HETATM   12  N   UNL     1     -39.884  52.342 -50.732  1.00  0.00    -0.364 N 
HETATM   13  C   UNL     1     -39.599  49.606 -53.239  1.00  0.00     0.002 A 
HETATM   14  C   UNL     1     -39.949  50.368 -54.350  1.00  0.00     0.001 A 
HETATM   15  H   UNL     1     -39.671  52.035 -49.793  1.00  0.00     0.165 HD
HETATM   16  C   UNL     1     -40.247  53.613 -51.080  1.00  0.00     0.102 A 
ENDBRANCH   6   7
ENDBRANCH   2   5
BRANCH   1  17
HETATM   17  C   UNL     1     -42.662  57.376 -56.320  1.00  0.00     0.109 C 
BRANCH  17  18
HETATM   18  C   UNL     1     -43.164  57.188 -57.748  1.00  0.00     0.048 C 
BRANCH  18  19
HETATM   19  C   UNL     1     -42.716  58.309 -58.652  1.00  0.00    -0.058 A 
HETATM   20  C   UNL     1     -42.813  58.194 -60.042  1.00  0.00     0.010 A 
HETATM   21  C   UNL     1     -42.392  59.241 -60.865  1.00  0.00     0.037 A 
HETATM   22  C   UNL     1     -41.869  60.415 -60.319  1.00  0.00     0.068 A 
HETATM   23  C   UNL     1     -41.757  60.528 -58.933  1.00  0.00     0.037 A 
HETATM   24  C   UNL     1     -42.179  59.481 -58.106  1.00  0.00     0.010 A 
BRANCH  22  25
HETATM   25  O   UNL     1     -41.504  61.361 -61.235  1.00  0.00    -0.356 OA
HETATM   26  C   UNL     1     -40.786  62.486 -60.741  1.00  0.00     0.210 C 
ENDBRANCH  22  25
ENDBRANCH  18  19
ENDBRANCH  17  18
ENDBRANCH   1  17
TORSDOF 6
ENDMDL
MODEL 7
REMARK VINA RESULT:      -7.1     14.184     17.971
REMARK  6 active torsions:
REMARK  status: ('A' for Active; 'I' for Inactive)
REMARK    1  A    between atoms: O_2  and  C_3 
REMARK    2  A    between atoms: C_6  and  C_7 
REMARK    3  A    between atoms: C_7  and  C_8 
REMARK    4  A    between atoms: C_8  and  C_9 
REMARK       I    between atoms: C_9  and  N_10 
REMARK    5  A    between atoms: N_10  and  N_11 
REMARK    6  A    between atoms: C_12  and  C_13 
ROOT
HETATM    1  C   UNL     1     -35.999  41.934 -54.139  1.00  0.00     0.237 C 
HETATM    2  N   UNL     1     -37.079  42.332 -54.914  1.00  0.00    -0.247 N 
HETATM    3  O   UNL     1     -34.919  41.534 -54.566  1.00  0.00    -0.272 OA
HETATM    4  H   UNL     1     -37.932  42.664 -54.479  1.00  0.00     0.192 HD
ENDROOT
BRANCH   2   5
HETATM    5  N   UNL     1     -36.986  42.294 -56.275  1.00  0.00    -0.184 NA
HETATM    6  C   UNL     1     -37.510  41.262 -56.851  1.00  0.00     0.152 C 
BRANCH   6   7
HETATM    7  C   UNL     1     -37.461  41.143 -58.292  1.00  0.00     0.011 A 
HETATM    8  C   UNL     1     -37.763  39.986 -59.082  1.00  0.00     0.004 A 
HETATM    9  C   UNL     1     -37.578  40.337 -60.421  1.00  0.00     0.043 A 
HETATM   10  C   UNL     1     -38.174  38.669 -58.786  1.00  0.00     0.014 A 
HETATM   11  C   UNL     1     -37.786  39.440 -61.477  1.00  0.00     0.030 A 
HETATM   12  N   UNL     1     -37.179  41.653 -60.446  1.00  0.00    -0.364 N 
HETATM   13  C   UNL     1     -38.193  38.143 -61.154  1.00  0.00     0.002 A 
HETATM   14  C   UNL     1     -38.385  37.760 -59.831  1.00  0.00     0.001 A 
HETATM   15  H   UNL     1     -36.971  42.176 -61.286  1.00  0.00     0.165 HD
HETATM   16  C   UNL     1     -37.102  42.145 -59.174  1.00  0.00     0.102 A 
ENDBRANCH   6   7
ENDBRANCH   2   5
BRANCH   1  17
HETATM   17  C   UNL     1     -36.281  42.002 -52.655  1.00  0.00     0.109 C 
BRANCH  17  18
HETATM   18  C   UNL     1     -34.979  42.142 -51.874  1.00  0.00     0.048 C 
BRANCH  18  19
HETATM   19  C   UNL     1     -34.756  40.979 -50.941  1.00  0.00    -0.058 A 
HETATM   20  C   UNL     1     -35.834  40.245 -50.436  1.00  0.00     0.010 A 
HETATM   21  C   UNL     1     -35.609  39.171 -49.571  1.00  0.00     0.037 A 
HETATM   22  C   UNL     1     -34.312  38.814 -49.196  1.00  0.00     0.068 A 
HETATM   23  C   UNL     1     -33.235  39.553 -49.685  1.00  0.00     0.037 A 
HETATM   24  C   UNL     1     -33.457  40.628 -50.552  1.00  0.00     0.010 A 
BRANCH  22  25
HETATM   25  O   UNL     1     -34.234  37.741 -48.352  1.00  0.00    -0.356 OA
HETATM   26  C   UNL     1     -35.105  37.747 -47.227  1.00  0.00     0.210 C 
ENDBRANCH  22  25
ENDBRANCH  18  19
ENDBRANCH  17  18
ENDBRANCH   1  17
TORSDOF 6
ENDMDL
MODEL 8
REMARK VINA RESULT:      -7.0      3.399      9.416
REMARK  6 active torsions:
REMARK  status: ('A' for Active; 'I' for Inactive)
REMARK    1  A    between atoms: O_2  and  C_3 
REMARK    2  A    between atoms: C_6  and  C_7 
REMARK    3  A    between atoms: C_7  and  C_8 
REMARK    4  A    between atoms: C_8  and  C_9 
REMARK       I    between atoms: C_9  and  N_10 
REMARK    5  A    between atoms: N_10  and  N_11 
REMARK    6  A    between atoms: C_12  and  C_13 
ROOT
HETATM    1  C   UNL     1     -43.826  56.359 -54.720  1.00  0.00     0.237 C 
HETATM    2  N   UNL     1     -43.417  55.887 -55.959  1.00  0.00    -0.247 N 
HETATM    3  O   UNL     1     -44.312  57.465 -54.499  1.00  0.00    -0.272 OA
HETATM    4  H   UNL     1     -43.039  54.953 -56.057  1.00  0.00     0.192 HD
ENDROOT
BRANCH   2   5
HETATM    5  N   UNL     1     -43.545  56.682 -57.062  1.00  0.00    -0.184 NA
HETATM    6  C   UNL     1     -42.471  57.288 -57.451  1.00  0.00     0.152 C 
BRANCH   6   7
HETATM    7  C   UNL     1     -42.514  58.147 -58.615  1.00  0.00     0.011 A 
HETATM    8  C   UNL     1     -42.019  59.487 -58.727  1.00  0.00     0.004 A 
HETATM    9  C   UNL     1     -42.278  59.918 -60.030  1.00  0.00     0.043 A 
HETATM   10  C   UNL     1     -41.375  60.379 -57.843  1.00  0.00     0.014 A 
HETATM   11  C   UNL     1     -41.925  61.192 -60.493  1.00  0.00     0.030 A 
HETATM   12  N   UNL     1     -42.906  58.884 -60.684  1.00  0.00    -0.364 N 
HETATM   13  C   UNL     1     -41.289  62.054 -59.595  1.00  0.00     0.002 A 
HETATM   14  C   UNL     1     -41.017  61.657 -58.290  1.00  0.00     0.001 A 
HETATM   15  H   UNL     1     -43.213  58.912 -61.646  1.00  0.00     0.165 HD
HETATM   16  C   UNL     1     -43.055  57.817 -59.843  1.00  0.00     0.102 A 
ENDBRANCH   6   7
ENDBRANCH   2   5
BRANCH   1  17
HETATM   17  C   UNL     1     -43.582  55.370 -53.603  1.00  0.00     0.109 C 
BRANCH  17  18
HETATM   18  C   UNL     1     -42.166  55.524 -53.059  1.00  0.00     0.048 C 
BRANCH  18  19
HETATM   19  C   UNL     1     -41.405  54.223 -53.096  1.00  0.00    -0.058 A 
HETATM   20  C   UNL     1     -41.396  53.428 -54.246  1.00  0.00     0.010 A 
HETATM   21  C   UNL     1     -40.687  52.224 -54.263  1.00  0.00     0.037 A 
HETATM   22  C   UNL     1     -39.980  51.795 -53.138  1.00  0.00     0.068 A 
HETATM   23  C   UNL     1     -39.999  52.577 -51.984  1.00  0.00     0.037 A 
HETATM   24  C   UNL     1     -40.707  53.784 -51.964  1.00  0.00     0.010 A 
BRANCH  22  25
HETATM   25  O   UNL     1     -39.325  50.605 -53.292  1.00  0.00    -0.356 OA
HETATM   26  C   UNL     1     -39.632  49.851 -54.458  1.00  0.00     0.210 C 
ENDBRANCH  22  25
ENDBRANCH  18  19
ENDBRANCH  17  18
ENDBRANCH   1  17
TORSDOF 6
ENDMDL
MODEL 9
REMARK VINA RESULT:      -7.0     14.228     16.185
REMARK  6 active torsions:
REMARK  status: ('A' for Active; 'I' for Inactive)
REMARK    1  A    between atoms: O_2  and  C_3 
REMARK    2  A    between atoms: C_6  and  C_7 
REMARK    3  A    between atoms: C_7  and  C_8 
REMARK    4  A    between atoms: C_8  and  C_9 
REMARK       I    between atoms: C_9  and  N_10 
REMARK    5  A    between atoms: N_10  and  N_11 
REMARK    6  A    between atoms: C_12  and  C_13 
ROOT
HETATM    1  C   UNL     1     -35.978  41.868 -54.123  1.00  0.00     0.237 C 
HETATM    2  N   UNL     1     -35.913  40.486 -54.015  1.00  0.00    -0.247 N 
HETATM    3  O   UNL     1     -36.043  42.659 -53.186  1.00  0.00    -0.272 OA
HETATM    4  H   UNL     1     -35.846  39.906 -54.843  1.00  0.00     0.192 HD
ENDROOT
BRANCH   2   5
HETATM    5  N   UNL     1     -35.921  39.904 -52.781  1.00  0.00    -0.184 NA
HETATM    6  C   UNL     1     -34.761  39.630 -52.277  1.00  0.00     0.152 C 
BRANCH   6   7
HETATM    7  C   UNL     1     -34.675  39.015 -50.969  1.00  0.00     0.011 A 
HETATM    8  C   UNL     1     -33.628  39.165 -50.003  1.00  0.00     0.004 A 
HETATM    9  C   UNL     1     -33.971  38.388 -48.894  1.00  0.00     0.043 A 
HETATM   10  C   UNL     1     -32.416  39.887 -49.966  1.00  0.00     0.014 A 
HETATM   11  C   UNL     1     -33.166  38.299 -47.752  1.00  0.00     0.030 A 
HETATM   12  N   UNL     1     -35.177  37.789 -49.174  1.00  0.00    -0.364 N 
HETATM   13  C   UNL     1     -31.971  39.024 -47.742  1.00  0.00     0.002 A 
HETATM   14  C   UNL     1     -31.599  39.807 -48.830  1.00  0.00     0.001 A 
HETATM   15  H   UNL     1     -35.670  37.167 -48.548  1.00  0.00     0.165 HD
HETATM   16  C   UNL     1     -35.607  38.156 -50.418  1.00  0.00     0.102 A 
ENDBRANCH   6   7
ENDBRANCH   2   5
BRANCH   1  17
HETATM   17  C   UNL     1     -35.996  42.347 -55.558  1.00  0.00     0.109 C 
BRANCH  17  18
HETATM   18  C   UNL     1     -37.415  42.297 -56.114  1.00  0.00     0.048 C 
BRANCH  18  19
HETATM   19  C   UNL     1     -37.474  41.576 -57.436  1.00  0.00    -0.058 A 
HETATM   20  C   UNL     1     -37.078  42.207 -58.620  1.00  0.00     0.010 A 
HETATM   21  C   UNL     1     -37.141  41.524 -59.836  1.00  0.00     0.037 A 
HETATM   22  C   UNL     1     -37.600  40.207 -59.894  1.00  0.00     0.068 A 
HETATM   23  C   UNL     1     -38.011  39.578 -58.719  1.00  0.00     0.037 A 
HETATM   24  C   UNL     1     -37.948  40.259 -57.499  1.00  0.00     0.010 A 
BRANCH  22  25
HETATM   25  O   UNL     1     -37.604  39.655 -61.145  1.00  0.00    -0.356 OA
HETATM   26  C   UNL     1     -36.556  38.740 -61.444  1.00  0.00     0.210 C 
ENDBRANCH  22  25
ENDBRANCH  18  19
ENDBRANCH  17  18
ENDBRANCH   1  17
TORSDOF 6
ENDMDL
MODEL 10
REMARK VINA RESULT:      -7.0      5.381      9.793
REMARK  6 active torsions:
REMARK  status: ('A' for Active; 'I' for Inactive)
REMARK    1  A    between atoms: O_2  and  C_3 
REMARK    2  A    between atoms: C_6  and  C_7 
REMARK    3  A    between atoms: C_7  and  C_8 
REMARK    4  A    between atoms: C_8  and  C_9 
REMARK       I    between atoms: C_9  and  N_10 
REMARK    5  A    between atoms: N_10  and  N_11 
REMARK    6  A    between atoms: C_12  and  C_13 
ROOT
HETATM    1  C   UNL     1     -41.080  55.455 -50.159  1.00  0.00     0.237 C 
HETATM    2  N   UNL     1     -40.611  56.727 -50.455  1.00  0.00    -0.247 N 
HETATM    3  O   UNL     1     -42.253  55.093 -50.212  1.00  0.00    -0.272 OA
HETATM    4  H   UNL     1     -39.622  56.938 -50.399  1.00  0.00     0.192 HD
ENDROOT
BRANCH   2   5
HETATM    5  N   UNL     1     -41.488  57.698 -50.844  1.00  0.00    -0.184 NA
HETATM    6  C   UNL     1     -40.960  58.800 -51.268  1.00  0.00     0.152 C 
BRANCH   6   7
HETATM    7  C   UNL     1     -41.816  59.882 -51.705  1.00  0.00     0.011 A 
HETATM    8  C   UNL     1     -42.153  60.237 -53.052  1.00  0.00     0.004 A 
HETATM    9  C   UNL     1     -43.004  61.343 -52.990  1.00  0.00     0.043 A 
HETATM   10  C   UNL     1     -41.812  59.726 -54.322  1.00  0.00     0.014 A 
HETATM   11  C   UNL     1     -43.532  61.959 -54.131  1.00  0.00     0.030 A 
HETATM   12  N   UNL     1     -43.179  61.649 -51.661  1.00  0.00    -0.364 N 
HETATM   13  C   UNL     1     -43.178  61.431 -55.376  1.00  0.00     0.002 A 
HETATM   14  C   UNL     1     -42.331  60.332 -55.473  1.00  0.00     0.001 A 
HETATM   15  H   UNL     1     -43.749  62.408 -51.314  1.00  0.00     0.165 HD
HETATM   16  C   UNL     1     -42.468  60.780 -50.881  1.00  0.00     0.102 A 
ENDBRANCH   6   7
ENDBRANCH   2   5
BRANCH   1  17
HETATM   17  C   UNL     1     -39.986  54.512 -49.711  1.00  0.00     0.109 C 
BRANCH  17  18
HETATM   18  C   UNL     1     -40.574  53.153 -49.347  1.00  0.00     0.048 C 
BRANCH  18  19
HETATM   19  C   UNL     1     -40.254  52.107 -50.384  1.00  0.00    -0.058 A 
HETATM   20  C   UNL     1     -40.004  52.464 -51.713  1.00  0.00     0.010 A 
HETATM   21  C   UNL     1     -39.711  51.481 -52.661  1.00  0.00     0.037 A 
HETATM   22  C   UNL     1     -39.663  50.132 -52.302  1.00  0.00     0.068 A 
HETATM   23  C   UNL     1     -39.926  49.771 -50.982  1.00  0.00     0.037 A 
HETATM   24  C   UNL     1     -40.219  50.753 -50.029  1.00  0.00     0.010 A 
BRANCH  22  25
HETATM   25  O   UNL     1     -39.357  49.277 -53.325  1.00  0.00    -0.356 OA
HETATM   26  C   UNL     1     -39.629  49.734 -54.644  1.00  0.00     0.210 C 
ENDBRANCH  22  25
ENDBRANCH  18  19
ENDBRANCH  17  18
ENDBRANCH   1  17
TORSDOF 6
ENDMDL
