MODEL 1
REMARK VINA RESULT:      -9.0      0.000      0.000
REMARK  7 active torsions:
REMARK  status: ('A' for Active; 'I' for Inactive)
REMARK    1  A    between atoms: C_5  and  C_6 
REMARK       I    between atoms: C_6  and  N_7 
REMARK    2  A    between atoms: N_10  and  C_11 
REMARK    3  A    between atoms: C_14  and  N_15 
REMARK    4  A    between atoms: N_15  and  C_16 
REMARK    5  A    between atoms: C_16  and  N_17 
REMARK       I    between atoms: N_17  and  C_18 
REMARK    6  A    between atoms: C_18  and  C_19 
REMARK    7  A    between atoms: C_22  and  O_23 
ROOT
HETATM    1  C   UNL     1     -44.303  58.274 -51.697  1.00  0.00     0.030 A 
HETATM    2  C   UNL     1     -44.325  59.016 -52.890  1.00  0.00     0.031 A 
HETATM    3  C   UNL     1     -45.282  60.016 -53.133  1.00  0.00     0.032 A 
HETATM    4  C   UNL     1     -46.246  60.326 -52.177  1.00  0.00     0.034 A 
HETATM    5  C   UNL     1     -46.243  59.616 -50.981  1.00  0.00     0.032 A 
HETATM    6  C   UNL     1     -45.297  58.603 -50.760  1.00  0.00     0.031 A 
ENDROOT
BRANCH   4   7
HETATM    7  N   UNL     1     -47.240  61.275 -52.519  1.00  0.00    -0.333 N 
HETATM    8  H   UNL     1     -48.144  60.860 -52.729  1.00  0.00     0.168 HD
BRANCH   7   9
HETATM    9  C   UNL     1     -47.294  62.579 -52.138  1.00  0.00     0.179 C 
HETATM   10  S   UNL     1     -48.768  63.350 -52.010  1.00  0.00    -0.040 SA
BRANCH   9  11
HETATM   11  N   UNL     1     -46.139  63.287 -51.915  1.00  0.00    -0.299 N 
HETATM   12  C   UNL     1     -45.530  63.729 -50.747  1.00  0.00     0.257 C 
HETATM   13  O   UNL     1     -44.899  64.782 -50.726  1.00  0.00    -0.267 OA
HETATM   14  H   UNL     1     -45.714  63.665 -52.753  1.00  0.00     0.171 HD
BRANCH  12  15
HETATM   15  C   UNL     1     -45.620  62.882 -49.527  1.00  0.00     0.032 A 
HETATM   16  C   UNL     1     -44.551  62.075 -49.124  1.00  0.00     0.020 A 
HETATM   17  C   UNL     1     -44.654  61.312 -47.959  1.00  0.00     0.038 A 
HETATM   18  C   UNL     1     -45.808  61.361 -47.175  1.00  0.00     0.068 A 
HETATM   19  C   UNL     1     -46.866  62.186 -47.564  1.00  0.00     0.038 A 
HETATM   20  C   UNL     1     -46.769  62.951 -48.733  1.00  0.00     0.020 A 
BRANCH  18  21
HETATM   21  O   UNL     1     -45.774  60.563 -46.065  1.00  0.00    -0.356 OA
HETATM   22  C   UNL     1     -46.618  59.419 -46.066  1.00  0.00     0.210 C 
ENDBRANCH  18  21
ENDBRANCH  12  15
ENDBRANCH   9  11
ENDBRANCH   7   9
ENDBRANCH   4   7
BRANCH   1  23
HETATM   23  N   UNL     1     -43.418  57.211 -51.469  1.00  0.00    -0.378 N 
HETATM   24  C   UNL     1     -42.033  57.563 -51.067  1.00  0.00     0.143 C 
HETATM   25  C   UNL     1     -41.328  56.359 -50.422  1.00  0.00     0.146 C 
HETATM   26  N   UNL     1     -41.359  55.171 -51.276  1.00  0.00    -0.345 N 
HETATM   27  C   UNL     1     -40.421  54.179 -50.978  1.00  0.00     0.253 C 
HETATM   28  C   UNL     1     -42.707  54.824 -51.743  1.00  0.00     0.146 C 
HETATM   29  O   UNL     1     -39.660  54.241 -50.014  1.00  0.00    -0.267 OA
HETATM   30  C   UNL     1     -43.469  56.022 -52.351  1.00  0.00     0.143 C 
BRANCH  27  31
HETATM   31  C   UNL     1     -40.276  53.028 -51.904  1.00  0.00     0.032 A 
HETATM   32  C   UNL     1     -40.454  53.192 -53.281  1.00  0.00     0.017 A 
HETATM   33  C   UNL     1     -40.212  52.123 -54.148  1.00  0.00     0.007 A 
HETATM   34  C   UNL     1     -39.786  50.885 -53.647  1.00  0.00    -0.062 A 
HETATM   35  C   UNL     1     -39.453  49.762 -54.584  1.00  0.00     0.048 C 
HETATM   36  C   UNL     1     -39.587  50.737 -52.268  1.00  0.00     0.007 A 
HETATM   37  C   UNL     1     -39.828  51.804 -51.399  1.00  0.00     0.017 A 
ENDBRANCH  27  31
ENDBRANCH   1  23
TORSDOF 7
ENDMDL
MODEL 2
REMARK VINA RESULT:      -8.5      2.994      4.518
REMARK  7 active torsions:
REMARK  status: ('A' for Active; 'I' for Inactive)
REMARK    1  A    between atoms: C_5  and  C_6 
REMARK       I    between atoms: C_6  and  N_7 
REMARK    2  A    between atoms: N_10  and  C_11 
REMARK    3  A    between atoms: C_14  and  N_15 
REMARK    4  A    between atoms: N_15  and  C_16 
REMARK    5  A    between atoms: C_16  and  N_17 
REMARK       I    between atoms: N_17  and  C_18 
REMARK    6  A    between atoms: C_18  and  C_19 
REMARK    7  A    between atoms: C_22  and  O_23 
ROOT
HETATM    1  C   UNL     1     -43.716  58.516 -51.355  1.00  0.00     0.030 A 
HETATM    2  C   UNL     1     -43.182  59.777 -51.666  1.00  0.00     0.031 A 
HETATM    3  C   UNL     1     -43.996  60.893 -51.927  1.00  0.00     0.032 A 
HETATM    4  C   UNL     1     -45.384  60.791 -51.866  1.00  0.00     0.034 A 
HETATM    5  C   UNL     1     -45.942  59.557 -51.552  1.00  0.00     0.032 A 
HETATM    6  C   UNL     1     -45.119  58.445 -51.316  1.00  0.00     0.031 A 
ENDROOT
BRANCH   4   7
HETATM    7  N   UNL     1     -46.150  61.924 -52.234  1.00  0.00    -0.333 N 
HETATM    8  H   UNL     1     -46.478  62.468 -51.440  1.00  0.00     0.168 HD
BRANCH   7   9
HETATM    9  C   UNL     1     -46.078  62.617 -53.401  1.00  0.00     0.179 C 
HETATM   10  S   UNL     1     -45.316  64.101 -53.446  1.00  0.00    -0.040 SA
BRANCH   9  11
HETATM   11  N   UNL     1     -46.684  62.135 -54.535  1.00  0.00    -0.299 N 
HETATM   12  C   UNL     1     -46.182  61.461 -55.643  1.00  0.00     0.257 C 
HETATM   13  O   UNL     1     -46.673  61.628 -56.755  1.00  0.00    -0.267 OA
HETATM   14  H   UNL     1     -47.647  62.425 -54.649  1.00  0.00     0.171 HD
BRANCH  12  15
HETATM   15  C   UNL     1     -45.062  60.501 -55.451  1.00  0.00     0.032 A 
HETATM   16  C   UNL     1     -45.303  59.153 -55.166  1.00  0.00     0.020 A 
HETATM   17  C   UNL     1     -44.232  58.269 -55.019  1.00  0.00     0.038 A 
HETATM   18  C   UNL     1     -42.917  58.712 -55.174  1.00  0.00     0.068 A 
HETATM   19  C   UNL     1     -42.677  60.052 -55.484  1.00  0.00     0.038 A 
HETATM   20  C   UNL     1     -43.748  60.944 -55.629  1.00  0.00     0.020 A 
BRANCH  18  21
HETATM   21  O   UNL     1     -41.968  57.742 -55.001  1.00  0.00    -0.356 OA
HETATM   22  C   UNL     1     -42.097  56.566 -55.790  1.00  0.00     0.210 C 
ENDBRANCH  18  21
ENDBRANCH  12  15
ENDBRANCH   9  11
ENDBRANCH   7   9
ENDBRANCH   4   7
BRANCH   1  23
HETATM   23  N   UNL     1     -42.929  57.369 -51.182  1.00  0.00    -0.378 N 
HETATM   24  C   UNL     1     -41.516  57.578 -50.776  1.00  0.00     0.143 C 
HETATM   25  C   UNL     1     -40.920  56.287 -50.192  1.00  0.00     0.146 C 
HETATM   26  N   UNL     1     -41.060  55.147 -51.097  1.00  0.00    -0.345 N 
HETATM   27  C   UNL     1     -40.214  54.062 -50.852  1.00  0.00     0.253 C 
HETATM   28  C   UNL     1     -42.436  54.943 -51.569  1.00  0.00     0.146 C 
HETATM   29  O   UNL     1     -39.446  54.012 -49.893  1.00  0.00    -0.267 OA
HETATM   30  C   UNL     1     -43.090  56.230 -52.116  1.00  0.00     0.143 C 
BRANCH  27  31
HETATM   31  C   UNL     1     -40.176  52.947 -51.830  1.00  0.00     0.032 A 
HETATM   32  C   UNL     1     -40.435  53.174 -53.185  1.00  0.00     0.017 A 
HETATM   33  C   UNL     1     -40.294  52.134 -54.107  1.00  0.00     0.007 A 
HETATM   34  C   UNL     1     -39.889  50.861 -53.683  1.00  0.00    -0.062 A 
HETATM   35  C   UNL     1     -39.663  49.765 -54.684  1.00  0.00     0.048 C 
HETATM   36  C   UNL     1     -39.608  50.647 -52.327  1.00  0.00     0.007 A 
HETATM   37  C   UNL     1     -39.749  51.685 -51.403  1.00  0.00     0.017 A 
ENDBRANCH  27  31
ENDBRANCH   1  23
TORSDOF 7
ENDMDL
MODEL 3
REMARK VINA RESULT:      -8.4      1.847      2.259
REMARK  7 active torsions:
REMARK  status: ('A' for Active; 'I' for Inactive)
REMARK    1  A    between atoms: C_5  and  C_6 
REMARK       I    between atoms: C_6  and  N_7 
REMARK    2  A    between atoms: N_10  and  C_11 
REMARK    3  A    between atoms: C_14  and  N_15 
REMARK    4  A    between atoms: N_15  and  C_16 
REMARK    5  A    between atoms: C_16  and  N_17 
REMARK       I    between atoms: N_17  and  C_18 
REMARK    6  A    between atoms: C_18  and  C_19 
REMARK    7  A    between atoms: C_22  and  O_23 
ROOT
HETATM    1  C   UNL     1     -43.196  58.848 -51.331  1.00  0.00     0.030 A 
HETATM    2  C   UNL     1     -44.570  59.045 -51.121  1.00  0.00     0.031 A 
HETATM    3  C   UNL     1     -45.171  60.311 -51.223  1.00  0.00     0.032 A 
HETATM    4  C   UNL     1     -44.416  61.431 -51.561  1.00  0.00     0.034 A 
HETATM    5  C   UNL     1     -43.053  61.267 -51.785  1.00  0.00     0.032 A 
HETATM    6  C   UNL     1     -42.461  60.001 -51.656  1.00  0.00     0.031 A 
ENDROOT
BRANCH   4   7
HETATM    7  N   UNL     1     -45.059  62.693 -51.553  1.00  0.00    -0.333 N 
HETATM    8  H   UNL     1     -45.845  62.753 -52.195  1.00  0.00     0.168 HD
BRANCH   7   9
HETATM    9  C   UNL     1     -45.101  63.585 -50.528  1.00  0.00     0.179 C 
HETATM   10  S   UNL     1     -43.683  64.214 -49.912  1.00  0.00    -0.040 SA
BRANCH   9  11
HETATM   11  N   UNL     1     -46.298  63.927 -49.951  1.00  0.00    -0.299 N 
HETATM   12  C   UNL     1     -47.013  63.374 -48.894  1.00  0.00     0.257 C 
HETATM   13  O   UNL     1     -48.241  63.391 -48.889  1.00  0.00    -0.267 OA
HETATM   14  H   UNL     1     -46.819  64.631 -50.457  1.00  0.00     0.171 HD
BRANCH  12  15
HETATM   15  C   UNL     1     -46.264  62.796 -47.746  1.00  0.00     0.032 A 
HETATM   16  C   UNL     1     -45.935  63.573 -46.631  1.00  0.00     0.020 A 
HETATM   17  C   UNL     1     -45.255  62.996 -45.555  1.00  0.00     0.038 A 
HETATM   18  C   UNL     1     -44.917  61.641 -45.571  1.00  0.00     0.068 A 
HETATM   19  C   UNL     1     -45.268  60.860 -46.674  1.00  0.00     0.038 A 
HETATM   20  C   UNL     1     -45.947  61.434 -47.756  1.00  0.00     0.020 A 
BRANCH  18  21
HETATM   21  O   UNL     1     -44.253  61.210 -44.456  1.00  0.00    -0.356 OA
HETATM   22  C   UNL     1     -43.907  62.194 -43.490  1.00  0.00     0.210 C 
ENDBRANCH  18  21
ENDBRANCH  12  15
ENDBRANCH   9  11
ENDBRANCH   7   9
ENDBRANCH   4   7
BRANCH   1  23
HETATM   23  N   UNL     1     -42.558  57.613 -51.145  1.00  0.00    -0.378 N 
HETATM   24  C   UNL     1     -41.188  57.644 -50.571  1.00  0.00     0.143 C 
HETATM   25  C   UNL     1     -40.802  56.267 -50.008  1.00  0.00     0.146 C 
HETATM   26  N   UNL     1     -40.951  55.198 -50.995  1.00  0.00    -0.345 N 
HETATM   27  C   UNL     1     -40.256  54.016 -50.728  1.00  0.00     0.253 C 
HETATM   28  C   UNL     1     -42.276  55.171 -51.630  1.00  0.00     0.146 C 
HETATM   29  O   UNL     1     -39.617  53.831 -49.694  1.00  0.00    -0.267 OA
HETATM   30  C   UNL     1     -42.723  56.550 -52.163  1.00  0.00     0.143 C 
BRANCH  27  31
HETATM   31  C   UNL     1     -40.219  52.955 -51.765  1.00  0.00     0.032 A 
HETATM   32  C   UNL     1     -40.453  53.261 -53.109  1.00  0.00     0.017 A 
HETATM   33  C   UNL     1     -40.312  52.271 -54.085  1.00  0.00     0.007 A 
HETATM   34  C   UNL     1     -39.931  50.971 -53.726  1.00  0.00    -0.062 A 
HETATM   35  C   UNL     1     -39.705  49.928 -54.783  1.00  0.00     0.048 C 
HETATM   36  C   UNL     1     -39.675  50.678 -52.380  1.00  0.00     0.007 A 
HETATM   37  C   UNL     1     -39.816  51.666 -51.402  1.00  0.00     0.017 A 
ENDBRANCH  27  31
ENDBRANCH   1  23
TORSDOF 7
ENDMDL
MODEL 4
REMARK VINA RESULT:      -8.4      4.974      7.218
REMARK  7 active torsions:
REMARK  status: ('A' for Active; 'I' for Inactive)
REMARK    1  A    between atoms: C_5  and  C_6 
REMARK       I    between atoms: C_6  and  N_7 
REMARK    2  A    between atoms: N_10  and  C_11 
REMARK    3  A    between atoms: C_14  and  N_15 
REMARK    4  A    between atoms: N_15  and  C_16 
REMARK    5  A    between atoms: C_16  and  N_17 
REMARK       I    between atoms: N_17  and  C_18 
REMARK    6  A    between atoms: C_18  and  C_19 
REMARK    7  A    between atoms: C_22  and  O_23 
ROOT
HETATM    1  C   UNL     1     -43.228  59.156 -54.450  1.00  0.00     0.030 A 
HETATM    2  C   UNL     1     -42.628  60.423 -54.368  1.00  0.00     0.031 A 
HETATM    3  C   UNL     1     -43.059  61.509 -55.149  1.00  0.00     0.032 A 
HETATM    4  C   UNL     1     -44.127  61.372 -56.032  1.00  0.00     0.034 A 
HETATM    5  C   UNL     1     -44.749  60.131 -56.128  1.00  0.00     0.032 A 
HETATM    6  C   UNL     1     -44.294  59.048 -55.361  1.00  0.00     0.031 A 
ENDROOT
BRANCH   4   7
HETATM    7  N   UNL     1     -44.451  62.474 -56.859  1.00  0.00    -0.333 N 
HETATM    8  H   UNL     1     -44.610  63.336 -56.345  1.00  0.00     0.168 HD
BRANCH   7   9
HETATM    9  C   UNL     1     -44.100  62.652 -58.161  1.00  0.00     0.179 C 
HETATM   10  S   UNL     1     -45.237  62.451 -59.366  1.00  0.00    -0.040 SA
BRANCH   9  11
HETATM   11  N   UNL     1     -42.800  62.935 -58.499  1.00  0.00    -0.299 N 
HETATM   12  C   UNL     1     -41.666  62.135 -58.585  1.00  0.00     0.257 C 
HETATM   13  O   UNL     1     -40.557  62.586 -58.316  1.00  0.00    -0.267 OA
HETATM   14  H   UNL     1     -42.597  63.922 -58.585  1.00  0.00     0.171 HD
BRANCH  12  15
HETATM   15  C   UNL     1     -41.814  60.729 -59.048  1.00  0.00     0.032 A 
HETATM   16  C   UNL     1     -41.940  60.423 -60.407  1.00  0.00     0.020 A 
HETATM   17  C   UNL     1     -42.049  59.091 -60.815  1.00  0.00     0.038 A 
HETATM   18  C   UNL     1     -42.012  58.055 -59.880  1.00  0.00     0.068 A 
HETATM   19  C   UNL     1     -41.861  58.359 -58.525  1.00  0.00     0.038 A 
HETATM   20  C   UNL     1     -41.754  59.693 -58.111  1.00  0.00     0.020 A 
BRANCH  18  21
HETATM   21  O   UNL     1     -42.131  56.803 -60.417  1.00  0.00    -0.356 OA
HETATM   22  C   UNL     1     -42.887  55.853 -59.677  1.00  0.00     0.210 C 
ENDBRANCH  18  21
ENDBRANCH  12  15
ENDBRANCH   9  11
ENDBRANCH   7   9
ENDBRANCH   4   7
BRANCH   1  23
HETATM   23  N   UNL     1     -42.759  58.035 -53.752  1.00  0.00    -0.378 N 
HETATM   24  C   UNL     1     -41.646  58.256 -52.795  1.00  0.00     0.143 C 
HETATM   25  C   UNL     1     -41.543  57.091 -51.797  1.00  0.00     0.146 C 
HETATM   26  N   UNL     1     -41.433  55.794 -52.464  1.00  0.00    -0.345 N 
HETATM   27  C   UNL     1     -40.933  54.746 -51.686  1.00  0.00     0.253 C 
HETATM   28  C   UNL     1     -42.485  55.561 -53.463  1.00  0.00     0.146 C 
HETATM   29  O   UNL     1     -40.670  54.863 -50.491  1.00  0.00    -0.267 OA
HETATM   30  C   UNL     1     -42.655  56.734 -54.453  1.00  0.00     0.143 C 
BRANCH  27  31
HETATM   31  C   UNL     1     -40.630  53.449 -52.340  1.00  0.00     0.032 A 
HETATM   32  C   UNL     1     -40.910  53.248 -53.695  1.00  0.00     0.017 A 
HETATM   33  C   UNL     1     -40.524  52.059 -54.319  1.00  0.00     0.007 A 
HETATM   34  C   UNL     1     -39.852  51.064 -53.595  1.00  0.00    -0.062 A 
HETATM   35  C   UNL     1     -39.370  49.821 -54.284  1.00  0.00     0.048 C 
HETATM   36  C   UNL     1     -39.555  51.283 -52.244  1.00  0.00     0.007 A 
HETATM   37  C   UNL     1     -39.939  52.471 -51.618  1.00  0.00     0.017 A 
ENDBRANCH  27  31
ENDBRANCH   1  23
TORSDOF 7
ENDMDL
MODEL 5
REMARK VINA RESULT:      -8.2      5.973      7.829
REMARK  7 active torsions:
REMARK  status: ('A' for Active; 'I' for Inactive)
REMARK    1  A    between atoms: C_5  and  C_6 
REMARK       I    between atoms: C_6  and  N_7 
REMARK    2  A    between atoms: N_10  and  C_11 
REMARK    3  A    between atoms: C_14  and  N_15 
REMARK    4  A    between atoms: N_15  and  C_16 
REMARK    5  A    between atoms: C_16  and  N_17 
REMARK       I    between atoms: N_17  and  C_18 
REMARK    6  A    between atoms: C_18  and  C_19 
REMARK    7  A    between atoms: C_22  and  O_23 
ROOT
HETATM    1  C   UNL     1     -43.936  57.163 -57.581  1.00  0.00     0.030 A 
HETATM    2  C   UNL     1     -43.620  56.796 -58.899  1.00  0.00     0.031 A 
HETATM    3  C   UNL     1     -44.293  57.333 -60.010  1.00  0.00     0.032 A 
HETATM    4  C   UNL     1     -45.301  58.279 -59.841  1.00  0.00     0.034 A 
HETATM    5  C   UNL     1     -45.631  58.670 -58.548  1.00  0.00     0.032 A 
HETATM    6  C   UNL     1     -44.967  58.108 -57.446  1.00  0.00     0.031 A 
ENDROOT
BRANCH   4   7
HETATM    7  N   UNL     1     -46.007  58.710 -60.991  1.00  0.00    -0.333 N 
HETATM    8  H   UNL     1     -46.832  58.153 -61.195  1.00  0.00     0.168 HD
BRANCH   7   9
HETATM    9  C   UNL     1     -46.031  59.965 -61.514  1.00  0.00     0.179 C 
HETATM   10  S   UNL     1     -47.398  60.909 -61.355  1.00  0.00    -0.040 SA
BRANCH   9  11
HETATM   11  N   UNL     1     -44.961  60.442 -62.230  1.00  0.00    -0.299 N 
HETATM   12  C   UNL     1     -43.884  61.242 -61.868  1.00  0.00     0.257 C 
HETATM   13  O   UNL     1     -43.388  62.029 -62.670  1.00  0.00    -0.267 OA
HETATM   14  H   UNL     1     -45.025  60.288 -63.228  1.00  0.00     0.171 HD
BRANCH  12  15
HETATM   15  C   UNL     1     -43.312  61.102 -60.502  1.00  0.00     0.032 A 
HETATM   16  C   UNL     1     -43.870  61.775 -59.410  1.00  0.00     0.020 A 
HETATM   17  C   UNL     1     -43.329  61.602 -58.134  1.00  0.00     0.038 A 
HETATM   18  C   UNL     1     -42.246  60.744 -57.930  1.00  0.00     0.068 A 
HETATM   19  C   UNL     1     -41.705  60.052 -59.016  1.00  0.00     0.038 A 
HETATM   20  C   UNL     1     -42.242  60.225 -60.298  1.00  0.00     0.020 A 
BRANCH  18  21
HETATM   21  O   UNL     1     -41.818  60.671 -56.633  1.00  0.00    -0.356 OA
HETATM   22  C   UNL     1     -42.750  61.039 -55.625  1.00  0.00     0.210 C 
ENDBRANCH  18  21
ENDBRANCH  12  15
ENDBRANCH   9  11
ENDBRANCH   7   9
ENDBRANCH   4   7
BRANCH   1  23
HETATM   23  N   UNL     1     -43.344  56.574 -56.455  1.00  0.00    -0.378 N 
HETATM   24  C   UNL     1     -42.364  57.398 -55.703  1.00  0.00     0.143 C 
HETATM   25  C   UNL     1     -42.149  56.835 -54.289  1.00  0.00     0.146 C 
HETATM   26  N   UNL     1     -41.771  55.422 -54.302  1.00  0.00    -0.345 N 
HETATM   27  C   UNL     1     -41.167  54.939 -53.138  1.00  0.00     0.253 C 
HETATM   28  C   UNL     1     -42.685  54.582 -55.087  1.00  0.00     0.146 C 
HETATM   29  O   UNL     1     -41.025  55.618 -52.123  1.00  0.00    -0.267 OA
HETATM   30  C   UNL     1     -42.968  55.142 -56.498  1.00  0.00     0.143 C 
BRANCH  27  31
HETATM   31  C   UNL     1     -40.600  53.568 -53.141  1.00  0.00     0.032 A 
HETATM   32  C   UNL     1     -40.237  52.942 -51.943  1.00  0.00     0.017 A 
HETATM   33  C   UNL     1     -39.803  51.614 -51.954  1.00  0.00     0.007 A 
HETATM   34  C   UNL     1     -39.731  50.900 -53.158  1.00  0.00    -0.062 A 
HETATM   35  C   UNL     1     -39.338  49.452 -53.159  1.00  0.00     0.048 C 
HETATM   36  C   UNL     1     -40.119  51.527 -54.350  1.00  0.00     0.007 A 
HETATM   37  C   UNL     1     -40.554  52.855 -54.342  1.00  0.00     0.017 A 
ENDBRANCH  27  31
ENDBRANCH   1  23
TORSDOF 7
ENDMDL
MODEL 6
REMARK VINA RESULT:      -8.2      6.115      8.497
REMARK  7 active torsions:
REMARK  status: ('A' for Active; 'I' for Inactive)
REMARK    1  A    between atoms: C_5  and  C_6 
REMARK       I    between atoms: C_6  and  N_7 
REMARK    2  A    between atoms: N_10  and  C_11 
REMARK    3  A    between atoms: C_14  and  N_15 
REMARK    4  A    between atoms: N_15  and  C_16 
REMARK    5  A    between atoms: C_16  and  N_17 
REMARK       I    between atoms: N_17  and  C_18 
REMARK    6  A    between atoms: C_18  and  C_19 
REMARK    7  A    between atoms: C_22  and  O_23 
ROOT
HETATM    1  C   UNL     1     -42.844  58.827 -56.350  1.00  0.00     0.030 A 
HETATM    2  C   UNL     1     -41.921  59.760 -56.848  1.00  0.00     0.031 A 
HETATM    3  C   UNL     1     -42.320  60.900 -57.567  1.00  0.00     0.032 A 
HETATM    4  C   UNL     1     -43.668  61.160 -57.799  1.00  0.00     0.034 A 
HETATM    5  C   UNL     1     -44.607  60.258 -57.309  1.00  0.00     0.032 A 
HETATM    6  C   UNL     1     -44.195  59.112 -56.613  1.00  0.00     0.031 A 
ENDROOT
BRANCH   4   7
HETATM    7  N   UNL     1     -44.001  62.270 -58.612  1.00  0.00    -0.333 N 
HETATM    8  H   UNL     1     -44.464  63.020 -58.106  1.00  0.00     0.168 HD
BRANCH   7   9
HETATM    9  C   UNL     1     -43.381  62.662 -59.757  1.00  0.00     0.179 C 
HETATM   10  S   UNL     1     -42.060  63.679 -59.684  1.00  0.00    -0.040 SA
BRANCH   9  11
HETATM   11  N   UNL     1     -43.870  62.277 -60.980  1.00  0.00    -0.299 N 
HETATM   12  C   UNL     1     -43.626  61.159 -61.770  1.00  0.00     0.257 C 
HETATM   13  O   UNL     1     -43.648  61.238 -62.995  1.00  0.00    -0.267 OA
HETATM   14  H   UNL     1     -44.413  62.987 -61.454  1.00  0.00     0.171 HD
BRANCH  12  15
HETATM   15  C   UNL     1     -43.377  59.852 -61.104  1.00  0.00     0.032 A 
HETATM   16  C   UNL     1     -44.435  59.026 -60.711  1.00  0.00     0.020 A 
HETATM   17  C   UNL     1     -44.170  57.791 -60.113  1.00  0.00     0.038 A 
HETATM   18  C   UNL     1     -42.856  57.360 -59.922  1.00  0.00     0.068 A 
HETATM   19  C   UNL     1     -41.800  58.173 -60.339  1.00  0.00     0.038 A 
HETATM   20  C   UNL     1     -42.060  59.414 -60.935  1.00  0.00     0.020 A 
BRANCH  18  21
HETATM   21  O   UNL     1     -42.743  56.134 -59.326  1.00  0.00    -0.356 OA
HETATM   22  C   UNL     1     -43.797  55.207 -59.553  1.00  0.00     0.210 C 
ENDBRANCH  18  21
ENDBRANCH  12  15
ENDBRANCH   9  11
ENDBRANCH   7   9
ENDBRANCH   4   7
BRANCH   1  23
HETATM   23  N   UNL     1     -42.468  57.638 -55.710  1.00  0.00    -0.378 N 
HETATM   24  C   UNL     1     -43.289  56.433 -55.994  1.00  0.00     0.143 C 
HETATM   25  C   UNL     1     -42.527  55.152 -55.617  1.00  0.00     0.146 C 
HETATM   26  N   UNL     1     -42.054  55.171 -54.234  1.00  0.00    -0.345 N 
HETATM   27  C   UNL     1     -41.725  53.930 -53.682  1.00  0.00     0.253 C 
HETATM   28  C   UNL     1     -41.286  56.377 -53.896  1.00  0.00     0.146 C 
HETATM   29  O   UNL     1     -41.748  52.882 -54.324  1.00  0.00    -0.267 OA
HETATM   30  C   UNL     1     -41.996  57.686 -54.307  1.00  0.00     0.143 C 
BRANCH  27  31
HETATM   31  C   UNL     1     -41.406  53.850 -52.235  1.00  0.00     0.032 A 
HETATM   32  C   UNL     1     -40.154  53.399 -51.802  1.00  0.00     0.017 A 
HETATM   33  C   UNL     1     -39.834  53.428 -50.443  1.00  0.00     0.007 A 
HETATM   34  C   UNL     1     -40.758  53.911 -49.506  1.00  0.00    -0.062 A 
HETATM   35  C   UNL     1     -40.385  54.013 -48.056  1.00  0.00     0.048 C 
HETATM   36  C   UNL     1     -42.000  54.383 -49.950  1.00  0.00     0.007 A 
HETATM   37  C   UNL     1     -42.324  54.355 -51.309  1.00  0.00     0.017 A 
ENDBRANCH  27  31
ENDBRANCH   1  23
TORSDOF 7
ENDMDL
MODEL 7
REMARK VINA RESULT:      -8.1      3.231      4.895
REMARK  7 active torsions:
REMARK  status: ('A' for Active; 'I' for Inactive)
REMARK    1  A    between atoms: C_5  and  C_6 
REMARK       I    between atoms: C_6  and  N_7 
REMARK    2  A    between atoms: N_10  and  C_11 
REMARK    3  A    between atoms: C_14  and  N_15 
REMARK    4  A    between atoms: N_15  and  C_16 
REMARK    5  A    between atoms: C_16  and  N_17 
REMARK       I    between atoms: N_17  and  C_18 
REMARK    6  A    between atoms: C_18  and  C_19 
REMARK    7  A    between atoms: C_22  and  O_23 
ROOT
HETATM    1  C   UNL     1     -43.299  58.870 -51.947  1.00  0.00     0.030 A 
HETATM    2  C   UNL     1     -42.664  60.118 -51.835  1.00  0.00     0.031 A 
HETATM    3  C   UNL     1     -43.285  61.314 -52.231  1.00  0.00     0.032 A 
HETATM    4  C   UNL     1     -44.582  61.308 -52.739  1.00  0.00     0.034 A 
HETATM    5  C   UNL     1     -45.241  60.088 -52.853  1.00  0.00     0.032 A 
HETATM    6  C   UNL     1     -44.600  58.898 -52.476  1.00  0.00     0.031 A 
ENDROOT
BRANCH   4   7
HETATM    7  N   UNL     1     -45.116  62.531 -53.211  1.00  0.00    -0.333 N 
HETATM    8  H   UNL     1     -44.698  63.352 -52.780  1.00  0.00     0.168 HD
BRANCH   7   9
HETATM    9  C   UNL     1     -45.689  62.762 -54.422  1.00  0.00     0.179 C 
HETATM   10  S   UNL     1     -47.333  62.559 -54.621  1.00  0.00    -0.040 SA
BRANCH   9  11
HETATM   11  N   UNL     1     -44.915  63.102 -55.504  1.00  0.00    -0.299 N 
HETATM   12  C   UNL     1     -43.818  62.484 -56.094  1.00  0.00     0.257 C 
HETATM   13  O   UNL     1     -42.927  63.149 -56.615  1.00  0.00    -0.267 OA
HETATM   14  H   UNL     1     -45.092  64.030 -55.869  1.00  0.00     0.171 HD
BRANCH  12  15
HETATM   15  C   UNL     1     -43.761  60.998 -56.121  1.00  0.00     0.032 A 
HETATM   16  C   UNL     1     -42.639  60.308 -55.652  1.00  0.00     0.020 A 
HETATM   17  C   UNL     1     -42.625  58.910 -55.663  1.00  0.00     0.038 A 
HETATM   18  C   UNL     1     -43.731  58.191 -56.119  1.00  0.00     0.068 A 
HETATM   19  C   UNL     1     -44.862  58.880 -56.563  1.00  0.00     0.038 A 
HETATM   20  C   UNL     1     -44.879  60.281 -56.557  1.00  0.00     0.020 A 
BRANCH  18  21
HETATM   21  O   UNL     1     -43.580  56.832 -56.075  1.00  0.00    -0.356 OA
HETATM   22  C   UNL     1     -42.958  56.217 -57.195  1.00  0.00     0.210 C 
ENDBRANCH  18  21
ENDBRANCH  12  15
ENDBRANCH   9  11
ENDBRANCH   7   9
ENDBRANCH   4   7
BRANCH   1  23
HETATM   23  N   UNL     1     -42.667  57.656 -51.645  1.00  0.00    -0.378 N 
HETATM   24  C   UNL     1     -41.338  57.734 -50.987  1.00  0.00     0.143 C 
HETATM   25  C   UNL     1     -40.981  56.397 -50.317  1.00  0.00     0.146 C 
HETATM   26  N   UNL     1     -41.061  55.269 -51.245  1.00  0.00    -0.345 N 
HETATM   27  C   UNL     1     -40.379  54.111 -50.861  1.00  0.00     0.253 C 
HETATM   28  C   UNL     1     -42.341  55.191 -51.960  1.00  0.00     0.146 C 
HETATM   29  O   UNL     1     -39.806  53.996 -49.779  1.00  0.00    -0.267 OA
HETATM   30  C   UNL     1     -42.761  56.531 -52.604  1.00  0.00     0.143 C 
BRANCH  27  31
HETATM   31  C   UNL     1     -40.268  52.990 -51.827  1.00  0.00     0.032 A 
HETATM   32  C   UNL     1     -40.465  53.203 -53.195  1.00  0.00     0.017 A 
HETATM   33  C   UNL     1     -40.255  52.160 -54.100  1.00  0.00     0.007 A 
HETATM   34  C   UNL     1     -39.843  50.899 -53.647  1.00  0.00    -0.062 A 
HETATM   35  C   UNL     1     -39.545  49.801 -54.627  1.00  0.00     0.048 C 
HETATM   36  C   UNL     1     -39.626  50.701 -52.278  1.00  0.00     0.007 A 
HETATM   37  C   UNL     1     -39.835  51.742 -51.370  1.00  0.00     0.017 A 
ENDBRANCH  27  31
ENDBRANCH   1  23
TORSDOF 7
ENDMDL
MODEL 8
REMARK VINA RESULT:      -8.1      5.920      8.116
REMARK  7 active torsions:
REMARK  status: ('A' for Active; 'I' for Inactive)
REMARK    1  A    between atoms: C_5  and  C_6 
REMARK       I    between atoms: C_6  and  N_7 
REMARK    2  A    between atoms: N_10  and  C_11 
REMARK    3  A    between atoms: C_14  and  N_15 
REMARK    4  A    between atoms: N_15  and  C_16 
REMARK    5  A    between atoms: C_16  and  N_17 
REMARK       I    between atoms: N_17  and  C_18 
REMARK    6  A    between atoms: C_18  and  C_19 
REMARK    7  A    between atoms: C_22  and  O_23 
ROOT
HETATM    1  C   UNL     1     -42.900  59.057 -56.126  1.00  0.00     0.030 A 
HETATM    2  C   UNL     1     -44.221  59.476 -56.356  1.00  0.00     0.031 A 
HETATM    3  C   UNL     1     -44.530  60.546 -57.212  1.00  0.00     0.032 A 
HETATM    4  C   UNL     1     -43.523  61.229 -57.890  1.00  0.00     0.034 A 
HETATM    5  C   UNL     1     -42.205  60.831 -57.690  1.00  0.00     0.032 A 
HETATM    6  C   UNL     1     -41.908  59.776 -56.814  1.00  0.00     0.031 A 
ENDROOT
BRANCH   4   7
HETATM    7  N   UNL     1     -43.889  62.358 -58.661  1.00  0.00    -0.333 N 
HETATM    8  H   UNL     1     -44.221  63.141 -58.105  1.00  0.00     0.168 HD
BRANCH   7   9
HETATM    9  C   UNL     1     -43.414  62.701 -59.888  1.00  0.00     0.179 C 
HETATM   10  S   UNL     1     -42.120  63.747 -60.020  1.00  0.00    -0.040 SA
BRANCH   9  11
HETATM   11  N   UNL     1     -44.030  62.242 -61.026  1.00  0.00    -0.299 N 
HETATM   12  C   UNL     1     -43.866  61.078 -61.768  1.00  0.00     0.257 C 
HETATM   13  O   UNL     1     -44.019  61.081 -62.986  1.00  0.00    -0.267 OA
HETATM   14  H   UNL     1     -44.624  62.923 -61.482  1.00  0.00     0.171 HD
BRANCH  12  15
HETATM   15  C   UNL     1     -43.541  59.814 -61.054  1.00  0.00     0.032 A 
HETATM   16  C   UNL     1     -44.548  59.003 -60.521  1.00  0.00     0.020 A 
HETATM   17  C   UNL     1     -44.214  57.807 -59.880  1.00  0.00     0.038 A 
HETATM   18  C   UNL     1     -42.882  57.398 -59.784  1.00  0.00     0.068 A 
HETATM   19  C   UNL     1     -41.879  58.196 -60.339  1.00  0.00     0.038 A 
HETATM   20  C   UNL     1     -42.208  59.397 -60.979  1.00  0.00     0.020 A 
BRANCH  18  21
HETATM   21  O   UNL     1     -42.700  56.211 -59.131  1.00  0.00    -0.356 OA
HETATM   22  C   UNL     1     -43.763  55.269 -59.197  1.00  0.00     0.210 C 
ENDBRANCH  18  21
ENDBRANCH  12  15
ENDBRANCH   9  11
ENDBRANCH   7   9
ENDBRANCH   4   7
BRANCH   1  23
HETATM   23  N   UNL     1     -42.559  58.054 -55.207  1.00  0.00    -0.378 N 
HETATM   24  C   UNL     1     -41.581  58.414 -54.150  1.00  0.00     0.143 C 
HETATM   25  C   UNL     1     -41.645  57.416 -52.983  1.00  0.00     0.146 C 
HETATM   26  N   UNL     1     -41.481  56.031 -53.424  1.00  0.00    -0.345 N 
HETATM   27  C   UNL     1     -41.119  55.112 -52.435  1.00  0.00     0.253 C 
HETATM   28  C   UNL     1     -42.393  55.653 -54.512  1.00  0.00     0.146 C 
HETATM   29  O   UNL     1     -41.017  55.410 -51.246  1.00  0.00    -0.267 OA
HETATM   30  C   UNL     1     -42.396  56.660 -55.682  1.00  0.00     0.143 C 
BRANCH  27  31
HETATM   31  C   UNL     1     -40.764  53.728 -52.836  1.00  0.00     0.032 A 
HETATM   32  C   UNL     1     -40.923  53.305 -54.160  1.00  0.00     0.017 A 
HETATM   33  C   UNL     1     -40.487  52.033 -54.542  1.00  0.00     0.007 A 
HETATM   34  C   UNL     1     -39.887  51.178 -53.608  1.00  0.00    -0.062 A 
HETATM   35  C   UNL     1     -39.351  49.843 -54.036  1.00  0.00     0.048 C 
HETATM   36  C   UNL     1     -39.711  51.619 -52.290  1.00  0.00     0.007 A 
HETATM   37  C   UNL     1     -40.145  52.890 -51.904  1.00  0.00     0.017 A 
ENDBRANCH  27  31
ENDBRANCH   1  23
TORSDOF 7
ENDMDL
MODEL 9
REMARK VINA RESULT:      -7.7      5.872      9.431
REMARK  7 active torsions:
REMARK  status: ('A' for Active; 'I' for Inactive)
REMARK    1  A    between atoms: C_5  and  C_6 
REMARK       I    between atoms: C_6  and  N_7 
REMARK    2  A    between atoms: N_10  and  C_11 
REMARK    3  A    between atoms: C_14  and  N_15 
REMARK    4  A    between atoms: N_15  and  C_16 
REMARK    5  A    between atoms: C_16  and  N_17 
REMARK       I    between atoms: N_17  and  C_18 
REMARK    6  A    between atoms: C_18  and  C_19 
REMARK    7  A    between atoms: C_22  and  O_23 
ROOT
HETATM    1  C   UNL     1     -42.510  56.017 -55.481  1.00  0.00     0.030 A 
HETATM    2  C   UNL     1     -41.276  55.547 -55.002  1.00  0.00     0.031 A 
HETATM    3  C   UNL     1     -41.184  54.616 -53.953  1.00  0.00     0.032 A 
HETATM    4  C   UNL     1     -42.331  54.103 -53.354  1.00  0.00     0.034 A 
HETATM    5  C   UNL     1     -43.569  54.542 -53.813  1.00  0.00     0.032 A 
HETATM    6  C   UNL     1     -43.647  55.490 -54.845  1.00  0.00     0.031 A 
ENDROOT
BRANCH   4   7
HETATM    7  N   UNL     1     -42.172  53.243 -52.240  1.00  0.00    -0.333 N 
HETATM    8  H   UNL     1     -42.551  52.312 -52.387  1.00  0.00     0.168 HD
BRANCH   7   9
HETATM    9  C   UNL     1     -41.209  53.315 -51.282  1.00  0.00     0.179 C 
HETATM   10  S   UNL     1     -39.722  52.602 -51.539  1.00  0.00    -0.040 SA
BRANCH   9  11
HETATM   11  N   UNL     1     -41.471  53.917 -50.077  1.00  0.00    -0.299 N 
HETATM   12  C   UNL     1     -41.494  55.252 -49.689  1.00  0.00     0.257 C 
HETATM   13  O   UNL     1     -41.159  55.583 -48.555  1.00  0.00    -0.267 OA
HETATM   14  H   UNL     1     -41.540  53.275 -49.297  1.00  0.00     0.171 HD
BRANCH  12  15
HETATM   15  C   UNL     1     -41.972  56.272 -50.661  1.00  0.00     0.032 A 
HETATM   16  C   UNL     1     -43.337  56.519 -50.840  1.00  0.00     0.020 A 
HETATM   17  C   UNL     1     -43.755  57.503 -51.740  1.00  0.00     0.038 A 
HETATM   18  C   UNL     1     -42.822  58.261 -52.449  1.00  0.00     0.068 A 
HETATM   19  C   UNL     1     -41.459  58.032 -52.251  1.00  0.00     0.038 A 
HETATM   20  C   UNL     1     -41.034  57.045 -51.353  1.00  0.00     0.020 A 
BRANCH  18  21
HETATM   21  O   UNL     1     -43.370  59.187 -53.295  1.00  0.00    -0.356 OA
HETATM   22  C   UNL     1     -44.448  59.963 -52.789  1.00  0.00     0.210 C 
ENDBRANCH  18  21
ENDBRANCH  12  15
ENDBRANCH   9  11
ENDBRANCH   7   9
ENDBRANCH   4   7
BRANCH   1  23
HETATM   23  N   UNL     1     -42.627  57.012 -56.461  1.00  0.00    -0.378 N 
HETATM   24  C   UNL     1     -42.831  56.558 -57.860  1.00  0.00     0.143 C 
HETATM   25  C   UNL     1     -43.387  57.697 -58.728  1.00  0.00     0.146 C 
HETATM   26  N   UNL     1     -42.559  58.901 -58.666  1.00  0.00    -0.345 N 
HETATM   27  C   UNL     1     -42.736  59.821 -59.703  1.00  0.00     0.253 C 
HETATM   28  C   UNL     1     -42.284  59.350 -57.295  1.00  0.00     0.146 C 
HETATM   29  O   UNL     1     -43.585  59.688 -60.582  1.00  0.00    -0.267 OA
HETATM   30  C   UNL     1     -41.773  58.220 -56.375  1.00  0.00     0.143 C 
BRANCH  27  31
HETATM   31  C   UNL     1     -41.811  60.978 -59.803  1.00  0.00     0.032 A 
HETATM   32  C   UNL     1     -41.176  61.485 -58.664  1.00  0.00     0.017 A 
HETATM   33  C   UNL     1     -40.230  62.506 -58.790  1.00  0.00     0.007 A 
HETATM   34  C   UNL     1     -39.909  63.024 -60.052  1.00  0.00    -0.062 A 
HETATM   35  C   UNL     1     -38.838  64.067 -60.194  1.00  0.00     0.048 C 
HETATM   36  C   UNL     1     -40.533  62.494 -61.189  1.00  0.00     0.007 A 
HETATM   37  C   UNL     1     -41.479  61.474 -61.067  1.00  0.00     0.017 A 
ENDBRANCH  27  31
ENDBRANCH   1  23
TORSDOF 7
ENDMDL
MODEL 10
REMARK VINA RESULT:      -7.6      6.354     10.104
REMARK  7 active torsions:
REMARK  status: ('A' for Active; 'I' for Inactive)
REMARK    1  A    between atoms: C_5  and  C_6 
REMARK       I    between atoms: C_6  and  N_7 
REMARK    2  A    between atoms: N_10  and  C_11 
REMARK    3  A    between atoms: C_14  and  N_15 
REMARK    4  A    between atoms: N_15  and  C_16 
REMARK    5  A    between atoms: C_16  and  N_17 
REMARK       I    between atoms: N_17  and  C_18 
REMARK    6  A    between atoms: C_18  and  C_19 
REMARK    7  A    between atoms: C_22  and  O_23 
ROOT
HETATM    1  C   UNL     1     -44.383  58.250 -55.879  1.00  0.00     0.030 A 
HETATM    2  C   UNL     1     -45.088  58.658 -54.735  1.00  0.00     0.031 A 
HETATM    3  C   UNL     1     -44.440  58.999 -53.536  1.00  0.00     0.032 A 
HETATM    4  C   UNL     1     -43.050  58.962 -53.443  1.00  0.00     0.034 A 
HETATM    5  C   UNL     1     -42.324  58.571 -54.562  1.00  0.00     0.032 A 
HETATM    6  C   UNL     1     -42.984  58.210 -55.747  1.00  0.00     0.031 A 
ENDROOT
BRANCH   4   7
HETATM    7  N   UNL     1     -42.462  59.223 -52.182  1.00  0.00    -0.333 N 
HETATM    8  H   UNL     1     -42.740  60.114 -51.779  1.00  0.00     0.168 HD
BRANCH   7   9
HETATM    9  C   UNL     1     -42.028  58.307 -51.276  1.00  0.00     0.179 C 
HETATM   10  S   UNL     1     -40.392  58.093 -51.023  1.00  0.00    -0.040 SA
BRANCH   9  11
HETATM   11  N   UNL     1     -42.924  57.508 -50.609  1.00  0.00    -0.299 N 
HETATM   12  C   UNL     1     -43.611  56.362 -50.991  1.00  0.00     0.257 C 
HETATM   13  O   UNL     1     -44.738  56.132 -50.561  1.00  0.00    -0.267 OA
HETATM   14  H   UNL     1     -43.238  57.884 -49.723  1.00  0.00     0.171 HD
BRANCH  12  15
HETATM   15  C   UNL     1     -42.941  55.393 -51.899  1.00  0.00     0.032 A 
HETATM   16  C   UNL     1     -41.941  54.534 -51.432  1.00  0.00     0.020 A 
HETATM   17  C   UNL     1     -41.348  53.615 -52.302  1.00  0.00     0.038 A 
HETATM   18  C   UNL     1     -41.759  53.529 -53.634  1.00  0.00     0.068 A 
HETATM   19  C   UNL     1     -42.776  54.369 -54.093  1.00  0.00     0.038 A 
HETATM   20  C   UNL     1     -43.370  55.294 -53.226  1.00  0.00     0.020 A 
BRANCH  18  21
HETATM   21  O   UNL     1     -41.095  52.588 -54.372  1.00  0.00    -0.356 OA
HETATM   22  C   UNL     1     -39.972  51.965 -53.762  1.00  0.00     0.210 C 
ENDBRANCH  18  21
ENDBRANCH  12  15
ENDBRANCH   9  11
ENDBRANCH   7   9
ENDBRANCH   4   7
BRANCH   1  23
HETATM   23  N   UNL     1     -45.010  57.817 -57.056  1.00  0.00    -0.378 N 
HETATM   24  C   UNL     1     -44.128  57.339 -58.151  1.00  0.00     0.143 C 
HETATM   25  C   UNL     1     -44.920  56.494 -59.160  1.00  0.00     0.146 C 
HETATM   26  N   UNL     1     -46.093  57.197 -59.679  1.00  0.00    -0.345 N 
HETATM   27  C   UNL     1     -46.629  56.700 -60.870  1.00  0.00     0.253 C 
HETATM   28  C   UNL     1     -46.962  57.738 -58.625  1.00  0.00     0.146 C 
HETATM   29  O   UNL     1     -46.208  55.687 -61.425  1.00  0.00    -0.267 OA
HETATM   30  C   UNL     1     -46.194  58.551 -57.560  1.00  0.00     0.143 C 
BRANCH  27  31
HETATM   31  C   UNL     1     -47.706  57.464 -61.546  1.00  0.00     0.032 A 
HETATM   32  C   UNL     1     -48.801  56.805 -62.115  1.00  0.00     0.017 A 
HETATM   33  C   UNL     1     -49.856  57.545 -62.656  1.00  0.00     0.007 A 
HETATM   34  C   UNL     1     -49.829  58.946 -62.627  1.00  0.00    -0.062 A 
HETATM   35  C   UNL     1     -50.997  59.738 -63.139  1.00  0.00     0.048 C 
HETATM   36  C   UNL     1     -48.740  59.597 -62.034  1.00  0.00     0.007 A 
HETATM   37  C   UNL     1     -47.683  58.861 -61.493  1.00  0.00     0.017 A 
ENDBRANCH  27  31
ENDBRANCH   1  23
TORSDOF 7
ENDMDL
