MODEL 1
REMARK VINA RESULT:      -7.7      0.000      0.000
REMARK  6 active torsions:
REMARK  status: ('A' for Active; 'I' for Inactive)
REMARK    1  A    between atoms: C_9  and  C_10 
REMARK    2  A    between atoms: C_12  and  O_13 
REMARK    3  A    between atoms: C_15  and  O_16 
REMARK    4  A    between atoms: O_16  and  C_17 
REMARK    5  A    between atoms: C_17  and  C_18 
REMARK    6  A    between atoms: C_18  and  N_19 
ROOT
HETATM    1  H   UNL     1     -40.695  60.668 -54.599  1.00  0.00     0.186 HD
HETATM    2  N   UNL     1     -41.357  59.884 -54.702  1.00  0.00    -0.304 NA
HETATM    3  C   UNL     1     -42.501  60.059 -54.115  1.00  0.00     0.062 C 
HETATM    4  C   UNL     1     -43.606  58.990 -54.227  1.00  0.00     0.173 C 
HETATM    5  C   UNL     1     -44.713  59.545 -55.108  1.00  0.00     0.012 C 
HETATM    6  N   UNL     1     -45.631  60.005 -55.840  1.00  0.00    -0.099 N 
HETATM    7  C   UNL     1     -43.107  57.750 -54.869  1.00  0.00     0.090 C 
HETATM    8  N   UNL     1     -42.755  56.730 -55.295  1.00  0.00    -0.195 NA
HETATM    9  C   UNL     1     -44.183  58.651 -52.801  1.00  0.00     0.070 C 
HETATM   10  C   UNL     1     -44.567  59.940 -52.006  1.00  0.00     0.053 C 
HETATM   11  C   UNL     1     -43.429  60.950 -51.961  1.00  0.00    -0.052 C 
HETATM   12  C   UNL     1     -43.113  61.578 -50.808  1.00  0.00     0.005 C 
HETATM   13  C   UNL     1     -42.759  61.312 -53.279  1.00  0.00     0.171 C 
HETATM   14  C   UNL     1     -43.583  62.295 -53.997  1.00  0.00     0.074 C 
HETATM   15  N   UNL     1     -44.292  63.074 -54.478  1.00  0.00    -0.196 NA
HETATM   16  C   UNL     1     -45.168  59.617 -50.611  1.00  0.00     0.244 C 
HETATM   17  N   UNL     1     -45.251  60.851 -49.745  1.00  0.00    -0.071 N 
HETATM   18  H   UNL     1     -45.576  60.545 -48.818  1.00  0.00     0.279 HD
HETATM   19  C   UNL     1     -46.277  61.860 -50.198  1.00  0.00     0.270 C 
HETATM   20  C   UNL     1     -43.882  61.442 -49.529  1.00  0.00     0.262 C 
ENDROOT
BRANCH   9  21
HETATM   21  C   UNL     1     -43.320  57.655 -52.004  1.00  0.00    -0.047 A 
HETATM   22  C   UNL     1     -43.811  56.436 -51.511  1.00  0.00     0.047 A 
HETATM   23  C   UNL     1     -43.062  55.680 -50.594  1.00  0.00     0.102 A 
HETATM   24  C   UNL     1     -41.771  56.071 -50.221  1.00  0.00     0.102 A 
HETATM   25  C   UNL     1     -41.236  57.226 -50.788  1.00  0.00     0.040 A 
HETATM   26  C   UNL     1     -42.009  58.021 -51.647  1.00  0.00     0.010 A 
BRANCH  23  27
HETATM   27  O   UNL     1     -43.576  54.528 -50.045  1.00  0.00    -0.353 OA
HETATM   28  C   UNL     1     -44.286  53.745 -51.011  1.00  0.00     0.210 C 
ENDBRANCH  23  27
BRANCH  24  29
HETATM   29  O   UNL     1     -41.131  55.280 -49.299  1.00  0.00    -0.347 OA
BRANCH  29  30
HETATM   30  C   UNL     1     -39.960  54.592 -49.751  1.00  0.00     0.203 C 
BRANCH  30  31
HETATM   31  C   UNL     1     -40.369  53.193 -50.234  1.00  0.00     0.261 C 
BRANCH  31  32
HETATM   32  N   UNL     1     -39.935  52.928 -51.665  1.00  0.00    -0.065 N 
HETATM   33  H   UNL     1     -39.054  53.451 -51.794  1.00  0.00     0.280 HD
HETATM   34  C   UNL     1     -39.649  51.462 -51.964  1.00  0.00     0.261 C 
HETATM   35  C   UNL     1     -39.258  51.298 -53.437  1.00  0.00     0.195 C 
HETATM   36  O   UNL     1     -40.286  51.798 -54.298  1.00  0.00    -0.388 OA
HETATM   37  C   UNL     1     -40.510  53.196 -54.094  1.00  0.00     0.195 C 
HETATM   38  C   UNL     1     -40.963  53.473 -52.658  1.00  0.00     0.261 C 
ENDBRANCH  31  32
ENDBRANCH  30  31
ENDBRANCH  29  30
ENDBRANCH  24  29
ENDBRANCH   9  21
TORSDOF 6
ENDMDL
MODEL 2
REMARK VINA RESULT:      -7.6      3.853      7.320
REMARK  6 active torsions:
REMARK  status: ('A' for Active; 'I' for Inactive)
REMARK    1  A    between atoms: C_9  and  C_10 
REMARK    2  A    between atoms: C_12  and  O_13 
REMARK    3  A    between atoms: C_15  and  O_16 
REMARK    4  A    between atoms: O_16  and  C_17 
REMARK    5  A    between atoms: C_17  and  C_18 
REMARK    6  A    between atoms: C_18  and  N_19 
ROOT
HETATM    1  H   UNL     1     -44.670  54.254 -50.943  1.00  0.00     0.186 HD
HETATM    2  N   UNL     1     -44.036  54.117 -51.744  1.00  0.00    -0.304 NA
HETATM    3  C   UNL     1     -42.956  54.836 -51.711  1.00  0.00     0.062 C 
HETATM    4  C   UNL     1     -41.893  54.697 -52.819  1.00  0.00     0.173 C 
HETATM    5  C   UNL     1     -40.673  54.015 -52.220  1.00  0.00     0.012 C 
HETATM    6  N   UNL     1     -39.661  53.449 -51.724  1.00  0.00    -0.099 N 
HETATM    7  C   UNL     1     -42.373  53.847 -53.935  1.00  0.00     0.090 C 
HETATM    8  N   UNL     1     -42.720  53.254 -54.871  1.00  0.00    -0.195 NA
HETATM    9  C   UNL     1     -41.491  56.115 -53.370  1.00  0.00     0.070 C 
HETATM   10  C   UNL     1     -41.140  57.110 -52.217  1.00  0.00     0.053 C 
HETATM   11  C   UNL     1     -42.231  57.173 -51.158  1.00  0.00    -0.052 C 
HETATM   12  C   UNL     1     -42.644  58.361 -50.665  1.00  0.00     0.005 C 
HETATM   13  C   UNL     1     -42.737  55.853 -50.592  1.00  0.00     0.171 C 
HETATM   14  C   UNL     1     -41.797  55.362 -49.575  1.00  0.00     0.074 C 
HETATM   15  N   UNL     1     -41.006  55.064 -48.783  1.00  0.00    -0.196 NA
HETATM   16  C   UNL     1     -40.709  58.504 -52.751  1.00  0.00     0.244 C 
HETATM   17  N   UNL     1     -40.668  59.531 -51.645  1.00  0.00    -0.071 N 
HETATM   18  H   UNL     1     -40.460  60.438 -52.084  1.00  0.00     0.279 HD
HETATM   19  C   UNL     1     -39.556  59.325 -50.646  1.00  0.00     0.270 C 
HETATM   20  C   UNL     1     -42.026  59.683 -51.008  1.00  0.00     0.262 C 
ENDROOT
BRANCH   9  21
HETATM   21  C   UNL     1     -42.478  56.680 -54.409  1.00  0.00    -0.047 A 
HETATM   22  C   UNL     1     -42.082  57.139 -55.675  1.00  0.00     0.047 A 
HETATM   23  C   UNL     1     -42.974  57.859 -56.487  1.00  0.00     0.102 A 
HETATM   24  C   UNL     1     -44.304  58.057 -56.099  1.00  0.00     0.102 A 
HETATM   25  C   UNL     1     -44.733  57.512 -54.889  1.00  0.00     0.040 A 
HETATM   26  C   UNL     1     -43.825  56.856 -54.044  1.00  0.00     0.010 A 
BRANCH  23  27
HETATM   27  O   UNL     1     -42.564  58.384 -57.690  1.00  0.00    -0.353 OA
HETATM   28  C   UNL     1     -41.871  59.626 -57.525  1.00  0.00     0.210 C 
ENDBRANCH  23  27
BRANCH  24  29
HETATM   29  O   UNL     1     -45.090  58.796 -56.948  1.00  0.00    -0.347 OA
BRANCH  29  30
HETATM   30  C   UNL     1     -46.412  58.303 -57.187  1.00  0.00     0.203 C 
BRANCH  30  31
HETATM   31  C   UNL     1     -46.582  58.067 -58.695  1.00  0.00     0.261 C 
BRANCH  31  32
HETATM   32  N   UNL     1     -45.692  56.949 -59.207  1.00  0.00    -0.065 N 
HETATM   33  H   UNL     1     -45.322  56.475 -58.368  1.00  0.00     0.280 HD
HETATM   34  C   UNL     1     -46.425  55.906 -60.041  1.00  0.00     0.261 C 
HETATM   35  C   UNL     1     -45.434  54.848 -60.540  1.00  0.00     0.195 C 
HETATM   36  O   UNL     1     -44.381  55.450 -61.297  1.00  0.00    -0.388 OA
HETATM   37  C   UNL     1     -43.622  56.370 -60.507  1.00  0.00     0.195 C 
HETATM   38  C   UNL     1     -44.508  57.511 -59.997  1.00  0.00     0.261 C 
ENDBRANCH  31  32
ENDBRANCH  30  31
ENDBRANCH  29  30
ENDBRANCH  24  29
ENDBRANCH   9  21
TORSDOF 6
ENDMDL
MODEL 3
REMARK VINA RESULT:      -7.5      0.818      1.930
REMARK  6 active torsions:
REMARK  status: ('A' for Active; 'I' for Inactive)
REMARK    1  A    between atoms: C_9  and  C_10 
REMARK    2  A    between atoms: C_12  and  O_13 
REMARK    3  A    between atoms: C_15  and  O_16 
REMARK    4  A    between atoms: O_16  and  C_17 
REMARK    5  A    between atoms: C_17  and  C_18 
REMARK    6  A    between atoms: C_18  and  N_19 
ROOT
HETATM    1  H   UNL     1     -40.751  60.806 -54.593  1.00  0.00     0.186 HD
HETATM    2  N   UNL     1     -41.360  59.974 -54.622  1.00  0.00    -0.304 NA
HETATM    3  C   UNL     1     -42.540  60.148 -54.113  1.00  0.00     0.062 C 
HETATM    4  C   UNL     1     -43.574  59.004 -54.132  1.00  0.00     0.173 C 
HETATM    5  C   UNL     1     -44.665  59.370 -55.125  1.00  0.00     0.012 C 
HETATM    6  N   UNL     1     -45.571  59.673 -55.948  1.00  0.00    -0.099 N 
HETATM    7  C   UNL     1     -42.970  57.728 -54.587  1.00  0.00     0.090 C 
HETATM    8  N   UNL     1     -42.537  56.687 -54.863  1.00  0.00    -0.195 NA
HETATM    9  C   UNL     1     -44.201  58.810 -52.701  1.00  0.00     0.070 C 
HETATM   10  C   UNL     1     -44.700  60.162 -52.096  1.00  0.00     0.053 C 
HETATM   11  C   UNL     1     -43.627  61.241 -52.133  1.00  0.00    -0.052 C 
HETATM   12  C   UNL     1     -43.407  62.029 -51.058  1.00  0.00     0.005 C 
HETATM   13  C   UNL     1     -42.913  61.477 -53.457  1.00  0.00     0.171 C 
HETATM   14  C   UNL     1     -43.757  62.306 -54.330  1.00  0.00     0.074 C 
HETATM   15  N   UNL     1     -44.485  62.970 -54.937  1.00  0.00    -0.196 NA
HETATM   16  C   UNL     1     -45.351  59.979 -50.698  1.00  0.00     0.244 C 
HETATM   17  N   UNL     1     -45.550  61.304 -50.003  1.00  0.00    -0.071 N 
HETATM   18  H   UNL     1     -45.902  61.098 -49.058  1.00  0.00     0.279 HD
HETATM   19  C   UNL     1     -46.609  62.180 -50.625  1.00  0.00     0.270 C 
HETATM   20  C   UNL     1     -44.231  62.006 -49.806  1.00  0.00     0.262 C 
ENDROOT
BRANCH   9  21
HETATM   21  C   UNL     1     -43.322  57.980 -51.746  1.00  0.00    -0.047 A 
HETATM   22  C   UNL     1     -42.054  58.395 -51.312  1.00  0.00     0.047 A 
HETATM   23  C   UNL     1     -41.200  57.505 -50.641  1.00  0.00     0.102 A 
HETATM   24  C   UNL     1     -41.623  56.214 -50.303  1.00  0.00     0.102 A 
HETATM   25  C   UNL     1     -42.921  55.831 -50.639  1.00  0.00     0.040 A 
HETATM   26  C   UNL     1     -43.750  56.693 -51.372  1.00  0.00     0.010 A 
BRANCH  23  27
HETATM   27  O   UNL     1     -39.925  57.882 -50.290  1.00  0.00    -0.353 OA
HETATM   28  C   UNL     1     -39.527  59.095 -50.939  1.00  0.00     0.210 C 
ENDBRANCH  23  27
BRANCH  24  29
HETATM   29  O   UNL     1     -40.707  55.411 -49.672  1.00  0.00    -0.347 OA
BRANCH  29  30
HETATM   30  C   UNL     1     -40.964  54.004 -49.698  1.00  0.00     0.203 C 
BRANCH  30  31
HETATM   31  C   UNL     1     -39.860  53.318 -50.515  1.00  0.00     0.261 C 
BRANCH  31  32
HETATM   32  N   UNL     1     -40.390  52.700 -51.796  1.00  0.00    -0.065 N 
HETATM   33  H   UNL     1     -41.264  52.215 -51.536  1.00  0.00     0.280 HD
HETATM   34  C   UNL     1     -40.731  53.714 -52.880  1.00  0.00     0.261 C 
HETATM   35  C   UNL     1     -41.218  52.987 -54.139  1.00  0.00     0.195 C 
HETATM   36  O   UNL     1     -40.235  52.060 -54.607  1.00  0.00    -0.388 OA
HETATM   37  C   UNL     1     -39.963  51.045 -53.637  1.00  0.00     0.195 C 
HETATM   38  C   UNL     1     -39.413  51.657 -52.345  1.00  0.00     0.261 C 
ENDBRANCH  31  32
ENDBRANCH  30  31
ENDBRANCH  29  30
ENDBRANCH  24  29
ENDBRANCH   9  21
TORSDOF 6
ENDMDL
MODEL 4
REMARK VINA RESULT:      -7.4      4.079      7.521
REMARK  6 active torsions:
REMARK  status: ('A' for Active; 'I' for Inactive)
REMARK    1  A    between atoms: C_9  and  C_10 
REMARK    2  A    between atoms: C_12  and  O_13 
REMARK    3  A    between atoms: C_15  and  O_16 
REMARK    4  A    between atoms: O_16  and  C_17 
REMARK    5  A    between atoms: C_17  and  C_18 
REMARK    6  A    between atoms: C_18  and  N_19 
ROOT
HETATM    1  H   UNL     1     -45.426  55.052 -53.685  1.00  0.00     0.186 HD
HETATM    2  N   UNL     1     -44.697  55.145 -54.409  1.00  0.00    -0.304 NA
HETATM    3  C   UNL     1     -43.569  55.626 -53.983  1.00  0.00     0.062 C 
HETATM    4  C   UNL     1     -42.373  55.774 -54.945  1.00  0.00     0.173 C 
HETATM    5  C   UNL     1     -41.327  54.740 -54.561  1.00  0.00     0.012 C 
HETATM    6  N   UNL     1     -40.459  53.882 -54.243  1.00  0.00    -0.099 N 
HETATM    7  C   UNL     1     -42.764  55.509 -56.350  1.00  0.00     0.090 C 
HETATM    8  N   UNL     1     -43.026  55.387 -57.475  1.00  0.00    -0.195 NA
HETATM    9  C   UNL     1     -41.758  57.219 -54.831  1.00  0.00     0.070 C 
HETATM   10  C   UNL     1     -41.485  57.621 -53.346  1.00  0.00     0.053 C 
HETATM   11  C   UNL     1     -42.710  57.427 -52.462  1.00  0.00    -0.052 C 
HETATM   12  C   UNL     1     -43.073  58.375 -51.572  1.00  0.00     0.005 C 
HETATM   13  C   UNL     1     -43.419  56.081 -52.532  1.00  0.00     0.171 C 
HETATM   14  C   UNL     1     -42.692  55.098 -51.717  1.00  0.00     0.074 C 
HETATM   15  N   UNL     1     -42.059  54.401 -51.042  1.00  0.00    -0.196 NA
HETATM   16  C   UNL     1     -40.847  59.032 -53.224  1.00  0.00     0.244 C 
HETATM   17  N   UNL     1     -40.870  59.527 -51.798  1.00  0.00    -0.071 N 
HETATM   18  H   UNL     1     -40.512  60.492 -51.809  1.00  0.00     0.279 HD
HETATM   19  C   UNL     1     -39.942  58.785 -50.867  1.00  0.00     0.270 C 
HETATM   20  C   UNL     1     -42.285  59.618 -51.287  1.00  0.00     0.262 C 
ENDROOT
BRANCH   9  21
HETATM   21  C   UNL     1     -42.521  58.284 -55.641  1.00  0.00    -0.047 A 
HETATM   22  C   UNL     1     -43.762  58.807 -55.245  1.00  0.00     0.047 A 
HETATM   23  C   UNL     1     -44.524  59.590 -56.128  1.00  0.00     0.102 A 
HETATM   24  C   UNL     1     -44.028  59.947 -57.387  1.00  0.00     0.102 A 
HETATM   25  C   UNL     1     -42.750  59.518 -57.746  1.00  0.00     0.040 A 
HETATM   26  C   UNL     1     -42.018  58.677 -56.895  1.00  0.00     0.010 A 
BRANCH  23  27
HETATM   27  O   UNL     1     -45.777  60.033 -55.775  1.00  0.00    -0.353 OA
HETATM   28  C   UNL     1     -45.720  61.054 -54.772  1.00  0.00     0.210 C 
ENDBRANCH  23  27
BRANCH  24  29
HETATM   29  O   UNL     1     -44.858  60.693 -58.187  1.00  0.00    -0.347 OA
BRANCH  29  30
HETATM   30  C   UNL     1     -45.825  59.968 -58.955  1.00  0.00     0.203 C 
BRANCH  30  31
HETATM   31  C   UNL     1     -45.210  59.627 -60.321  1.00  0.00     0.261 C 
BRANCH  31  32
HETATM   32  N   UNL     1     -45.439  58.178 -60.709  1.00  0.00    -0.065 N 
HETATM   33  H   UNL     1     -45.496  58.167 -61.740  1.00  0.00     0.280 HD
HETATM   34  C   UNL     1     -44.312  57.239 -60.299  1.00  0.00     0.261 C 
HETATM   35  C   UNL     1     -44.659  55.802 -60.700  1.00  0.00     0.195 C 
HETATM   36  O   UNL     1     -45.896  55.390 -60.113  1.00  0.00    -0.388 OA
HETATM   37  C   UNL     1     -46.986  56.205 -60.554  1.00  0.00     0.195 C 
HETATM   38  C   UNL     1     -46.771  57.668 -60.154  1.00  0.00     0.261 C 
ENDBRANCH  31  32
ENDBRANCH  30  31
ENDBRANCH  29  30
ENDBRANCH  24  29
ENDBRANCH   9  21
TORSDOF 6
ENDMDL
MODEL 5
REMARK VINA RESULT:      -7.3      3.287      5.884
REMARK  6 active torsions:
REMARK  status: ('A' for Active; 'I' for Inactive)
REMARK    1  A    between atoms: C_9  and  C_10 
REMARK    2  A    between atoms: C_12  and  O_13 
REMARK    3  A    between atoms: C_15  and  O_16 
REMARK    4  A    between atoms: O_16  and  C_17 
REMARK    5  A    between atoms: C_17  and  C_18 
REMARK    6  A    between atoms: C_18  and  N_19 
ROOT
HETATM    1  H   UNL     1     -47.467  57.015 -57.054  1.00  0.00     0.186 HD
HETATM    2  N   UNL     1     -46.916  57.659 -56.467  1.00  0.00    -0.304 NA
HETATM    3  C   UNL     1     -46.019  58.343 -57.107  1.00  0.00     0.062 C 
HETATM    4  C   UNL     1     -45.155  59.382 -56.365  1.00  0.00     0.173 C 
HETATM    5  C   UNL     1     -45.589  60.768 -56.816  1.00  0.00     0.012 C 
HETATM    6  N   UNL     1     -45.950  61.916 -57.189  1.00  0.00    -0.099 N 
HETATM    7  C   UNL     1     -45.352  59.311 -54.897  1.00  0.00     0.090 C 
HETATM    8  N   UNL     1     -45.407  59.252 -53.739  1.00  0.00    -0.195 NA
HETATM    9  C   UNL     1     -43.632  59.167 -56.704  1.00  0.00     0.070 C 
HETATM   10  C   UNL     1     -43.387  59.060 -58.244  1.00  0.00     0.053 C 
HETATM   11  C   UNL     1     -44.293  58.028 -58.901  1.00  0.00    -0.052 C 
HETATM   12  C   UNL     1     -43.798  57.155 -59.804  1.00  0.00     0.005 C 
HETATM   13  C   UNL     1     -45.783  58.108 -58.599  1.00  0.00     0.171 C 
HETATM   14  C   UNL     1     -46.398  59.154 -59.427  1.00  0.00     0.074 C 
HETATM   15  N   UNL     1     -46.792  59.987 -60.128  1.00  0.00    -0.196 NA
HETATM   16  C   UNL     1     -41.884  58.882 -58.592  1.00  0.00     0.244 C 
HETATM   17  N   UNL     1     -41.695  58.480 -60.035  1.00  0.00    -0.071 N 
HETATM   18  H   UNL     1     -40.691  58.299 -60.167  1.00  0.00     0.279 HD
HETATM   19  C   UNL     1     -42.024  59.566 -61.031  1.00  0.00     0.270 C 
HETATM   20  C   UNL     1     -42.391  57.174 -60.321  1.00  0.00     0.262 C 
ENDROOT
BRANCH   9  21
HETATM   21  C   UNL     1     -42.965  58.048 -55.882  1.00  0.00    -0.047 A 
HETATM   22  C   UNL     1     -42.043  58.294 -54.854  1.00  0.00     0.047 A 
HETATM   23  C   UNL     1     -41.289  57.246 -54.301  1.00  0.00     0.102 A 
HETATM   24  C   UNL     1     -41.503  55.919 -54.692  1.00  0.00     0.102 A 
HETATM   25  C   UNL     1     -42.492  55.656 -55.638  1.00  0.00     0.040 A 
HETATM   26  C   UNL     1     -43.196  56.708 -56.244  1.00  0.00     0.010 A 
BRANCH  23  27
HETATM   27  O   UNL     1     -40.324  57.496 -53.354  1.00  0.00    -0.353 OA
HETATM   28  C   UNL     1     -40.413  58.830 -52.839  1.00  0.00     0.210 C 
ENDBRANCH  23  27
BRANCH  24  29
HETATM   29  O   UNL     1     -40.698  54.970 -54.114  1.00  0.00    -0.347 OA
BRANCH  29  30
HETATM   30  C   UNL     1     -41.358  53.929 -53.386  1.00  0.00     0.203 C 
BRANCH  30  31
HETATM   31  C   UNL     1     -40.445  53.478 -52.237  1.00  0.00     0.261 C 
BRANCH  31  32
HETATM   32  N   UNL     1     -39.775  52.146 -52.522  1.00  0.00    -0.065 N 
HETATM   33  H   UNL     1     -38.774  52.356 -52.661  1.00  0.00     0.280 HD
HETATM   34  C   UNL     1     -39.883  51.141 -51.382  1.00  0.00     0.261 C 
HETATM   35  C   UNL     1     -39.213  49.823 -51.785  1.00  0.00     0.195 C 
HETATM   36  O   UNL     1     -39.799  49.295 -52.979  1.00  0.00    -0.388 OA
HETATM   37  C   UNL     1     -39.631  50.186 -54.086  1.00  0.00     0.195 C 
HETATM   38  C   UNL     1     -40.315  51.529 -53.815  1.00  0.00     0.261 C 
ENDBRANCH  31  32
ENDBRANCH  30  31
ENDBRANCH  29  30
ENDBRANCH  24  29
ENDBRANCH   9  21
TORSDOF 6
ENDMDL
MODEL 6
REMARK VINA RESULT:      -7.1      3.944      7.765
REMARK  6 active torsions:
REMARK  status: ('A' for Active; 'I' for Inactive)
REMARK    1  A    between atoms: C_9  and  C_10 
REMARK    2  A    between atoms: C_12  and  O_13 
REMARK    3  A    between atoms: C_15  and  O_16 
REMARK    4  A    between atoms: O_16  and  C_17 
REMARK    5  A    between atoms: C_17  and  C_18 
REMARK    6  A    between atoms: C_18  and  N_19 
ROOT
HETATM    1  H   UNL     1     -44.610  54.151 -50.906  1.00  0.00     0.186 HD
HETATM    2  N   UNL     1     -43.961  53.967 -51.686  1.00  0.00    -0.304 NA
HETATM    3  C   UNL     1     -42.890  54.700 -51.683  1.00  0.00     0.062 C 
HETATM    4  C   UNL     1     -41.806  54.499 -52.761  1.00  0.00     0.173 C 
HETATM    5  C   UNL     1     -40.589  53.874 -52.098  1.00  0.00     0.012 C 
HETATM    6  N   UNL     1     -39.580  53.356 -51.548  1.00  0.00    -0.099 N 
HETATM    7  C   UNL     1     -42.257  53.571 -53.826  1.00  0.00     0.090 C 
HETATM    8  N   UNL     1     -42.581  52.912 -54.725  1.00  0.00    -0.195 NA
HETATM    9  C   UNL     1     -41.410  55.882 -53.400  1.00  0.00     0.070 C 
HETATM   10  C   UNL     1     -41.090  56.957 -52.312  1.00  0.00     0.053 C 
HETATM   11  C   UNL     1     -42.201  57.078 -51.278  1.00  0.00    -0.052 C 
HETATM   12  C   UNL     1     -42.635  58.291 -50.873  1.00  0.00     0.005 C 
HETATM   13  C   UNL     1     -42.701  55.793 -50.632  1.00  0.00     0.171 C 
HETATM   14  C   UNL     1     -41.774  55.383 -49.569  1.00  0.00     0.074 C 
HETATM   15  N   UNL     1     -40.994  55.148 -48.745  1.00  0.00    -0.196 NA
HETATM   16  C   UNL     1     -40.666  58.317 -52.931  1.00  0.00     0.244 C 
HETATM   17  N   UNL     1     -40.656  59.416 -51.897  1.00  0.00    -0.071 N 
HETATM   18  H   UNL     1     -40.450  60.294 -52.393  1.00  0.00     0.279 HD
HETATM   19  C   UNL     1     -39.558  59.292 -50.868  1.00  0.00     0.270 C 
HETATM   20  C   UNL     1     -42.026  59.594 -51.294  1.00  0.00     0.262 C 
ENDROOT
BRANCH   9  21
HETATM   21  C   UNL     1     -42.385  56.364 -54.492  1.00  0.00    -0.047 A 
HETATM   22  C   UNL     1     -42.038  56.452 -55.849  1.00  0.00     0.047 A 
HETATM   23  C   UNL     1     -42.874  57.116 -56.761  1.00  0.00     0.102 A 
HETATM   24  C   UNL     1     -44.116  57.625 -56.363  1.00  0.00     0.102 A 
HETATM   25  C   UNL     1     -44.514  57.448 -55.039  1.00  0.00     0.040 A 
HETATM   26  C   UNL     1     -43.650  56.849 -54.110  1.00  0.00     0.010 A 
BRANCH  23  27
HETATM   27  O   UNL     1     -42.496  57.278 -58.073  1.00  0.00    -0.353 OA
HETATM   28  C   UNL     1     -42.799  56.122 -58.863  1.00  0.00     0.210 C 
ENDBRANCH  23  27
BRANCH  24  29
HETATM   29  O   UNL     1     -44.848  58.280 -57.321  1.00  0.00    -0.347 OA
BRANCH  29  30
HETATM   30  C   UNL     1     -45.142  59.658 -57.070  1.00  0.00     0.203 C 
BRANCH  30  31
HETATM   31  C   UNL     1     -43.952  60.508 -57.541  1.00  0.00     0.261 C 
BRANCH  31  32
HETATM   32  N   UNL     1     -43.535  60.176 -58.962  1.00  0.00    -0.065 N 
HETATM   33  H   UNL     1     -43.342  59.162 -58.971  1.00  0.00     0.280 HD
HETATM   34  C   UNL     1     -44.611  60.451 -60.005  1.00  0.00     0.261 C 
HETATM   35  C   UNL     1     -44.077  60.122 -61.403  1.00  0.00     0.195 C 
HETATM   36  O   UNL     1     -42.894  60.873 -61.689  1.00  0.00    -0.388 OA
HETATM   37  C   UNL     1     -41.840  60.564 -60.774  1.00  0.00     0.195 C 
HETATM   38  C   UNL     1     -42.245  60.908 -59.337  1.00  0.00     0.261 C 
ENDBRANCH  31  32
ENDBRANCH  30  31
ENDBRANCH  29  30
ENDBRANCH  24  29
ENDBRANCH   9  21
TORSDOF 6
ENDMDL
MODEL 7
REMARK VINA RESULT:      -7.1      3.081      6.150
REMARK  6 active torsions:
REMARK  status: ('A' for Active; 'I' for Inactive)
REMARK    1  A    between atoms: C_9  and  C_10 
REMARK    2  A    between atoms: C_12  and  O_13 
REMARK    3  A    between atoms: C_15  and  O_16 
REMARK    4  A    between atoms: O_16  and  C_17 
REMARK    5  A    between atoms: C_17  and  C_18 
REMARK    6  A    between atoms: C_18  and  N_19 
ROOT
HETATM    1  H   UNL     1     -47.546  57.036 -57.144  1.00  0.00     0.186 HD
HETATM    2  N   UNL     1     -46.966  57.658 -56.561  1.00  0.00    -0.304 NA
HETATM    3  C   UNL     1     -46.028  58.285 -57.203  1.00  0.00     0.062 C 
HETATM    4  C   UNL     1     -45.115  59.286 -56.469  1.00  0.00     0.173 C 
HETATM    5  C   UNL     1     -45.472  60.686 -56.941  1.00  0.00     0.012 C 
HETATM    6  N   UNL     1     -45.768  61.847 -57.333  1.00  0.00    -0.099 N 
HETATM    7  C   UNL     1     -45.327  59.246 -55.001  1.00  0.00     0.090 C 
HETATM    8  N   UNL     1     -45.394  59.206 -53.843  1.00  0.00    -0.195 NA
HETATM    9  C   UNL     1     -43.604  58.986 -56.792  1.00  0.00     0.070 C 
HETATM   10  C   UNL     1     -43.354  58.844 -58.328  1.00  0.00     0.053 C 
HETATM   11  C   UNL     1     -44.309  57.853 -58.979  1.00  0.00    -0.052 C 
HETATM   12  C   UNL     1     -43.854  56.942 -59.866  1.00  0.00     0.005 C 
HETATM   13  C   UNL     1     -45.795  58.016 -58.690  1.00  0.00     0.171 C 
HETATM   14  C   UNL     1     -46.347  59.082 -59.537  1.00  0.00     0.074 C 
HETATM   15  N   UNL     1     -46.691  59.925 -60.253  1.00  0.00    -0.196 NA
HETATM   16  C   UNL     1     -41.860  58.581 -58.662  1.00  0.00     0.244 C 
HETATM   17  N   UNL     1     -41.682  58.150 -60.098  1.00  0.00    -0.071 N 
HETATM   18  H   UNL     1     -40.688  57.914 -60.220  1.00  0.00     0.279 HD
HETATM   19  C   UNL     1     -41.945  59.238 -61.111  1.00  0.00     0.270 C 
HETATM   20  C   UNL     1     -42.445  56.879 -60.372  1.00  0.00     0.262 C 
ENDROOT
BRANCH   9  21
HETATM   21  C   UNL     1     -43.004  57.844 -55.950  1.00  0.00    -0.047 A 
HETATM   22  C   UNL     1     -42.181  58.062 -54.835  1.00  0.00     0.047 A 
HETATM   23  C   UNL     1     -41.471  57.001 -54.250  1.00  0.00     0.102 A 
HETATM   24  C   UNL     1     -41.635  55.686 -54.702  1.00  0.00     0.102 A 
HETATM   25  C   UNL     1     -42.532  55.448 -55.743  1.00  0.00     0.040 A 
HETATM   26  C   UNL     1     -43.188  56.515 -56.375  1.00  0.00     0.010 A 
BRANCH  23  27
HETATM   27  O   UNL     1     -40.598  57.225 -53.211  1.00  0.00    -0.353 OA
HETATM   28  C   UNL     1     -41.195  58.009 -52.171  1.00  0.00     0.210 C 
ENDBRANCH  23  27
BRANCH  24  29
HETATM   29  O   UNL     1     -40.877  54.723 -54.084  1.00  0.00    -0.347 OA
BRANCH  29  30
HETATM   30  C   UNL     1     -41.571  53.555 -53.633  1.00  0.00     0.203 C 
BRANCH  30  31
HETATM   31  C   UNL     1     -40.753  52.902 -52.509  1.00  0.00     0.261 C 
BRANCH  31  32
HETATM   32  N   UNL     1     -40.665  53.782 -51.275  1.00  0.00    -0.065 N 
HETATM   33  H   UNL     1     -39.951  54.497 -51.488  1.00  0.00     0.280 HD
HETATM   34  C   UNL     1     -41.960  54.510 -50.938  1.00  0.00     0.261 C 
HETATM   35  C   UNL     1     -41.776  55.335 -49.660  1.00  0.00     0.195 C 
HETATM   36  O   UNL     1     -41.366  54.505 -48.570  1.00  0.00    -0.388 OA
HETATM   37  C   UNL     1     -40.106  53.880 -48.829  1.00  0.00     0.195 C 
HETATM   38  C   UNL     1     -40.187  52.978 -50.064  1.00  0.00     0.261 C 
ENDBRANCH  31  32
ENDBRANCH  30  31
ENDBRANCH  29  30
ENDBRANCH  24  29
ENDBRANCH   9  21
TORSDOF 6
ENDMDL
MODEL 8
REMARK VINA RESULT:      -7.1      4.214      7.899
REMARK  6 active torsions:
REMARK  status: ('A' for Active; 'I' for Inactive)
REMARK    1  A    between atoms: C_9  and  C_10 
REMARK    2  A    between atoms: C_12  and  O_13 
REMARK    3  A    between atoms: C_15  and  O_16 
REMARK    4  A    between atoms: O_16  and  C_17 
REMARK    5  A    between atoms: C_17  and  C_18 
REMARK    6  A    between atoms: C_18  and  N_19 
ROOT
HETATM    1  H   UNL     1     -44.639  54.430 -51.105  1.00  0.00     0.186 HD
HETATM    2  N   UNL     1     -43.964  54.222 -51.855  1.00  0.00    -0.304 NA
HETATM    3  C   UNL     1     -42.852  54.886 -51.784  1.00  0.00     0.062 C 
HETATM    4  C   UNL     1     -41.729  54.640 -52.811  1.00  0.00     0.173 C 
HETATM    5  C   UNL     1     -40.588  53.928 -52.102  1.00  0.00     0.012 C 
HETATM    6  N   UNL     1     -39.641  53.338 -51.515  1.00  0.00    -0.099 N 
HETATM    7  C   UNL     1     -42.181  53.762 -53.917  1.00  0.00     0.090 C 
HETATM    8  N   UNL     1     -42.499  53.142 -54.845  1.00  0.00    -0.195 NA
HETATM    9  C   UNL     1     -41.218  56.008 -53.399  1.00  0.00     0.070 C 
HETATM   10  C   UNL     1     -40.889  57.040 -52.272  1.00  0.00     0.053 C 
HETATM   11  C   UNL     1     -42.041  57.209 -51.292  1.00  0.00    -0.052 C 
HETATM   12  C   UNL     1     -42.420  58.439 -50.882  1.00  0.00     0.005 C 
HETATM   13  C   UNL     1     -42.650  55.946 -50.700  1.00  0.00     0.171 C 
HETATM   14  C   UNL     1     -41.805  55.458 -49.602  1.00  0.00     0.074 C 
HETATM   15  N   UNL     1     -41.083  55.161 -48.746  1.00  0.00    -0.196 NA
HETATM   16  C   UNL     1     -40.351  58.382 -52.839  1.00  0.00     0.244 C 
HETATM   17  N   UNL     1     -40.326  59.459 -51.781  1.00  0.00    -0.071 N 
HETATM   18  H   UNL     1     -40.043  60.332 -52.247  1.00  0.00     0.279 HD
HETATM   19  C   UNL     1     -39.293  59.247 -50.703  1.00  0.00     0.270 C 
HETATM   20  C   UNL     1     -41.712  59.710 -51.243  1.00  0.00     0.262 C 
ENDROOT
BRANCH   9  21
HETATM   21  C   UNL     1     -42.105  56.570 -54.526  1.00  0.00    -0.047 A 
HETATM   22  C   UNL     1     -43.326  57.221 -54.291  1.00  0.00     0.047 A 
HETATM   23  C   UNL     1     -44.205  57.499 -55.350  1.00  0.00     0.102 A 
HETATM   24  C   UNL     1     -43.849  57.221 -56.675  1.00  0.00     0.102 A 
HETATM   25  C   UNL     1     -42.593  56.670 -56.926  1.00  0.00     0.040 A 
HETATM   26  C   UNL     1     -41.744  56.325 -55.864  1.00  0.00     0.010 A 
BRANCH  23  27
HETATM   27  O   UNL     1     -45.438  58.060 -55.113  1.00  0.00    -0.353 OA
HETATM   28  C   UNL     1     -45.330  59.377 -54.561  1.00  0.00     0.210 C 
ENDBRANCH  23  27
BRANCH  24  29
HETATM   29  O   UNL     1     -44.787  57.505 -57.637  1.00  0.00    -0.347 OA
BRANCH  29  30
HETATM   30  C   UNL     1     -44.630  56.845 -58.897  1.00  0.00     0.203 C 
BRANCH  30  31
HETATM   31  C   UNL     1     -44.256  57.892 -59.956  1.00  0.00     0.261 C 
BRANCH  31  32
HETATM   32  N   UNL     1     -45.451  58.321 -60.788  1.00  0.00    -0.065 N 
HETATM   33  H   UNL     1     -45.171  58.193 -61.774  1.00  0.00     0.280 HD
HETATM   34  C   UNL     1     -46.703  57.486 -60.553  1.00  0.00     0.261 C 
HETATM   35  C   UNL     1     -47.856  58.024 -61.407  1.00  0.00     0.195 C 
HETATM   36  O   UNL     1     -48.108  59.402 -61.118  1.00  0.00    -0.388 OA
HETATM   37  C   UNL     1     -46.972  60.219 -61.416  1.00  0.00     0.195 C 
HETATM   38  C   UNL     1     -45.764  59.804 -60.571  1.00  0.00     0.261 C 
ENDBRANCH  31  32
ENDBRANCH  30  31
ENDBRANCH  29  30
ENDBRANCH  24  29
ENDBRANCH   9  21
TORSDOF 6
ENDMDL
MODEL 9
REMARK VINA RESULT:      -6.9      3.171      5.988
REMARK  6 active torsions:
REMARK  status: ('A' for Active; 'I' for Inactive)
REMARK    1  A    between atoms: C_9  and  C_10 
REMARK    2  A    between atoms: C_12  and  O_13 
REMARK    3  A    between atoms: C_15  and  O_16 
REMARK    4  A    between atoms: O_16  and  C_17 
REMARK    5  A    between atoms: C_17  and  C_18 
REMARK    6  A    between atoms: C_18  and  N_19 
ROOT
HETATM    1  H   UNL     1     -46.959  56.805 -56.613  1.00  0.00     0.186 HD
HETATM    2  N   UNL     1     -46.594  57.682 -56.213  1.00  0.00    -0.304 NA
HETATM    3  C   UNL     1     -45.889  58.400 -57.032  1.00  0.00     0.062 C 
HETATM    4  C   UNL     1     -45.320  59.762 -56.584  1.00  0.00     0.173 C 
HETATM    5  C   UNL     1     -46.083  60.856 -57.313  1.00  0.00     0.012 C 
HETATM    6  N   UNL     1     -46.715  61.763 -57.918  1.00  0.00    -0.099 N 
HETATM    7  C   UNL     1     -45.510  59.983 -55.129  1.00  0.00     0.090 C 
HETATM    8  N   UNL     1     -45.562  60.179 -53.986  1.00  0.00    -0.195 NA
HETATM    9  C   UNL     1     -43.789  59.856 -56.936  1.00  0.00     0.070 C 
HETATM   10  C   UNL     1     -43.508  59.462 -58.422  1.00  0.00     0.053 C 
HETATM   11  C   UNL     1     -44.119  58.116 -58.787  1.00  0.00    -0.052 C 
HETATM   12  C   UNL     1     -43.411  57.209 -59.493  1.00  0.00     0.005 C 
HETATM   13  C   UNL     1     -45.585  57.894 -58.441  1.00  0.00     0.171 C 
HETATM   14  C   UNL     1     -46.433  58.539 -59.454  1.00  0.00     0.074 C 
HETATM   15  N   UNL     1     -47.015  59.065 -60.305  1.00  0.00    -0.196 NA
HETATM   16  C   UNL     1     -42.004  59.584 -58.792  1.00  0.00     0.244 C 
HETATM   17  N   UNL     1     -41.705  58.921 -60.114  1.00  0.00    -0.071 N 
HETATM   18  H   UNL     1     -40.686  58.967 -60.250  1.00  0.00     0.279 HD
HETATM   19  C   UNL     1     -42.283  59.634 -61.312  1.00  0.00     0.270 C 
HETATM   20  C   UNL     1     -42.048  57.454 -60.066  1.00  0.00     0.262 C 
ENDROOT
BRANCH   9  21
HETATM   21  C   UNL     1     -42.872  59.154 -55.916  1.00  0.00    -0.047 A 
HETATM   22  C   UNL     1     -42.883  57.768 -55.700  1.00  0.00     0.047 A 
HETATM   23  C   UNL     1     -42.209  57.209 -54.602  1.00  0.00     0.102 A 
HETATM   24  C   UNL     1     -41.432  58.004 -53.751  1.00  0.00     0.102 A 
HETATM   25  C   UNL     1     -41.332  59.368 -54.022  1.00  0.00     0.040 A 
HETATM   26  C   UNL     1     -42.063  59.939 -55.075  1.00  0.00     0.010 A 
BRANCH  23  27
HETATM   27  O   UNL     1     -42.287  55.861 -54.339  1.00  0.00    -0.353 OA
HETATM   28  C   UNL     1     -41.572  55.085 -55.306  1.00  0.00     0.210 C 
ENDBRANCH  23  27
BRANCH  24  29
HETATM   29  O   UNL     1     -40.833  57.369 -52.691  1.00  0.00    -0.347 OA
BRANCH  29  30
HETATM   30  C   UNL     1     -41.336  57.686 -51.389  1.00  0.00     0.203 C 
BRANCH  30  31
HETATM   31  C   UNL     1     -42.048  56.448 -50.824  1.00  0.00     0.261 C 
BRANCH  31  32
HETATM   32  N   UNL     1     -41.073  55.362 -50.409  1.00  0.00    -0.065 N 
HETATM   33  H   UNL     1     -40.130  55.754 -50.564  1.00  0.00     0.280 HD
HETATM   34  C   UNL     1     -41.173  54.967 -48.941  1.00  0.00     0.261 C 
HETATM   35  C   UNL     1     -40.178  53.842 -48.636  1.00  0.00     0.195 C 
HETATM   36  O   UNL     1     -40.410  52.710 -49.479  1.00  0.00    -0.388 OA
HETATM   37  C   UNL     1     -40.235  53.038 -50.860  1.00  0.00     0.195 C 
HETATM   38  C   UNL     1     -41.225  54.123 -51.294  1.00  0.00     0.261 C 
ENDBRANCH  31  32
ENDBRANCH  30  31
ENDBRANCH  29  30
ENDBRANCH  24  29
ENDBRANCH   9  21
TORSDOF 6
ENDMDL
MODEL 10
REMARK VINA RESULT:      -6.9      4.429      8.748
REMARK  6 active torsions:
REMARK  status: ('A' for Active; 'I' for Inactive)
REMARK    1  A    between atoms: C_9  and  C_10 
REMARK    2  A    between atoms: C_12  and  O_13 
REMARK    3  A    between atoms: C_15  and  O_16 
REMARK    4  A    between atoms: O_16  and  C_17 
REMARK    5  A    between atoms: C_17  and  C_18 
REMARK    6  A    between atoms: C_18  and  N_19 
ROOT
HETATM    1  H   UNL     1     -44.890  54.330 -53.663  1.00  0.00     0.186 HD
HETATM    2  N   UNL     1     -44.315  54.636 -54.462  1.00  0.00    -0.304 NA
HETATM    3  C   UNL     1     -43.261  55.321 -54.141  1.00  0.00     0.062 C 
HETATM    4  C   UNL     1     -42.281  55.801 -55.231  1.00  0.00     0.173 C 
HETATM    5  C   UNL     1     -40.997  54.998 -55.100  1.00  0.00     0.012 C 
HETATM    6  N   UNL     1     -39.932  54.332 -54.993  1.00  0.00    -0.099 N 
HETATM    7  C   UNL     1     -42.818  55.563 -56.593  1.00  0.00     0.090 C 
HETATM    8  N   UNL     1     -43.216  55.472 -57.679  1.00  0.00    -0.195 NA
HETATM    9  C   UNL     1     -41.970  57.334 -55.046  1.00  0.00     0.070 C 
HETATM   10  C   UNL     1     -41.565  57.673 -53.576  1.00  0.00     0.053 C 
HETATM   11  C   UNL     1     -42.573  57.147 -52.564  1.00  0.00    -0.052 C 
HETATM   12  C   UNL     1     -42.986  57.922 -51.538  1.00  0.00     0.005 C 
HETATM   13  C   UNL     1     -42.990  55.687 -52.682  1.00  0.00     0.171 C 
HETATM   14  C   UNL     1     -41.959  54.831 -52.080  1.00  0.00     0.074 C 
HETATM   15  N   UNL     1     -41.100  54.242 -51.572  1.00  0.00    -0.196 NA
HETATM   16  C   UNL     1     -41.223  59.177 -53.389  1.00  0.00     0.244 C 
HETATM   17  N   UNL     1     -41.131  59.546 -51.929  1.00  0.00    -0.071 N 
HETATM   18  H   UNL     1     -40.988  60.564 -51.885  1.00  0.00     0.279 HD
HETATM   19  C   UNL     1     -39.939  58.960 -51.213  1.00  0.00     0.270 C 
HETATM   20  C   UNL     1     -42.440  59.283 -51.229  1.00  0.00     0.262 C 
ENDROOT
BRANCH   9  21
HETATM   21  C   UNL     1     -43.052  58.262 -55.630  1.00  0.00    -0.047 A 
HETATM   22  C   UNL     1     -42.811  59.156 -56.684  1.00  0.00     0.047 A 
HETATM   23  C   UNL     1     -43.754  60.142 -57.018  1.00  0.00     0.102 A 
HETATM   24  C   UNL     1     -44.996  60.199 -56.375  1.00  0.00     0.102 A 
HETATM   25  C   UNL     1     -45.285  59.246 -55.399  1.00  0.00     0.040 A 
HETATM   26  C   UNL     1     -44.316  58.307 -55.014  1.00  0.00     0.010 A 
BRANCH  23  27
HETATM   27  O   UNL     1     -43.485  61.073 -57.993  1.00  0.00    -0.353 OA
HETATM   28  C   UNL     1     -43.099  60.459 -59.228  1.00  0.00     0.210 C 
ENDBRANCH  23  27
BRANCH  24  29
HETATM   29  O   UNL     1     -45.839  61.214 -56.754  1.00  0.00    -0.347 OA
BRANCH  29  30
HETATM   30  C   UNL     1     -47.045  60.828 -57.421  1.00  0.00     0.203 C 
BRANCH  30  31
HETATM   31  C   UNL     1     -48.117  61.895 -57.153  1.00  0.00     0.261 C 
BRANCH  31  32
HETATM   32  N   UNL     1     -49.296  61.342 -56.373  1.00  0.00    -0.065 N 
HETATM   33  H   UNL     1     -48.918  60.577 -55.793  1.00  0.00     0.280 HD
HETATM   34  C   UNL     1     -49.949  62.352 -55.438  1.00  0.00     0.261 C 
HETATM   35  C   UNL     1     -51.147  61.708 -54.732  1.00  0.00     0.195 C 
HETATM   36  O   UNL     1     -52.096  61.214 -55.681  1.00  0.00    -0.388 OA
HETATM   37  C   UNL     1     -51.528  60.200 -56.514  1.00  0.00     0.195 C 
HETATM   38  C   UNL     1     -50.346  60.750 -57.317  1.00  0.00     0.261 C 
ENDBRANCH  31  32
ENDBRANCH  30  31
ENDBRANCH  29  30
ENDBRANCH  24  29
ENDBRANCH   9  21
TORSDOF 6
ENDMDL
