MODEL 1
REMARK VINA RESULT:      -8.3      0.000      0.000
REMARK  4 active torsions:
REMARK  status: ('A' for Active; 'I' for Inactive)
REMARK    1  A    between atoms: C_5  and  C_6 
REMARK    2  A    between atoms: C_6  and  N_7 
REMARK    3  A    between atoms: C_6  and  C_18 
REMARK    4  A    between atoms: N_7  and  C_8 
ROOT
HETATM    1  C   UNL     1     -40.547  53.246 -53.008  1.00  0.00     0.288 C 
ENDROOT
BRANCH   1   2
HETATM    2  C   UNL     1     -40.088  51.804 -53.151  1.00  0.00    -0.003 A 
HETATM    3  C   UNL     1     -39.712  51.025 -52.058  1.00  0.00     0.126 A 
HETATM    4  N   UNL     1     -39.379  49.717 -52.138  1.00  0.00    -0.272 NA
HETATM    5  C   UNL     1     -39.376  49.156 -53.365  1.00  0.00     0.116 A 
HETATM    6  C   UNL     1     -39.722  49.838 -54.518  1.00  0.00     0.020 A 
HETATM    7  C   UNL     1     -40.090  51.177 -54.406  1.00  0.00     0.012 A 
ENDBRANCH   1   2
BRANCH   1   8
HETATM    8  N   UNL     1     -41.687  53.545 -53.919  1.00  0.00     0.101 N 
HETATM    9  H   UNL     1     -42.464  53.821 -53.326  1.00  0.00     0.317 HD
BRANCH   8  10
HETATM   10  C   UNL     1     -41.450  54.489 -55.022  1.00  0.00     0.225 C 
HETATM   11  C   UNL     1     -40.637  55.755 -54.659  1.00  0.00     0.069 C 
HETATM   12  C   UNL     1     -41.401  56.664 -53.718  1.00  0.00     0.190 C 
HETATM   13  N   UNL     1     -42.693  57.060 -54.374  1.00  0.00    -0.067 N 
HETATM   14  C   UNL     1     -40.796  58.019 -53.417  1.00  0.00     0.035 C 
HETATM   15  H   UNL     1     -42.471  57.482 -55.288  1.00  0.00     0.280 HD
HETATM   16  C   UNL     1     -43.584  55.887 -54.636  1.00  0.00     0.237 C 
HETATM   17  C   UNL     1     -43.239  58.177 -53.524  1.00  0.00     0.235 C 
HETATM   18  C   UNL     1     -42.839  54.924 -55.561  1.00  0.00     0.063 C 
HETATM   19  C   UNL     1     -41.995  58.808 -52.890  1.00  0.00     0.030 C 
ENDBRANCH   8  10
ENDBRANCH   1   8
BRANCH   1  20
HETATM   20  C   UNL     1     -40.653  53.785 -51.576  1.00  0.00    -0.021 A 
HETATM   21  C   UNL     1     -41.918  54.158 -51.066  1.00  0.00     0.012 A 
HETATM   22  C   UNL     1     -42.067  54.616 -49.755  1.00  0.00     0.043 A 
HETATM   23  C   UNL     1     -40.958  54.686 -48.927  1.00  0.00     0.116 A 
HETATM   24  F   UNL     1     -41.096  55.124 -47.669  1.00  0.00    -0.206 F 
HETATM   25  C   UNL     1     -39.708  54.290 -49.381  1.00  0.00     0.043 A 
HETATM   26  C   UNL     1     -39.560  53.829 -50.693  1.00  0.00     0.012 A 
ENDBRANCH   1  20
TORSDOF 4
ENDMDL
MODEL 2
REMARK VINA RESULT:      -8.0      2.604      4.351
REMARK  4 active torsions:
REMARK  status: ('A' for Active; 'I' for Inactive)
REMARK    1  A    between atoms: C_5  and  C_6 
REMARK    2  A    between atoms: C_6  and  N_7 
REMARK    3  A    between atoms: C_6  and  C_18 
REMARK    4  A    between atoms: N_7  and  C_8 
ROOT
HETATM    1  C   UNL     1     -41.412  53.525 -52.815  1.00  0.00     0.288 C 
ENDROOT
BRANCH   1   2
HETATM    2  C   UNL     1     -40.631  52.233 -52.987  1.00  0.00    -0.003 A 
HETATM    3  C   UNL     1     -39.979  51.606 -51.926  1.00  0.00     0.126 A 
HETATM    4  N   UNL     1     -39.346  50.415 -52.025  1.00  0.00    -0.272 NA
HETATM    5  C   UNL     1     -39.316  49.832 -53.242  1.00  0.00     0.116 A 
HETATM    6  C   UNL     1     -39.919  50.372 -54.363  1.00  0.00     0.020 A 
HETATM    7  C   UNL     1     -40.591  51.585 -54.230  1.00  0.00     0.012 A 
ENDBRANCH   1   2
BRANCH   1   8
HETATM    8  N   UNL     1     -40.862  54.347 -51.700  1.00  0.00     0.101 N 
HETATM    9  H   UNL     1     -40.458  55.176 -52.127  1.00  0.00     0.317 HD
BRANCH   8  10
HETATM   10  C   UNL     1     -41.757  54.665 -50.578  1.00  0.00     0.225 C 
HETATM   11  C   UNL     1     -43.166  55.176 -50.968  1.00  0.00     0.069 C 
HETATM   12  C   UNL     1     -43.108  56.538 -51.629  1.00  0.00     0.190 C 
HETATM   13  N   UNL     1     -42.460  57.506 -50.680  1.00  0.00    -0.067 N 
HETATM   14  C   UNL     1     -44.424  57.233 -51.905  1.00  0.00     0.035 C 
HETATM   15  H   UNL     1     -42.985  57.485 -49.794  1.00  0.00     0.280 HD
HETATM   16  C   UNL     1     -41.045  57.136 -50.363  1.00  0.00     0.237 C 
HETATM   17  C   UNL     1     -42.711  58.867 -51.277  1.00  0.00     0.235 C 
HETATM   18  C   UNL     1     -41.053  55.749 -49.720  1.00  0.00     0.063 C 
HETATM   19  C   UNL     1     -44.000  58.690 -52.086  1.00  0.00     0.030 C 
ENDBRANCH   8  10
ENDBRANCH   1   8
BRANCH   1  20
HETATM   20  C   UNL     1     -41.780  54.274 -54.102  1.00  0.00    -0.021 A 
HETATM   21  C   UNL     1     -42.857  53.811 -54.891  1.00  0.00     0.012 A 
HETATM   22  C   UNL     1     -43.251  54.485 -56.050  1.00  0.00     0.043 A 
HETATM   23  C   UNL     1     -42.592  55.645 -56.422  1.00  0.00     0.116 A 
HETATM   24  F   UNL     1     -42.968  56.295 -57.531  1.00  0.00    -0.206 F 
HETATM   25  C   UNL     1     -41.557  56.151 -55.648  1.00  0.00     0.043 A 
HETATM   26  C   UNL     1     -41.164  55.477 -54.488  1.00  0.00     0.012 A 
ENDBRANCH   1  20
TORSDOF 4
ENDMDL
MODEL 3
REMARK VINA RESULT:      -7.9      2.910      5.669
REMARK  4 active torsions:
REMARK  status: ('A' for Active; 'I' for Inactive)
REMARK    1  A    between atoms: C_5  and  C_6 
REMARK    2  A    between atoms: C_6  and  N_7 
REMARK    3  A    between atoms: C_6  and  C_18 
REMARK    4  A    between atoms: N_7  and  C_8 
ROOT
HETATM    1  C   UNL     1     -41.710  56.005 -53.552  1.00  0.00     0.288 C 
ENDROOT
BRANCH   1   2
HETATM    2  C   UNL     1     -41.139  57.124 -52.698  1.00  0.00    -0.003 A 
HETATM    3  C   UNL     1     -40.354  58.147 -53.230  1.00  0.00     0.126 A 
HETATM    4  N   UNL     1     -39.899  59.202 -52.517  1.00  0.00    -0.272 NA
HETATM    5  C   UNL     1     -40.196  59.230 -51.201  1.00  0.00     0.116 A 
HETATM    6  C   UNL     1     -40.957  58.263 -50.568  1.00  0.00     0.020 A 
HETATM    7  C   UNL     1     -41.439  57.202 -51.329  1.00  0.00     0.012 A 
ENDBRANCH   1   2
BRANCH   1   8
HETATM    8  N   UNL     1     -41.990  56.471 -54.939  1.00  0.00     0.101 N 
HETATM    9  H   UNL     1     -41.187  56.200 -55.500  1.00  0.00     0.317 HD
BRANCH   8  10
HETATM   10  C   UNL     1     -43.269  56.075 -55.548  1.00  0.00     0.225 C 
HETATM   11  C   UNL     1     -43.175  55.460 -56.966  1.00  0.00     0.069 C 
HETATM   12  C   UNL     1     -42.718  56.478 -57.991  1.00  0.00     0.190 C 
HETATM   13  N   UNL     1     -43.690  57.624 -57.997  1.00  0.00    -0.067 N 
HETATM   14  C   UNL     1     -42.749  56.059 -59.446  1.00  0.00     0.035 C 
HETATM   15  H   UNL     1     -44.632  57.243 -58.165  1.00  0.00     0.280 HD
HETATM   16  C   UNL     1     -43.732  58.344 -56.687  1.00  0.00     0.237 C 
HETATM   17  C   UNL     1     -43.342  58.425 -59.225  1.00  0.00     0.235 C 
HETATM   18  C   UNL     1     -44.160  57.344 -55.612  1.00  0.00     0.063 C 
HETATM   19  C   UNL     1     -42.721  57.400 -60.179  1.00  0.00     0.030 C 
ENDBRANCH   8  10
ENDBRANCH   1   8
BRANCH   1  20
HETATM   20  C   UNL     1     -41.039  54.633 -53.412  1.00  0.00    -0.021 A 
HETATM   21  C   UNL     1     -40.912  54.049 -52.131  1.00  0.00     0.012 A 
HETATM   22  C   UNL     1     -40.344  52.784 -51.962  1.00  0.00     0.043 A 
HETATM   23  C   UNL     1     -39.917  52.074 -53.073  1.00  0.00     0.116 A 
HETATM   24  F   UNL     1     -39.373  50.861 -52.915  1.00  0.00    -0.206 F 
HETATM   25  C   UNL     1     -40.063  52.599 -54.348  1.00  0.00     0.043 A 
HETATM   26  C   UNL     1     -40.634  53.865 -54.517  1.00  0.00     0.012 A 
ENDBRANCH   1  20
TORSDOF 4
ENDMDL
MODEL 4
REMARK VINA RESULT:      -7.4      3.176      5.820
REMARK  4 active torsions:
REMARK  status: ('A' for Active; 'I' for Inactive)
REMARK    1  A    between atoms: C_5  and  C_6 
REMARK    2  A    between atoms: C_6  and  N_7 
REMARK    3  A    between atoms: C_6  and  C_18 
REMARK    4  A    between atoms: N_7  and  C_8 
ROOT
HETATM    1  C   UNL     1     -42.004  56.577 -53.475  1.00  0.00     0.288 C 
ENDROOT
BRANCH   1   2
HETATM    2  C   UNL     1     -41.234  57.525 -52.571  1.00  0.00    -0.003 A 
HETATM    3  C   UNL     1     -40.267  58.403 -53.057  1.00  0.00     0.126 A 
HETATM    4  N   UNL     1     -39.623  59.317 -52.296  1.00  0.00    -0.272 NA
HETATM    5  C   UNL     1     -39.916  59.338 -50.979  1.00  0.00     0.116 A 
HETATM    6  C   UNL     1     -40.850  58.505 -50.390  1.00  0.00     0.020 A 
HETATM    7  C   UNL     1     -41.521  57.592 -51.199  1.00  0.00     0.012 A 
ENDBRANCH   1   2
BRANCH   1   8
HETATM    8  N   UNL     1     -42.498  57.274 -54.696  1.00  0.00     0.101 N 
HETATM    9  H   UNL     1     -41.837  57.059 -55.437  1.00  0.00     0.317 HD
BRANCH   8  10
HETATM   10  C   UNL     1     -43.895  57.045 -55.095  1.00  0.00     0.225 C 
HETATM   11  C   UNL     1     -44.394  57.883 -56.298  1.00  0.00     0.069 C 
HETATM   12  C   UNL     1     -44.473  59.358 -55.962  1.00  0.00     0.190 C 
HETATM   13  N   UNL     1     -45.404  59.537 -54.796  1.00  0.00    -0.067 N 
HETATM   14  C   UNL     1     -45.110  60.271 -56.989  1.00  0.00     0.035 C 
HETATM   15  H   UNL     1     -46.307  59.106 -55.039  1.00  0.00     0.280 HD
HETATM   16  C   UNL     1     -44.909  58.854 -53.560  1.00  0.00     0.237 C 
HETATM   17  C   UNL     1     -45.659  61.020 -54.722  1.00  0.00     0.235 C 
HETATM   18  C   UNL     1     -44.784  57.361 -53.863  1.00  0.00     0.063 C 
HETATM   19  C   UNL     1     -45.463  61.507 -56.161  1.00  0.00     0.030 C 
ENDBRANCH   8  10
ENDBRANCH   1   8
BRANCH   1  20
HETATM   20  C   UNL     1     -41.391  55.186 -53.681  1.00  0.00    -0.021 A 
HETATM   21  C   UNL     1     -40.789  54.869 -54.920  1.00  0.00     0.012 A 
HETATM   22  C   UNL     1     -40.184  53.628 -55.138  1.00  0.00     0.043 A 
HETATM   23  C   UNL     1     -40.148  52.697 -54.112  1.00  0.00     0.116 A 
HETATM   24  F   UNL     1     -39.567  51.508 -54.316  1.00  0.00    -0.206 F 
HETATM   25  C   UNL     1     -40.693  52.991 -52.870  1.00  0.00     0.043 A 
HETATM   26  C   UNL     1     -41.297  54.233 -52.652  1.00  0.00     0.012 A 
ENDBRANCH   1  20
TORSDOF 4
ENDMDL
MODEL 5
REMARK VINA RESULT:      -7.3      3.439      5.926
REMARK  4 active torsions:
REMARK  status: ('A' for Active; 'I' for Inactive)
REMARK    1  A    between atoms: C_5  and  C_6 
REMARK    2  A    between atoms: C_6  and  N_7 
REMARK    3  A    between atoms: C_6  and  C_18 
REMARK    4  A    between atoms: N_7  and  C_8 
ROOT
HETATM    1  C   UNL     1     -42.189  56.840 -55.560  1.00  0.00     0.288 C 
ENDROOT
BRANCH   1   2
HETATM    2  C   UNL     1     -43.095  56.731 -56.775  1.00  0.00    -0.003 A 
HETATM    3  C   UNL     1     -44.050  57.697 -57.086  1.00  0.00     0.126 A 
HETATM    4  N   UNL     1     -44.814  57.676 -58.201  1.00  0.00    -0.272 NA
HETATM    5  C   UNL     1     -44.660  56.625 -59.034  1.00  0.00     0.116 A 
HETATM    6  C   UNL     1     -43.751  55.605 -58.817  1.00  0.00     0.020 A 
HETATM    7  C   UNL     1     -42.954  55.665 -57.676  1.00  0.00     0.012 A 
ENDBRANCH   1   2
BRANCH   1   8
HETATM    8  N   UNL     1     -42.604  57.964 -54.674  1.00  0.00     0.101 N 
HETATM    9  H   UNL     1     -42.846  57.549 -53.778  1.00  0.00     0.317 HD
BRANCH   8  10
HETATM   10  C   UNL     1     -41.687  59.106 -54.543  1.00  0.00     0.225 C 
HETATM   11  C   UNL     1     -40.572  58.952 -53.479  1.00  0.00     0.069 C 
HETATM   12  C   UNL     1     -41.136  58.928 -52.073  1.00  0.00     0.190 C 
HETATM   13  N   UNL     1     -41.894  60.204 -51.836  1.00  0.00    -0.067 N 
HETATM   14  C   UNL     1     -40.147  58.956 -50.927  1.00  0.00     0.035 C 
HETATM   15  H   UNL     1     -41.259  60.992 -52.027  1.00  0.00     0.280 HD
HETATM   16  C   UNL     1     -43.067  60.350 -52.753  1.00  0.00     0.237 C 
HETATM   17  C   UNL     1     -42.157  60.233 -50.353  1.00  0.00     0.235 C 
HETATM   18  C   UNL     1     -42.546  60.348 -54.191  1.00  0.00     0.063 C 
HETATM   19  C   UNL     1     -41.012  59.412 -49.753  1.00  0.00     0.030 C 
ENDBRANCH   8  10
ENDBRANCH   1   8
BRANCH   1  20
HETATM   20  C   UNL     1     -41.819  55.522 -54.868  1.00  0.00    -0.021 A 
HETATM   21  C   UNL     1     -40.595  54.890 -55.185  1.00  0.00     0.012 A 
HETATM   22  C   UNL     1     -40.201  53.710 -54.550  1.00  0.00     0.043 A 
HETATM   23  C   UNL     1     -41.011  53.158 -53.570  1.00  0.00     0.116 A 
HETATM   24  F   UNL     1     -40.636  52.028 -52.958  1.00  0.00    -0.206 F 
HETATM   25  C   UNL     1     -42.199  53.774 -53.205  1.00  0.00     0.043 A 
HETATM   26  C   UNL     1     -42.593  54.956 -53.840  1.00  0.00     0.012 A 
ENDBRANCH   1  20
TORSDOF 4
ENDMDL
MODEL 6
REMARK VINA RESULT:      -7.3     14.087     16.063
REMARK  4 active torsions:
REMARK  status: ('A' for Active; 'I' for Inactive)
REMARK    1  A    between atoms: C_5  and  C_6 
REMARK    2  A    between atoms: C_6  and  N_7 
REMARK    3  A    between atoms: C_6  and  C_18 
REMARK    4  A    between atoms: N_7  and  C_8 
ROOT
HETATM    1  C   UNL     1     -35.515  40.877 -56.053  1.00  0.00     0.288 C 
ENDROOT
BRANCH   1   2
HETATM    2  C   UNL     1     -36.072  40.861 -57.467  1.00  0.00    -0.003 A 
HETATM    3  C   UNL     1     -36.113  39.704 -58.244  1.00  0.00     0.126 A 
HETATM    4  N   UNL     1     -36.675  39.635 -59.471  1.00  0.00    -0.272 NA
HETATM    5  C   UNL     1     -37.187  40.776 -59.979  1.00  0.00     0.116 A 
HETATM    6  C   UNL     1     -37.189  41.981 -59.301  1.00  0.00     0.020 A 
HETATM    7  C   UNL     1     -36.631  42.021 -58.026  1.00  0.00     0.012 A 
ENDBRANCH   1   2
BRANCH   1   8
HETATM    8  N   UNL     1     -36.562  40.521 -55.055  1.00  0.00     0.101 N 
HETATM    9  H   UNL     1     -36.271  39.643 -54.633  1.00  0.00     0.317 HD
BRANCH   8  10
HETATM   10  C   UNL     1     -36.929  41.537 -54.057  1.00  0.00     0.225 C 
HETATM   11  C   UNL     1     -35.753  42.135 -53.245  1.00  0.00     0.069 C 
HETATM   12  C   UNL     1     -35.122  41.106 -52.329  1.00  0.00     0.190 C 
HETATM   13  N   UNL     1     -36.176  40.586 -51.392  1.00  0.00    -0.067 N 
HETATM   14  C   UNL     1     -34.075  41.597 -51.351  1.00  0.00     0.035 C 
HETATM   15  H   UNL     1     -36.595  41.391 -50.904  1.00  0.00     0.280 HD
HETATM   16  C   UNL     1     -37.282  39.881 -52.110  1.00  0.00     0.237 C 
HETATM   17  C   UNL     1     -35.419  39.815 -50.342  1.00  0.00     0.235 C 
HETATM   18  C   UNL     1     -37.930  40.876 -53.073  1.00  0.00     0.063 C 
HETATM   19  C   UNL     1     -34.037  40.475 -50.315  1.00  0.00     0.030 C 
ENDBRANCH   8  10
ENDBRANCH   1   8
BRANCH   1  20
HETATM   20  C   UNL     1     -34.136  40.234 -55.859  1.00  0.00    -0.021 A 
HETATM   21  C   UNL     1     -34.010  39.097 -55.029  1.00  0.00     0.012 A 
HETATM   22  C   UNL     1     -32.781  38.456 -54.855  1.00  0.00     0.043 A 
HETATM   23  C   UNL     1     -31.665  38.927 -55.529  1.00  0.00     0.116 A 
HETATM   24  F   UNL     1     -30.485  38.315 -55.366  1.00  0.00    -0.206 F 
HETATM   25  C   UNL     1     -31.761  40.016 -56.383  1.00  0.00     0.043 A 
HETATM   26  C   UNL     1     -32.992  40.656 -56.558  1.00  0.00     0.012 A 
ENDBRANCH   1  20
TORSDOF 4
ENDMDL
MODEL 7
REMARK VINA RESULT:      -7.2      3.022      5.943
REMARK  4 active torsions:
REMARK  status: ('A' for Active; 'I' for Inactive)
REMARK    1  A    between atoms: C_5  and  C_6 
REMARK    2  A    between atoms: C_6  and  N_7 
REMARK    3  A    between atoms: C_6  and  C_18 
REMARK    4  A    between atoms: N_7  and  C_8 
ROOT
HETATM    1  C   UNL     1     -42.658  55.952 -53.601  1.00  0.00     0.288 C 
ENDROOT
BRANCH   1   2
HETATM    2  C   UNL     1     -42.121  57.232 -52.983  1.00  0.00    -0.003 A 
HETATM    3  C   UNL     1     -42.848  57.980 -52.059  1.00  0.00     0.126 A 
HETATM    4  N   UNL     1     -42.369  59.076 -51.428  1.00  0.00    -0.272 NA
HETATM    5  C   UNL     1     -41.124  59.482 -51.756  1.00  0.00     0.116 A 
HETATM    6  C   UNL     1     -40.321  58.821 -52.667  1.00  0.00     0.020 A 
HETATM    7  C   UNL     1     -40.824  57.678 -53.282  1.00  0.00     0.012 A 
ENDBRANCH   1   2
BRANCH   1   8
HETATM    8  N   UNL     1     -43.447  56.234 -54.833  1.00  0.00     0.101 N 
HETATM    9  H   UNL     1     -44.426  56.186 -54.565  1.00  0.00     0.317 HD
BRANCH   8  10
HETATM   10  C   UNL     1     -43.124  57.455 -55.587  1.00  0.00     0.225 C 
HETATM   11  C   UNL     1     -44.316  58.400 -55.877  1.00  0.00     0.069 C 
HETATM   12  C   UNL     1     -45.309  57.774 -56.835  1.00  0.00     0.190 C 
HETATM   13  N   UNL     1     -44.598  57.443 -58.117  1.00  0.00    -0.067 N 
HETATM   14  C   UNL     1     -46.433  58.653 -57.341  1.00  0.00     0.035 C 
HETATM   15  H   UNL     1     -44.152  58.304 -58.467  1.00  0.00     0.280 HD
HETATM   16  C   UNL     1     -43.512  56.432 -57.924  1.00  0.00     0.237 C 
HETATM   17  C   UNL     1     -45.693  57.116 -59.099  1.00  0.00     0.235 C 
HETATM   18  C   UNL     1     -42.499  57.010 -56.936  1.00  0.00     0.063 C 
HETATM   19  C   UNL     1     -46.902  57.907 -58.590  1.00  0.00     0.030 C 
ENDBRANCH   8  10
ENDBRANCH   1   8
BRANCH   1  20
HETATM   20  C   UNL     1     -41.686  54.768 -53.666  1.00  0.00    -0.021 A 
HETATM   21  C   UNL     1     -41.417  54.023 -52.495  1.00  0.00     0.012 A 
HETATM   22  C   UNL     1     -40.569  52.914 -52.517  1.00  0.00     0.043 A 
HETATM   23  C   UNL     1     -39.997  52.516 -53.715  1.00  0.00     0.116 A 
HETATM   24  F   UNL     1     -39.185  51.452 -53.742  1.00  0.00    -0.206 F 
HETATM   25  C   UNL     1     -40.271  53.199 -54.892  1.00  0.00     0.043 A 
HETATM   26  C   UNL     1     -41.121  54.309 -54.869  1.00  0.00     0.012 A 
ENDBRANCH   1  20
TORSDOF 4
ENDMDL
MODEL 8
REMARK VINA RESULT:      -7.2      2.693      4.791
REMARK  4 active torsions:
REMARK  status: ('A' for Active; 'I' for Inactive)
REMARK    1  A    between atoms: C_5  and  C_6 
REMARK    2  A    between atoms: C_6  and  N_7 
REMARK    3  A    between atoms: C_6  and  C_18 
REMARK    4  A    between atoms: N_7  and  C_8 
ROOT
HETATM    1  C   UNL     1     -41.150  56.987 -54.177  1.00  0.00     0.288 C 
ENDROOT
BRANCH   1   2
HETATM    2  C   UNL     1     -40.950  55.507 -53.895  1.00  0.00    -0.003 A 
HETATM    3  C   UNL     1     -41.479  54.882 -52.766  1.00  0.00     0.126 A 
HETATM    4  N   UNL     1     -41.391  53.554 -52.525  1.00  0.00    -0.272 NA
HETATM    5  C   UNL     1     -40.711  52.809 -53.421  1.00  0.00     0.116 A 
HETATM    6  C   UNL     1     -40.138  53.327 -54.568  1.00  0.00     0.020 A 
HETATM    7  C   UNL     1     -40.266  54.693 -54.810  1.00  0.00     0.012 A 
ENDBRANCH   1   2
BRANCH   1   8
HETATM    8  N   UNL     1     -41.995  57.198 -55.386  1.00  0.00     0.101 N 
HETATM    9  H   UNL     1     -41.361  57.216 -56.180  1.00  0.00     0.317 HD
BRANCH   8  10
HETATM   10  C   UNL     1     -43.135  56.292 -55.590  1.00  0.00     0.225 C 
HETATM   11  C   UNL     1     -43.094  55.442 -56.884  1.00  0.00     0.069 C 
HETATM   12  C   UNL     1     -43.235  56.299 -58.125  1.00  0.00     0.190 C 
HETATM   13  N   UNL     1     -44.537  57.046 -58.048  1.00  0.00    -0.067 N 
HETATM   14  C   UNL     1     -43.385  55.583 -59.451  1.00  0.00     0.035 C 
HETATM   15  H   UNL     1     -45.292  56.358 -57.917  1.00  0.00     0.280 HD
HETATM   16  C   UNL     1     -44.589  57.986 -56.885  1.00  0.00     0.237 C 
HETATM   17  C   UNL     1     -44.738  57.625 -59.425  1.00  0.00     0.235 C 
HETATM   18  C   UNL     1     -44.418  57.165 -55.607  1.00  0.00     0.063 C 
HETATM   19  C   UNL     1     -43.980  56.667 -60.349  1.00  0.00     0.030 C 
ENDBRANCH   8  10
ENDBRANCH   1   8
BRANCH   1  20
HETATM   20  C   UNL     1     -41.454  57.875 -52.965  1.00  0.00    -0.021 A 
HETATM   21  C   UNL     1     -40.393  58.530 -52.300  1.00  0.00     0.012 A 
HETATM   22  C   UNL     1     -40.629  59.380 -51.216  1.00  0.00     0.043 A 
HETATM   23  C   UNL     1     -41.930  59.607 -50.798  1.00  0.00     0.116 A 
HETATM   24  F   UNL     1     -42.161  60.422 -49.761  1.00  0.00    -0.206 F 
HETATM   25  C   UNL     1     -42.999  59.013 -51.453  1.00  0.00     0.043 A 
HETATM   26  C   UNL     1     -42.763  58.164 -52.539  1.00  0.00     0.012 A 
ENDBRANCH   1  20
TORSDOF 4
ENDMDL
MODEL 9
REMARK VINA RESULT:      -7.2      3.497      5.819
REMARK  4 active torsions:
REMARK  status: ('A' for Active; 'I' for Inactive)
REMARK    1  A    between atoms: C_5  and  C_6 
REMARK    2  A    between atoms: C_6  and  N_7 
REMARK    3  A    between atoms: C_6  and  C_18 
REMARK    4  A    between atoms: N_7  and  C_8 
ROOT
HETATM    1  C   UNL     1     -42.713  56.437 -55.777  1.00  0.00     0.288 C 
ENDROOT
BRANCH   1   2
HETATM    2  C   UNL     1     -42.718  56.638 -57.284  1.00  0.00    -0.003 A 
HETATM    3  C   UNL     1     -42.233  57.798 -57.886  1.00  0.00     0.126 A 
HETATM    4  N   UNL     1     -42.145  57.977 -59.223  1.00  0.00    -0.272 NA
HETATM    5  C   UNL     1     -42.598  56.978 -60.010  1.00  0.00     0.116 A 
HETATM    6  C   UNL     1     -43.110  55.791 -59.518  1.00  0.00     0.020 A 
HETATM    7  C   UNL     1     -43.163  55.618 -58.137  1.00  0.00     0.012 A 
ENDBRANCH   1   2
BRANCH   1   8
HETATM    8  N   UNL     1     -44.058  56.701 -55.191  1.00  0.00     0.101 N 
HETATM    9  H   UNL     1     -44.251  55.930 -54.558  1.00  0.00     0.317 HD
BRANCH   8  10
HETATM   10  C   UNL     1     -44.288  58.016 -54.573  1.00  0.00     0.225 C 
HETATM   11  C   UNL     1     -43.032  58.905 -54.400  1.00  0.00     0.069 C 
HETATM   12  C   UNL     1     -42.065  58.323 -53.389  1.00  0.00     0.190 C 
HETATM   13  N   UNL     1     -42.775  58.182 -52.071  1.00  0.00    -0.067 N 
HETATM   14  C   UNL     1     -40.877  59.174 -52.993  1.00  0.00     0.035 C 
HETATM   15  H   UNL     1     -43.157  59.104 -51.815  1.00  0.00     0.280 HD
HETATM   16  C   UNL     1     -43.927  57.231 -52.141  1.00  0.00     0.237 C 
HETATM   17  C   UNL     1     -41.687  57.892 -51.070  1.00  0.00     0.235 C 
HETATM   18  C   UNL     1     -44.917  57.764 -53.177  1.00  0.00     0.063 C 
HETATM   19  C   UNL     1     -40.438  58.540 -51.674  1.00  0.00     0.030 C 
ENDBRANCH   8  10
ENDBRANCH   1   8
BRANCH   1  20
HETATM   20  C   UNL     1     -41.971  55.200 -55.259  1.00  0.00    -0.021 A 
HETATM   21  C   UNL     1     -42.710  54.063 -54.858  1.00  0.00     0.012 A 
HETATM   22  C   UNL     1     -42.072  52.900 -54.418  1.00  0.00     0.043 A 
HETATM   23  C   UNL     1     -40.688  52.847 -54.396  1.00  0.00     0.116 A 
HETATM   24  F   UNL     1     -40.074  51.734 -53.976  1.00  0.00    -0.206 F 
HETATM   25  C   UNL     1     -39.931  53.929 -54.822  1.00  0.00     0.043 A 
HETATM   26  C   UNL     1     -40.569  55.093 -55.264  1.00  0.00     0.012 A 
ENDBRANCH   1  20
TORSDOF 4
ENDMDL
MODEL 10
REMARK VINA RESULT:      -6.9      2.491      6.331
REMARK  4 active torsions:
REMARK  status: ('A' for Active; 'I' for Inactive)
REMARK    1  A    between atoms: C_5  and  C_6 
REMARK    2  A    between atoms: C_6  and  N_7 
REMARK    3  A    between atoms: C_6  and  C_18 
REMARK    4  A    between atoms: N_7  and  C_8 
ROOT
HETATM    1  C   UNL     1     -43.249  56.637 -54.277  1.00  0.00     0.288 C 
ENDROOT
BRANCH   1   2
HETATM    2  C   UNL     1     -43.670  57.037 -55.682  1.00  0.00    -0.003 A 
HETATM    3  C   UNL     1     -43.046  56.533 -56.823  1.00  0.00     0.126 A 
HETATM    4  N   UNL     1     -43.447  56.801 -58.085  1.00  0.00    -0.272 NA
HETATM    5  C   UNL     1     -44.491  57.643 -58.235  1.00  0.00     0.116 A 
HETATM    6  C   UNL     1     -45.175  58.208 -57.174  1.00  0.00     0.020 A 
HETATM    7  C   UNL     1     -44.762  57.894 -55.882  1.00  0.00     0.012 A 
ENDBRANCH   1   2
BRANCH   1   8
HETATM    8  N   UNL     1     -42.285  55.501 -54.303  1.00  0.00     0.101 N 
HETATM    9  H   UNL     1     -41.414  55.854 -53.919  1.00  0.00     0.317 HD
BRANCH   8  10
HETATM   10  C   UNL     1     -42.706  54.234 -53.686  1.00  0.00     0.225 C 
HETATM   11  C   UNL     1     -43.116  54.317 -52.195  1.00  0.00     0.069 C 
HETATM   12  C   UNL     1     -41.934  54.644 -51.305  1.00  0.00     0.190 C 
HETATM   13  N   UNL     1     -40.886  53.582 -51.487  1.00  0.00    -0.067 N 
HETATM   14  C   UNL     1     -42.155  54.586 -49.808  1.00  0.00     0.035 C 
HETATM   15  H   UNL     1     -41.322  52.668 -51.298  1.00  0.00     0.280 HD
HETATM   16  C   UNL     1     -40.355  53.536 -52.885  1.00  0.00     0.237 C 
HETATM   17  C   UNL     1     -39.901  53.809 -50.370  1.00  0.00     0.235 C 
HETATM   18  C   UNL     1     -41.523  53.239 -53.825  1.00  0.00     0.063 C 
HETATM   19  C   UNL     1     -40.730  54.471 -49.266  1.00  0.00     0.030 C 
ENDBRANCH   8  10
ENDBRANCH   1   8
BRANCH   1  20
HETATM   20  C   UNL     1     -42.929  57.785 -53.312  1.00  0.00    -0.021 A 
HETATM   21  C   UNL     1     -41.947  58.738 -53.666  1.00  0.00     0.012 A 
HETATM   22  C   UNL     1     -41.653  59.822 -52.834  1.00  0.00     0.043 A 
HETATM   23  C   UNL     1     -42.353  59.982 -51.649  1.00  0.00     0.116 A 
HETATM   24  F   UNL     1     -42.075  61.020 -50.850  1.00  0.00    -0.206 F 
HETATM   25  C   UNL     1     -43.351  59.088 -51.290  1.00  0.00     0.043 A 
HETATM   26  C   UNL     1     -43.647  58.005 -52.123  1.00  0.00     0.012 A 
ENDBRANCH   1  20
TORSDOF 4
ENDMDL
