MODEL 1
REMARK VINA RESULT:      -8.4      0.000      0.000
REMARK  8 active torsions:
REMARK  status: ('A' for Active; 'I' for Inactive)
REMARK    1  A    between atoms: O_2  and  C_3 
REMARK    2  A    between atoms: C_7  and  C_8 
REMARK       I    between atoms: C_8  and  N_9 
REMARK    3  A    between atoms: N_9  and  C_10 
REMARK    4  A    between atoms: C_10  and  N_11 
REMARK    5  A    between atoms: N_11  and  C_12 
REMARK    6  A    between atoms: C_15  and  N_16 
REMARK    7  A    between atoms: N_19  and  C_21 
REMARK    8  A    between atoms: C_21  and  C_22 
ROOT
HETATM    1  C   UNL     1     -45.864  59.710 -51.950  1.00  0.00     0.034 A 
HETATM    2  C   UNL     1     -45.455  58.783 -50.992  1.00  0.00     0.032 A 
HETATM    3  C   UNL     1     -44.519  57.799 -51.319  1.00  0.00     0.031 A 
HETATM    4  C   UNL     1     -43.964  57.711 -52.606  1.00  0.00     0.030 A 
HETATM    5  C   UNL     1     -44.372  58.657 -53.553  1.00  0.00     0.031 A 
HETATM    6  C   UNL     1     -45.307  59.656 -53.227  1.00  0.00     0.032 A 
ENDROOT
BRANCH   1   7
HETATM    7  N   UNL     1     -46.836  60.665 -51.564  1.00  0.00    -0.333 N 
HETATM    8  H   UNL     1     -47.772  60.429 -51.872  1.00  0.00     0.168 HD
BRANCH   7   9
HETATM    9  C   UNL     1     -46.605  62.006 -51.505  1.00  0.00     0.179 C 
HETATM   10  S   UNL     1     -47.012  63.027 -52.765  1.00  0.00    -0.040 SA
BRANCH   9  11
HETATM   11  N   UNL     1     -46.259  62.558 -50.297  1.00  0.00    -0.299 N 
HETATM   12  C   UNL     1     -45.041  62.475 -49.634  1.00  0.00     0.257 C 
HETATM   13  O   UNL     1     -43.957  62.380 -50.204  1.00  0.00    -0.267 OA
HETATM   14  H   UNL     1     -47.073  62.864 -49.788  1.00  0.00     0.171 HD
BRANCH  12  15
HETATM   15  C   UNL     1     -45.059  62.564 -48.136  1.00  0.00     0.034 A 
HETATM   16  C   UNL     1     -45.107  61.460 -47.275  1.00  0.00     0.044 A 
HETATM   17  C   UNL     1     -45.076  61.625 -45.872  1.00  0.00     0.068 A 
HETATM   18  C   UNL     1     -44.989  62.905 -45.311  1.00  0.00     0.089 A 
HETATM   19 CL   UNL     1     -45.186  60.153 -44.970  1.00  0.00    -0.081 Cl
HETATM   20  C   UNL     1     -44.960  64.003 -46.181  1.00  0.00     0.039 A 
HETATM   21  C   UNL     1     -44.994  63.840 -47.569  1.00  0.00     0.020 A 
BRANCH  18  22
HETATM   22  O   UNL     1     -44.951  63.306 -44.007  1.00  0.00    -0.354 OA
HETATM   23  C   UNL     1     -43.929  62.853 -43.137  1.00  0.00     0.210 C 
ENDBRANCH  18  22
ENDBRANCH  12  15
ENDBRANCH   9  11
ENDBRANCH   7   9
ENDBRANCH   1   7
BRANCH   4  24
HETATM   24  N   UNL     1     -43.041  56.690 -52.859  1.00  0.00    -0.378 N 
HETATM   25  C   UNL     1     -42.356  56.066 -51.718  1.00  0.00     0.150 C 
HETATM   26  C   UNL     1     -41.102  55.319 -52.233  1.00  0.00     0.255 C 
HETATM   27  N   UNL     1     -41.464  54.309 -53.329  1.00  0.00    -0.064 N 
HETATM   28  H   UNL     1     -42.035  53.573 -52.890  1.00  0.00     0.280 HD
HETATM   29  C   UNL     1     -42.304  54.952 -54.436  1.00  0.00     0.255 C 
HETATM   30  C   UNL     1     -43.511  55.725 -53.870  1.00  0.00     0.150 C 
BRANCH  27  31
HETATM   31  C   UNL     1     -40.253  53.630 -53.929  1.00  0.00     0.276 C 
BRANCH  31  32
HETATM   32  C   UNL     1     -40.043  52.207 -53.511  1.00  0.00     0.006 A 
HETATM   33  C   UNL     1     -39.619  51.916 -52.211  1.00  0.00     0.124 A 
HETATM   34  F   UNL     1     -39.345  52.930 -51.376  1.00  0.00    -0.206 F 
HETATM   35  C   UNL     1     -39.460  50.606 -51.774  1.00  0.00     0.043 A 
HETATM   36  C   UNL     1     -39.726  49.556 -52.651  1.00  0.00     0.003 A 
HETATM   37  C   UNL     1     -40.144  49.824 -53.954  1.00  0.00     0.001 A 
HETATM   38  C   UNL     1     -40.306  51.143 -54.385  1.00  0.00     0.012 A 
ENDBRANCH  31  32
ENDBRANCH  27  31
ENDBRANCH   4  24
TORSDOF 8
ENDMDL
MODEL 2
REMARK VINA RESULT:      -8.4      4.548     10.645
REMARK  8 active torsions:
REMARK  status: ('A' for Active; 'I' for Inactive)
REMARK    1  A    between atoms: O_2  and  C_3 
REMARK    2  A    between atoms: C_7  and  C_8 
REMARK       I    between atoms: C_8  and  N_9 
REMARK    3  A    between atoms: N_9  and  C_10 
REMARK    4  A    between atoms: C_10  and  N_11 
REMARK    5  A    between atoms: N_11  and  C_12 
REMARK    6  A    between atoms: C_15  and  N_16 
REMARK    7  A    between atoms: N_19  and  C_21 
REMARK    8  A    between atoms: C_21  and  C_22 
ROOT
HETATM    1  C   UNL     1     -42.469  57.884 -55.214  1.00  0.00     0.034 A 
HETATM    2  C   UNL     1     -43.689  58.557 -55.227  1.00  0.00     0.032 A 
HETATM    3  C   UNL     1     -44.145  59.212 -54.079  1.00  0.00     0.031 A 
HETATM    4  C   UNL     1     -43.399  59.215 -52.890  1.00  0.00     0.030 A 
HETATM    5  C   UNL     1     -42.169  58.547 -52.895  1.00  0.00     0.031 A 
HETATM    6  C   UNL     1     -41.700  57.895 -54.050  1.00  0.00     0.032 A 
ENDROOT
BRANCH   1   7
HETATM    7  N   UNL     1     -42.076  57.217 -56.400  1.00  0.00    -0.333 N 
HETATM    8  H   UNL     1     -41.934  57.845 -57.182  1.00  0.00     0.168 HD
BRANCH   7   9
HETATM    9  C   UNL     1     -42.528  55.985 -56.766  1.00  0.00     0.179 C 
HETATM   10  S   UNL     1     -43.280  55.722 -58.235  1.00  0.00    -0.040 SA
BRANCH   9  11
HETATM   11  N   UNL     1     -42.139  54.899 -56.022  1.00  0.00    -0.299 N 
HETATM   12  C   UNL     1     -42.631  54.482 -54.791  1.00  0.00     0.257 C 
HETATM   13  O   UNL     1     -43.789  54.658 -54.422  1.00  0.00    -0.267 OA
HETATM   14  H   UNL     1     -41.264  54.525 -56.351  1.00  0.00     0.171 HD
BRANCH  12  15
HETATM   15  C   UNL     1     -41.698  53.727 -53.891  1.00  0.00     0.034 A 
HETATM   16  C   UNL     1     -41.573  53.945 -52.513  1.00  0.00     0.044 A 
HETATM   17  C   UNL     1     -40.701  53.160 -51.725  1.00  0.00     0.068 A 
HETATM   18  C   UNL     1     -39.945  52.136 -52.310  1.00  0.00     0.089 A 
HETATM   19 CL   UNL     1     -40.647  53.600 -50.053  1.00  0.00    -0.081 Cl
HETATM   20  C   UNL     1     -40.065  51.939 -53.693  1.00  0.00     0.039 A 
HETATM   21  C   UNL     1     -40.924  52.718 -54.473  1.00  0.00     0.020 A 
BRANCH  18  22
HETATM   22  O   UNL     1     -39.048  51.265 -51.762  1.00  0.00    -0.354 OA
HETATM   23  C   UNL     1     -39.487  50.138 -51.025  1.00  0.00     0.210 C 
ENDBRANCH  18  22
ENDBRANCH  12  15
ENDBRANCH   9  11
ENDBRANCH   7   9
ENDBRANCH   1   7
BRANCH   4  24
HETATM   24  N   UNL     1     -43.928  59.883 -51.780  1.00  0.00    -0.378 N 
HETATM   25  C   UNL     1     -44.923  59.187 -50.952  1.00  0.00     0.150 C 
HETATM   26  C   UNL     1     -45.677  60.230 -50.091  1.00  0.00     0.255 C 
HETATM   27  N   UNL     1     -44.705  61.076 -49.260  1.00  0.00    -0.064 N 
HETATM   28  H   UNL     1     -44.266  60.449 -48.572  1.00  0.00     0.280 HD
HETATM   29  C   UNL     1     -43.591  61.672 -50.125  1.00  0.00     0.255 C 
HETATM   30  C   UNL     1     -42.905  60.604 -51.000  1.00  0.00     0.150 C 
BRANCH  27  31
HETATM   31  C   UNL     1     -45.396  62.173 -48.482  1.00  0.00     0.276 C 
BRANCH  31  32
HETATM   32  C   UNL     1     -45.109  62.195 -47.012  1.00  0.00     0.006 A 
HETATM   33  C   UNL     1     -45.256  63.382 -46.289  1.00  0.00     0.124 A 
HETATM   34  F   UNL     1     -45.593  64.503 -46.945  1.00  0.00    -0.206 F 
HETATM   35  C   UNL     1     -45.045  63.428 -44.916  1.00  0.00     0.043 A 
HETATM   36  C   UNL     1     -44.675  62.266 -44.241  1.00  0.00     0.003 A 
HETATM   37  C   UNL     1     -44.517  61.072 -44.944  1.00  0.00     0.001 A 
HETATM   38  C   UNL     1     -44.735  61.033 -46.323  1.00  0.00     0.012 A 
ENDBRANCH  31  32
ENDBRANCH  27  31
ENDBRANCH   4  24
TORSDOF 8
ENDMDL
MODEL 3
REMARK VINA RESULT:      -8.2      6.102      8.435
REMARK  8 active torsions:
REMARK  status: ('A' for Active; 'I' for Inactive)
REMARK    1  A    between atoms: O_2  and  C_3 
REMARK    2  A    between atoms: C_7  and  C_8 
REMARK       I    between atoms: C_8  and  N_9 
REMARK    3  A    between atoms: N_9  and  C_10 
REMARK    4  A    between atoms: C_10  and  N_11 
REMARK    5  A    between atoms: N_11  and  C_12 
REMARK    6  A    between atoms: C_15  and  N_16 
REMARK    7  A    between atoms: N_19  and  C_21 
REMARK    8  A    between atoms: C_21  and  C_22 
ROOT
HETATM    1  C   UNL     1     -44.622  59.947 -54.764  1.00  0.00     0.034 A 
HETATM    2  C   UNL     1     -43.258  59.915 -55.051  1.00  0.00     0.032 A 
HETATM    3  C   UNL     1     -42.548  58.715 -54.964  1.00  0.00     0.031 A 
HETATM    4  C   UNL     1     -43.175  57.516 -54.590  1.00  0.00     0.030 A 
HETATM    5  C   UNL     1     -44.547  57.559 -54.318  1.00  0.00     0.031 A 
HETATM    6  C   UNL     1     -45.270  58.762 -54.415  1.00  0.00     0.032 A 
ENDROOT
BRANCH   1   7
HETATM    7  N   UNL     1     -45.279  61.199 -54.844  1.00  0.00    -0.333 N 
HETATM    8  H   UNL     1     -45.822  61.418 -54.017  1.00  0.00     0.168 HD
BRANCH   7   9
HETATM    9  C   UNL     1     -45.805  61.712 -55.991  1.00  0.00     0.179 C 
HETATM   10  S   UNL     1     -46.477  63.241 -56.047  1.00  0.00    -0.040 SA
BRANCH   9  11
HETATM   11  N   UNL     1     -45.557  61.059 -57.173  1.00  0.00    -0.299 N 
HETATM   12  C   UNL     1     -46.368  60.143 -57.833  1.00  0.00     0.257 C 
HETATM   13  O   UNL     1     -47.595  60.161 -57.790  1.00  0.00    -0.267 OA
HETATM   14  H   UNL     1     -44.587  61.129 -57.433  1.00  0.00     0.171 HD
BRANCH  12  15
HETATM   15  C   UNL     1     -45.695  59.111 -58.689  1.00  0.00     0.034 A 
HETATM   16  C   UNL     1     -44.386  59.215 -59.177  1.00  0.00     0.044 A 
HETATM   17  C   UNL     1     -43.806  58.177 -59.942  1.00  0.00     0.068 A 
HETATM   18  C   UNL     1     -44.533  57.013 -60.223  1.00  0.00     0.089 A 
HETATM   19 CL   UNL     1     -42.199  58.499 -60.494  1.00  0.00    -0.081 Cl
HETATM   20  C   UNL     1     -45.848  56.928 -59.744  1.00  0.00     0.039 A 
HETATM   21  C   UNL     1     -46.422  57.956 -58.991  1.00  0.00     0.020 A 
BRANCH  18  22
HETATM   22  O   UNL     1     -44.192  55.898 -60.933  1.00  0.00    -0.354 OA
HETATM   23  C   UNL     1     -44.937  54.700 -60.805  1.00  0.00     0.210 C 
ENDBRANCH  18  22
ENDBRANCH  12  15
ENDBRANCH   9  11
ENDBRANCH   7   9
ENDBRANCH   1   7
BRANCH   4  24
HETATM   24  N   UNL     1     -42.393  56.358 -54.515  1.00  0.00    -0.378 N 
HETATM   25  C   UNL     1     -40.957  56.498 -54.232  1.00  0.00     0.150 C 
HETATM   26  C   UNL     1     -40.237  55.188 -54.632  1.00  0.00     0.255 C 
HETATM   27  N   UNL     1     -40.859  53.972 -53.934  1.00  0.00    -0.064 N 
HETATM   28  H   UNL     1     -40.670  54.068 -52.927  1.00  0.00     0.280 HD
HETATM   29  C   UNL     1     -42.378  53.929 -54.122  1.00  0.00     0.255 C 
HETATM   30  C   UNL     1     -43.044  55.271 -53.758  1.00  0.00     0.150 C 
BRANCH  27  31
HETATM   31  C   UNL     1     -40.248  52.662 -54.377  1.00  0.00     0.276 C 
BRANCH  31  32
HETATM   32  C   UNL     1     -40.037  51.653 -53.289  1.00  0.00     0.006 A 
HETATM   33  C   UNL     1     -39.795  50.316 -53.613  1.00  0.00     0.124 A 
HETATM   34  F   UNL     1     -39.821  49.947 -54.903  1.00  0.00    -0.206 F 
HETATM   35  C   UNL     1     -39.546  49.363 -52.632  1.00  0.00     0.043 A 
HETATM   36  C   UNL     1     -39.540  49.746 -51.292  1.00  0.00     0.003 A 
HETATM   37  C   UNL     1     -39.785  51.075 -50.946  1.00  0.00     0.001 A 
HETATM   38  C   UNL     1     -40.030  52.028 -51.938  1.00  0.00     0.012 A 
ENDBRANCH  31  32
ENDBRANCH  27  31
ENDBRANCH   4  24
TORSDOF 8
ENDMDL
MODEL 4
REMARK VINA RESULT:      -8.2      4.093      6.049
REMARK  8 active torsions:
REMARK  status: ('A' for Active; 'I' for Inactive)
REMARK    1  A    between atoms: O_2  and  C_3 
REMARK    2  A    between atoms: C_7  and  C_8 
REMARK       I    between atoms: C_8  and  N_9 
REMARK    3  A    between atoms: N_9  and  C_10 
REMARK    4  A    between atoms: C_10  and  N_11 
REMARK    5  A    between atoms: N_11  and  C_12 
REMARK    6  A    between atoms: C_15  and  N_16 
REMARK    7  A    between atoms: N_19  and  C_21 
REMARK    8  A    between atoms: C_21  and  C_22 
ROOT
HETATM    1  C   UNL     1     -44.969  60.043 -52.310  1.00  0.00     0.034 A 
HETATM    2  C   UNL     1     -43.764  59.818 -52.974  1.00  0.00     0.032 A 
HETATM    3  C   UNL     1     -43.082  58.610 -52.806  1.00  0.00     0.031 A 
HETATM    4  C   UNL     1     -43.580  57.595 -51.974  1.00  0.00     0.030 A 
HETATM    5  C   UNL     1     -44.798  57.828 -51.324  1.00  0.00     0.031 A 
HETATM    6  C   UNL     1     -45.494  59.037 -51.498  1.00  0.00     0.032 A 
ENDROOT
BRANCH   1   7
HETATM    7  N   UNL     1     -45.597  61.297 -52.500  1.00  0.00    -0.333 N 
HETATM    8  H   UNL     1     -44.942  62.048 -52.683  1.00  0.00     0.168 HD
BRANCH   7   9
HETATM    9  C   UNL     1     -46.713  61.700 -51.831  1.00  0.00     0.179 C 
HETATM   10  S   UNL     1     -46.623  62.637 -50.449  1.00  0.00    -0.040 SA
BRANCH   9  11
HETATM   11  N   UNL     1     -47.934  61.539 -52.438  1.00  0.00    -0.299 N 
HETATM   12  C   UNL     1     -48.478  62.283 -53.479  1.00  0.00     0.257 C 
HETATM   13  O   UNL     1     -47.810  62.818 -54.359  1.00  0.00    -0.267 OA
HETATM   14  H   UNL     1     -48.537  60.944 -51.895  1.00  0.00     0.171 HD
BRANCH  12  15
HETATM   15  C   UNL     1     -49.974  62.384 -53.551  1.00  0.00     0.034 A 
HETATM   16  C   UNL     1     -50.803  62.675 -52.461  1.00  0.00     0.044 A 
HETATM   17  C   UNL     1     -52.202  62.797 -52.619  1.00  0.00     0.068 A 
HETATM   18  C   UNL     1     -52.790  62.634 -53.880  1.00  0.00     0.089 A 
HETATM   19 CL   UNL     1     -53.069  63.117 -51.157  1.00  0.00    -0.081 Cl
HETATM   20  C   UNL     1     -51.951  62.325 -54.961  1.00  0.00     0.039 A 
HETATM   21  C   UNL     1     -50.568  62.201 -54.803  1.00  0.00     0.020 A 
BRANCH  18  22
HETATM   22  O   UNL     1     -54.096  62.699 -54.271  1.00  0.00    -0.354 OA
HETATM   23  C   UNL     1     -54.468  63.384 -55.454  1.00  0.00     0.210 C 
ENDBRANCH  18  22
ENDBRANCH  12  15
ENDBRANCH   9  11
ENDBRANCH   7   9
ENDBRANCH   1   7
BRANCH   4  24
HETATM   24  N   UNL     1     -42.833  56.418 -51.848  1.00  0.00    -0.378 N 
HETATM   25  C   UNL     1     -43.249  55.237 -52.618  1.00  0.00     0.150 C 
HETATM   26  C   UNL     1     -42.590  53.979 -52.003  1.00  0.00     0.255 C 
HETATM   27  N   UNL     1     -41.065  54.127 -51.929  1.00  0.00    -0.064 N 
HETATM   28  H   UNL     1     -40.713  54.152 -52.896  1.00  0.00     0.280 HD
HETATM   29  C   UNL     1     -40.656  55.438 -51.251  1.00  0.00     0.255 C 
HETATM   30  C   UNL     1     -41.376  56.655 -51.864  1.00  0.00     0.150 C 
BRANCH  27  31
HETATM   31  C   UNL     1     -40.392  52.961 -51.242  1.00  0.00     0.276 C 
BRANCH  31  32
HETATM   32  C   UNL     1     -40.041  51.808 -52.132  1.00  0.00     0.006 A 
HETATM   33  C   UNL     1     -39.795  50.548 -51.580  1.00  0.00     0.124 A 
HETATM   34  F   UNL     1     -39.815  50.410 -50.245  1.00  0.00    -0.206 F 
HETATM   35  C   UNL     1     -39.514  49.446 -52.379  1.00  0.00     0.043 A 
HETATM   36  C   UNL     1     -39.474  49.597 -53.764  1.00  0.00     0.003 A 
HETATM   37  C   UNL     1     -39.711  50.847 -54.335  1.00  0.00     0.001 A 
HETATM   38  C   UNL     1     -39.996  51.949 -53.527  1.00  0.00     0.012 A 
ENDBRANCH  31  32
ENDBRANCH  27  31
ENDBRANCH   4  24
TORSDOF 8
ENDMDL
MODEL 5
REMARK VINA RESULT:      -8.1      1.714      2.086
REMARK  8 active torsions:
REMARK  status: ('A' for Active; 'I' for Inactive)
REMARK    1  A    between atoms: O_2  and  C_3 
REMARK    2  A    between atoms: C_7  and  C_8 
REMARK       I    between atoms: C_8  and  N_9 
REMARK    3  A    between atoms: N_9  and  C_10 
REMARK    4  A    between atoms: C_10  and  N_11 
REMARK    5  A    between atoms: N_11  and  C_12 
REMARK    6  A    between atoms: C_15  and  N_16 
REMARK    7  A    between atoms: N_19  and  C_21 
REMARK    8  A    between atoms: C_21  and  C_22 
ROOT
HETATM    1  C   UNL     1     -44.242  60.282 -52.954  1.00  0.00     0.034 A 
HETATM    2  C   UNL     1     -42.854  60.183 -52.866  1.00  0.00     0.032 A 
HETATM    3  C   UNL     1     -42.219  58.960 -53.095  1.00  0.00     0.031 A 
HETATM    4  C   UNL     1     -42.947  57.804 -53.417  1.00  0.00     0.030 A 
HETATM    5  C   UNL     1     -44.339  57.920 -53.516  1.00  0.00     0.031 A 
HETATM    6  C   UNL     1     -44.982  59.151 -53.297  1.00  0.00     0.032 A 
ENDROOT
BRANCH   1   7
HETATM    7  N   UNL     1     -44.827  61.543 -52.684  1.00  0.00    -0.333 N 
HETATM    8  H   UNL     1     -45.234  61.979 -53.504  1.00  0.00     0.168 HD
BRANCH   7   9
HETATM    9  C   UNL     1     -44.329  62.437 -51.784  1.00  0.00     0.179 C 
HETATM   10  S   UNL     1     -43.797  63.952 -52.247  1.00  0.00    -0.040 SA
BRANCH   9  11
HETATM   11  N   UNL     1     -44.496  62.179 -50.446  1.00  0.00    -0.299 N 
HETATM   12  C   UNL     1     -45.686  62.049 -49.740  1.00  0.00     0.257 C 
HETATM   13  O   UNL     1     -46.726  61.616 -50.227  1.00  0.00    -0.267 OA
HETATM   14  H   UNL     1     -43.638  62.316 -49.938  1.00  0.00     0.171 HD
BRANCH  12  15
HETATM   15  C   UNL     1     -45.670  62.411 -48.283  1.00  0.00     0.034 A 
HETATM   16  C   UNL     1     -45.097  61.625 -47.276  1.00  0.00     0.044 A 
HETATM   17  C   UNL     1     -45.084  62.057 -45.930  1.00  0.00     0.068 A 
HETATM   18  C   UNL     1     -45.642  63.292 -45.577  1.00  0.00     0.089 A 
HETATM   19 CL   UNL     1     -44.372  60.937 -44.820  1.00  0.00    -0.081 Cl
HETATM   20  C   UNL     1     -46.228  64.062 -46.591  1.00  0.00     0.039 A 
HETATM   21  C   UNL     1     -46.245  63.633 -47.921  1.00  0.00     0.020 A 
BRANCH  18  22
HETATM   22  O   UNL     1     -45.750  63.907 -44.363  1.00  0.00    -0.354 OA
HETATM   23  C   UNL     1     -46.947  64.564 -43.986  1.00  0.00     0.210 C 
ENDBRANCH  18  22
ENDBRANCH  12  15
ENDBRANCH   9  11
ENDBRANCH   7   9
ENDBRANCH   1   7
BRANCH   4  24
HETATM   24  N   UNL     1     -42.240  56.613 -53.621  1.00  0.00    -0.378 N 
HETATM   25  C   UNL     1     -40.807  56.695 -53.939  1.00  0.00     0.150 C 
HETATM   26  C   UNL     1     -40.351  55.347 -54.549  1.00  0.00     0.255 C 
HETATM   27  N   UNL     1     -40.683  54.173 -53.620  1.00  0.00    -0.064 N 
HETATM   28  H   UNL     1     -40.104  54.278 -52.776  1.00  0.00     0.280 HD
HETATM   29  C   UNL     1     -42.151  54.194 -53.184  1.00  0.00     0.255 C 
HETATM   30  C   UNL     1     -42.570  55.570 -52.631  1.00  0.00     0.150 C 
BRANCH  27  31
HETATM   31  C   UNL     1     -40.345  52.829 -54.225  1.00  0.00     0.276 C 
BRANCH  31  32
HETATM   32  C   UNL     1     -40.076  51.732 -53.240  1.00  0.00     0.006 A 
HETATM   33  C   UNL     1     -39.874  50.424 -53.689  1.00  0.00     0.124 A 
HETATM   34  F   UNL     1     -39.991  50.163 -55.000  1.00  0.00    -0.206 F 
HETATM   35  C   UNL     1     -39.574  49.391 -52.808  1.00  0.00     0.043 A 
HETATM   36  C   UNL     1     -39.474  49.662 -51.445  1.00  0.00     0.003 A 
HETATM   37  C   UNL     1     -39.678  50.959 -50.975  1.00  0.00     0.001 A 
HETATM   38  C   UNL     1     -39.974  51.993 -51.866  1.00  0.00     0.012 A 
ENDBRANCH  31  32
ENDBRANCH  27  31
ENDBRANCH   4  24
TORSDOF 8
ENDMDL
MODEL 6
REMARK VINA RESULT:      -8.0      4.837     10.867
REMARK  8 active torsions:
REMARK  status: ('A' for Active; 'I' for Inactive)
REMARK    1  A    between atoms: O_2  and  C_3 
REMARK    2  A    between atoms: C_7  and  C_8 
REMARK       I    between atoms: C_8  and  N_9 
REMARK    3  A    between atoms: N_9  and  C_10 
REMARK    4  A    between atoms: C_10  and  N_11 
REMARK    5  A    between atoms: N_11  and  C_12 
REMARK    6  A    between atoms: C_15  and  N_16 
REMARK    7  A    between atoms: N_19  and  C_21 
REMARK    8  A    between atoms: C_21  and  C_22 
ROOT
HETATM    1  C   UNL     1     -44.633  57.824 -55.052  1.00  0.00     0.034 A 
HETATM    2  C   UNL     1     -45.107  59.084 -55.412  1.00  0.00     0.032 A 
HETATM    3  C   UNL     1     -45.400  60.035 -54.431  1.00  0.00     0.031 A 
HETATM    4  C   UNL     1     -45.228  59.757 -53.066  1.00  0.00     0.030 A 
HETATM    5  C   UNL     1     -44.738  58.493 -52.718  1.00  0.00     0.031 A 
HETATM    6  C   UNL     1     -44.432  57.536 -53.702  1.00  0.00     0.032 A 
ENDROOT
BRANCH   1   7
HETATM    7  N   UNL     1     -44.381  56.896 -56.091  1.00  0.00    -0.333 N 
HETATM    8  H   UNL     1     -44.968  56.072 -56.042  1.00  0.00     0.168 HD
BRANCH   7   9
HETATM    9  C   UNL     1     -43.147  56.654 -56.614  1.00  0.00     0.179 C 
HETATM   10  S   UNL     1     -42.480  57.633 -57.794  1.00  0.00    -0.040 SA
BRANCH   9  11
HETATM   11  N   UNL     1     -42.340  55.736 -55.988  1.00  0.00    -0.299 N 
HETATM   12  C   UNL     1     -42.699  54.507 -55.448  1.00  0.00     0.257 C 
HETATM   13  O   UNL     1     -43.610  53.808 -55.883  1.00  0.00    -0.267 OA
HETATM   14  H   UNL     1     -41.453  56.141 -55.736  1.00  0.00     0.171 HD
BRANCH  12  15
HETATM   15  C   UNL     1     -41.882  53.989 -54.300  1.00  0.00     0.034 A 
HETATM   16  C   UNL     1     -41.112  52.820 -54.337  1.00  0.00     0.044 A 
HETATM   17  C   UNL     1     -40.333  52.422 -53.227  1.00  0.00     0.068 A 
HETATM   18  C   UNL     1     -40.311  53.199 -52.062  1.00  0.00     0.089 A 
HETATM   19 CL   UNL     1     -39.482  50.931 -53.440  1.00  0.00    -0.081 Cl
HETATM   20  C   UNL     1     -41.100  54.357 -52.030  1.00  0.00     0.039 A 
HETATM   21  C   UNL     1     -41.873  54.748 -53.127  1.00  0.00     0.020 A 
BRANCH  18  22
HETATM   22  O   UNL     1     -39.652  53.017 -50.881  1.00  0.00    -0.354 OA
HETATM   23  C   UNL     1     -39.846  53.907 -49.796  1.00  0.00     0.210 C 
ENDBRANCH  18  22
ENDBRANCH  12  15
ENDBRANCH   9  11
ENDBRANCH   7   9
ENDBRANCH   1   7
BRANCH   4  24
HETATM   24  N   UNL     1     -45.554  60.757 -52.142  1.00  0.00    -0.378 N 
HETATM   25  C   UNL     1     -46.945  61.229 -52.082  1.00  0.00     0.150 C 
HETATM   26  C   UNL     1     -46.981  62.593 -51.350  1.00  0.00     0.255 C 
HETATM   27  N   UNL     1     -46.329  62.500 -49.965  1.00  0.00    -0.064 N 
HETATM   28  H   UNL     1     -46.922  61.887 -49.389  1.00  0.00     0.280 HD
HETATM   29  C   UNL     1     -44.936  61.869 -50.036  1.00  0.00     0.255 C 
HETATM   30  C   UNL     1     -44.943  60.540 -50.817  1.00  0.00     0.150 C 
BRANCH  27  31
HETATM   31  C   UNL     1     -46.253  63.835 -49.259  1.00  0.00     0.276 C 
BRANCH  31  32
HETATM   32  C   UNL     1     -46.242  63.769 -47.762  1.00  0.00     0.006 A 
HETATM   33  C   UNL     1     -45.086  64.113 -47.057  1.00  0.00     0.124 A 
HETATM   34  F   UNL     1     -43.979  64.436 -47.744  1.00  0.00    -0.206 F 
HETATM   35  C   UNL     1     -45.053  64.110 -45.667  1.00  0.00     0.043 A 
HETATM   36  C   UNL     1     -46.198  63.753 -44.957  1.00  0.00     0.003 A 
HETATM   37  C   UNL     1     -47.362  63.401 -45.642  1.00  0.00     0.001 A 
HETATM   38  C   UNL     1     -47.388  63.410 -47.038  1.00  0.00     0.012 A 
ENDBRANCH  31  32
ENDBRANCH  27  31
ENDBRANCH   4  24
TORSDOF 8
ENDMDL
MODEL 7
REMARK VINA RESULT:      -8.0      4.672     11.346
REMARK  8 active torsions:
REMARK  status: ('A' for Active; 'I' for Inactive)
REMARK    1  A    between atoms: O_2  and  C_3 
REMARK    2  A    between atoms: C_7  and  C_8 
REMARK       I    between atoms: C_8  and  N_9 
REMARK    3  A    between atoms: N_9  and  C_10 
REMARK    4  A    between atoms: C_10  and  N_11 
REMARK    5  A    between atoms: N_11  and  C_12 
REMARK    6  A    between atoms: C_15  and  N_16 
REMARK    7  A    between atoms: N_19  and  C_21 
REMARK    8  A    between atoms: C_21  and  C_22 
ROOT
HETATM    1  C   UNL     1     -44.905  57.800 -53.691  1.00  0.00     0.034 A 
HETATM    2  C   UNL     1     -44.829  57.677 -52.305  1.00  0.00     0.032 A 
HETATM    3  C   UNL     1     -44.959  58.805 -51.489  1.00  0.00     0.031 A 
HETATM    4  C   UNL     1     -45.168  60.083 -52.031  1.00  0.00     0.030 A 
HETATM    5  C   UNL     1     -45.256  60.190 -53.424  1.00  0.00     0.031 A 
HETATM    6  C   UNL     1     -45.137  59.057 -54.249  1.00  0.00     0.032 A 
ENDROOT
BRANCH   1   7
HETATM    7  N   UNL     1     -44.738  56.625 -54.462  1.00  0.00    -0.333 N 
HETATM    8  H   UNL     1     -45.472  55.942 -54.315  1.00  0.00     0.168 HD
BRANCH   7   9
HETATM    9  C   UNL     1     -43.528  56.068 -54.750  1.00  0.00     0.179 C 
HETATM   10  S   UNL     1     -42.537  56.682 -55.947  1.00  0.00    -0.040 SA
BRANCH   9  11
HETATM   11  N   UNL     1     -43.011  55.141 -53.879  1.00  0.00    -0.299 N 
HETATM   12  C   UNL     1     -41.871  55.248 -53.091  1.00  0.00     0.257 C 
HETATM   13  O   UNL     1     -41.453  56.307 -52.633  1.00  0.00    -0.267 OA
HETATM   14  H   UNL     1     -43.423  54.234 -54.024  1.00  0.00     0.171 HD
BRANCH  12  15
HETATM   15  C   UNL     1     -41.149  53.979 -52.742  1.00  0.00     0.034 A 
HETATM   16  C   UNL     1     -40.847  52.960 -53.653  1.00  0.00     0.044 A 
HETATM   17  C   UNL     1     -40.124  51.813 -53.255  1.00  0.00     0.068 A 
HETATM   18  C   UNL     1     -39.685  51.677 -51.932  1.00  0.00     0.089 A 
HETATM   19 CL   UNL     1     -39.882  50.643 -54.505  1.00  0.00    -0.081 Cl
HETATM   20  C   UNL     1     -40.008  52.695 -51.024  1.00  0.00     0.039 A 
HETATM   21  C   UNL     1     -40.727  53.827 -51.418  1.00  0.00     0.020 A 
BRANCH  18  22
HETATM   22  O   UNL     1     -38.987  50.674 -51.323  1.00  0.00    -0.354 OA
HETATM   23  C   UNL     1     -39.623  49.461 -50.962  1.00  0.00     0.210 C 
ENDBRANCH  18  22
ENDBRANCH  12  15
ENDBRANCH   9  11
ENDBRANCH   7   9
ENDBRANCH   1   7
BRANCH   4  24
HETATM   24  N   UNL     1     -45.277  61.164 -51.150  1.00  0.00    -0.378 N 
HETATM   25  C   UNL     1     -46.432  62.064 -51.283  1.00  0.00     0.150 C 
HETATM   26  C   UNL     1     -46.124  63.388 -50.544  1.00  0.00     0.255 C 
HETATM   27  N   UNL     1     -45.738  63.136 -49.081  1.00  0.00    -0.064 N 
HETATM   28  H   UNL     1     -46.573  62.768 -48.604  1.00  0.00     0.280 HD
HETATM   29  C   UNL     1     -44.631  62.085 -48.961  1.00  0.00     0.255 C 
HETATM   30  C   UNL     1     -44.961  60.805 -49.754  1.00  0.00     0.150 C 
BRANCH  27  31
HETATM   31  C   UNL     1     -45.332  64.397 -48.352  1.00  0.00     0.276 C 
BRANCH  31  32
HETATM   32  C   UNL     1     -45.611  64.404 -46.880  1.00  0.00     0.006 A 
HETATM   33  C   UNL     1     -46.912  64.202 -46.414  1.00  0.00     0.124 A 
HETATM   34  F   UNL     1     -47.906  64.069 -47.305  1.00  0.00    -0.206 F 
HETATM   35  C   UNL     1     -47.199  64.155 -45.054  1.00  0.00     0.043 A 
HETATM   36  C   UNL     1     -46.167  64.315 -44.132  1.00  0.00     0.003 A 
HETATM   37  C   UNL     1     -44.861  64.523 -44.576  1.00  0.00     0.001 A 
HETATM   38  C   UNL     1     -44.580  64.566 -45.943  1.00  0.00     0.012 A 
ENDBRANCH  31  32
ENDBRANCH  27  31
ENDBRANCH   4  24
TORSDOF 8
ENDMDL
MODEL 8
REMARK VINA RESULT:      -7.9      1.507      2.066
REMARK  8 active torsions:
REMARK  status: ('A' for Active; 'I' for Inactive)
REMARK    1  A    between atoms: O_2  and  C_3 
REMARK    2  A    between atoms: C_7  and  C_8 
REMARK       I    between atoms: C_8  and  N_9 
REMARK    3  A    between atoms: N_9  and  C_10 
REMARK    4  A    between atoms: C_10  and  N_11 
REMARK    5  A    between atoms: N_11  and  C_12 
REMARK    6  A    between atoms: C_15  and  N_16 
REMARK    7  A    between atoms: N_19  and  C_21 
REMARK    8  A    between atoms: C_21  and  C_22 
ROOT
HETATM    1  C   UNL     1     -45.503  59.701 -53.132  1.00  0.00     0.034 A 
HETATM    2  C   UNL     1     -44.870  59.008 -54.163  1.00  0.00     0.032 A 
HETATM    3  C   UNL     1     -44.066  57.901 -53.879  1.00  0.00     0.031 A 
HETATM    4  C   UNL     1     -43.872  57.454 -52.562  1.00  0.00     0.030 A 
HETATM    5  C   UNL     1     -44.524  58.150 -51.538  1.00  0.00     0.031 A 
HETATM    6  C   UNL     1     -45.342  59.259 -51.819  1.00  0.00     0.032 A 
ENDROOT
BRANCH   1   7
HETATM    7  N   UNL     1     -46.280  60.831 -53.484  1.00  0.00    -0.333 N 
HETATM    8  H   UNL     1     -46.784  60.713 -54.355  1.00  0.00     0.168 HD
BRANCH   7   9
HETATM    9  C   UNL     1     -45.907  62.118 -53.241  1.00  0.00     0.179 C 
HETATM   10  S   UNL     1     -45.501  63.167 -54.478  1.00  0.00    -0.040 SA
BRANCH   9  11
HETATM   11  N   UNL     1     -46.104  62.630 -51.982  1.00  0.00    -0.299 N 
HETATM   12  C   UNL     1     -45.177  62.758 -50.954  1.00  0.00     0.257 C 
HETATM   13  O   UNL     1     -43.978  62.945 -51.134  1.00  0.00    -0.267 OA
HETATM   14  H   UNL     1     -47.085  62.710 -51.770  1.00  0.00     0.171 HD
BRANCH  12  15
HETATM   15  C   UNL     1     -45.695  62.716 -49.546  1.00  0.00     0.034 A 
HETATM   16  C   UNL     1     -45.078  62.029 -48.493  1.00  0.00     0.044 A 
HETATM   17  C   UNL     1     -45.604  62.076 -47.182  1.00  0.00     0.068 A 
HETATM   18  C   UNL     1     -46.758  62.820 -46.908  1.00  0.00     0.089 A 
HETATM   19 CL   UNL     1     -44.734  61.133 -46.022  1.00  0.00    -0.081 Cl
HETATM   20  C   UNL     1     -47.377  63.489 -47.973  1.00  0.00     0.039 A 
HETATM   21  C   UNL     1     -46.858  63.440 -49.270  1.00  0.00     0.020 A 
BRANCH  18  22
HETATM   22  O   UNL     1     -47.443  63.007 -45.742  1.00  0.00    -0.354 OA
HETATM   23  C   UNL     1     -47.136  64.092 -44.885  1.00  0.00     0.210 C 
ENDBRANCH  18  22
ENDBRANCH  12  15
ENDBRANCH   9  11
ENDBRANCH   7   9
ENDBRANCH   1   7
BRANCH   4  24
HETATM   24  N   UNL     1     -43.043  56.345 -52.357  1.00  0.00    -0.378 N 
HETATM   25  C   UNL     1     -43.158  55.204 -53.278  1.00  0.00     0.150 C 
HETATM   26  C   UNL     1     -42.508  53.962 -52.622  1.00  0.00     0.255 C 
HETATM   27  N   UNL     1     -41.058  54.243 -52.209  1.00  0.00    -0.064 N 
HETATM   28  H   UNL     1     -40.517  54.386 -53.072  1.00  0.00     0.280 HD
HETATM   29  C   UNL     1     -40.946  55.520 -51.371  1.00  0.00     0.255 C 
HETATM   30  C   UNL     1     -41.650  56.715 -52.042  1.00  0.00     0.150 C 
BRANCH  27  31
HETATM   31  C   UNL     1     -40.420  53.086 -51.473  1.00  0.00     0.276 C 
BRANCH  31  32
HETATM   32  C   UNL     1     -40.077  51.898 -52.319  1.00  0.00     0.006 A 
HETATM   33  C   UNL     1     -39.786  50.672 -51.716  1.00  0.00     0.124 A 
HETATM   34  F   UNL     1     -39.756  50.599 -50.377  1.00  0.00    -0.206 F 
HETATM   35  C   UNL     1     -39.511  49.537 -52.472  1.00  0.00     0.043 A 
HETATM   36  C   UNL     1     -39.523  49.622 -53.863  1.00  0.00     0.003 A 
HETATM   37  C   UNL     1     -39.806  50.839 -54.484  1.00  0.00     0.001 A 
HETATM   38  C   UNL     1     -40.085  51.973 -53.719  1.00  0.00     0.012 A 
ENDBRANCH  31  32
ENDBRANCH  27  31
ENDBRANCH   4  24
TORSDOF 8
ENDMDL
MODEL 9
REMARK VINA RESULT:      -7.9      2.027      2.708
REMARK  8 active torsions:
REMARK  status: ('A' for Active; 'I' for Inactive)
REMARK    1  A    between atoms: O_2  and  C_3 
REMARK    2  A    between atoms: C_7  and  C_8 
REMARK       I    between atoms: C_8  and  N_9 
REMARK    3  A    between atoms: N_9  and  C_10 
REMARK    4  A    between atoms: C_10  and  N_11 
REMARK    5  A    between atoms: N_11  and  C_12 
REMARK    6  A    between atoms: C_15  and  N_16 
REMARK    7  A    between atoms: N_19  and  C_21 
REMARK    8  A    between atoms: C_21  and  C_22 
ROOT
HETATM    1  C   UNL     1     -45.113  59.743 -54.286  1.00  0.00     0.034 A 
HETATM    2  C   UNL     1     -44.273  59.431 -55.353  1.00  0.00     0.032 A 
HETATM    3  C   UNL     1     -43.451  58.302 -55.298  1.00  0.00     0.031 A 
HETATM    4  C   UNL     1     -43.445  57.454 -54.179  1.00  0.00     0.030 A 
HETATM    5  C   UNL     1     -44.303  57.770 -53.120  1.00  0.00     0.031 A 
HETATM    6  C   UNL     1     -45.140  58.899 -53.175  1.00  0.00     0.032 A 
ENDROOT
BRANCH   1   7
HETATM    7  N   UNL     1     -45.900  60.915 -54.392  1.00  0.00    -0.333 N 
HETATM    8  H   UNL     1     -46.527  60.905 -55.188  1.00  0.00     0.168 HD
BRANCH   7   9
HETATM    9  C   UNL     1     -45.458  62.161 -54.065  1.00  0.00     0.179 C 
HETATM   10  S   UNL     1     -45.179  63.332 -55.225  1.00  0.00    -0.040 SA
BRANCH   9  11
HETATM   11  N   UNL     1     -45.478  62.536 -52.744  1.00  0.00    -0.299 N 
HETATM   12  C   UNL     1     -44.553  62.232 -51.752  1.00  0.00     0.257 C 
HETATM   13  O   UNL     1     -43.355  62.062 -51.964  1.00  0.00    -0.267 OA
HETATM   14  H   UNL     1     -46.384  62.887 -52.477  1.00  0.00     0.171 HD
BRANCH  12  15
HETATM   15  C   UNL     1     -45.049  62.165 -50.338  1.00  0.00     0.034 A 
HETATM   16  C   UNL     1     -46.263  62.705 -49.895  1.00  0.00     0.044 A 
HETATM   17  C   UNL     1     -46.682  62.561 -48.554  1.00  0.00     0.068 A 
HETATM   18  C   UNL     1     -45.887  61.864 -47.634  1.00  0.00     0.089 A 
HETATM   19 CL   UNL     1     -48.186  63.329 -48.180  1.00  0.00    -0.081 Cl
HETATM   20  C   UNL     1     -44.666  61.343 -48.084  1.00  0.00     0.039 A 
HETATM   21  C   UNL     1     -44.251  61.489 -49.411  1.00  0.00     0.020 A 
BRANCH  18  22
HETATM   22  O   UNL     1     -46.077  61.605 -46.308  1.00  0.00    -0.354 OA
HETATM   23  C   UNL     1     -44.985  61.596 -45.406  1.00  0.00     0.210 C 
ENDBRANCH  18  22
ENDBRANCH  12  15
ENDBRANCH   9  11
ENDBRANCH   7   9
ENDBRANCH   1   7
BRANCH   4  24
HETATM   24  N   UNL     1     -42.585  56.349 -54.194  1.00  0.00    -0.378 N 
HETATM   25  C   UNL     1     -41.136  56.588 -54.135  1.00  0.00     0.150 C 
HETATM   26  C   UNL     1     -40.398  55.311 -54.607  1.00  0.00     0.255 C 
HETATM   27  N   UNL     1     -40.828  54.084 -53.793  1.00  0.00    -0.064 N 
HETATM   28  H   UNL     1     -40.497  54.227 -52.829  1.00  0.00     0.280 HD
HETATM   29  C   UNL     1     -42.352  53.941 -53.747  1.00  0.00     0.255 C 
HETATM   30  C   UNL     1     -43.043  55.251 -53.321  1.00  0.00     0.150 C 
BRANCH  27  31
HETATM   31  C   UNL     1     -40.204  52.800 -54.289  1.00  0.00     0.276 C 
BRANCH  31  32
HETATM   32  C   UNL     1     -40.005  51.740 -53.249  1.00  0.00     0.006 A 
HETATM   33  C   UNL     1     -39.823  50.409 -53.634  1.00  0.00     0.124 A 
HETATM   34  F   UNL     1     -39.897  50.095 -54.936  1.00  0.00    -0.206 F 
HETATM   35  C   UNL     1     -39.587  49.407 -52.699  1.00  0.00     0.043 A 
HETATM   36  C   UNL     1     -39.532  49.734 -51.346  1.00  0.00     0.003 A 
HETATM   37  C   UNL     1     -39.716  51.056 -50.940  1.00  0.00     0.001 A 
HETATM   38  C   UNL     1     -39.948  52.057 -51.885  1.00  0.00     0.012 A 
ENDBRANCH  31  32
ENDBRANCH  27  31
ENDBRANCH   4  24
TORSDOF 8
ENDMDL
MODEL 10
REMARK VINA RESULT:      -7.9      4.529      6.601
REMARK  8 active torsions:
REMARK  status: ('A' for Active; 'I' for Inactive)
REMARK    1  A    between atoms: O_2  and  C_3 
REMARK    2  A    between atoms: C_7  and  C_8 
REMARK       I    between atoms: C_8  and  N_9 
REMARK    3  A    between atoms: N_9  and  C_10 
REMARK    4  A    between atoms: C_10  and  N_11 
REMARK    5  A    between atoms: N_11  and  C_12 
REMARK    6  A    between atoms: C_15  and  N_16 
REMARK    7  A    between atoms: N_19  and  C_21 
REMARK    8  A    between atoms: C_21  and  C_22 
ROOT
HETATM    1  C   UNL     1     -46.284  61.667 -51.224  1.00  0.00     0.034 A 
HETATM    2  C   UNL     1     -45.405  61.378 -50.182  1.00  0.00     0.032 A 
HETATM    3  C   UNL     1     -44.595  60.240 -50.238  1.00  0.00     0.031 A 
HETATM    4  C   UNL     1     -44.639  59.361 -51.331  1.00  0.00     0.030 A 
HETATM    5  C   UNL     1     -45.516  59.670 -52.377  1.00  0.00     0.031 A 
HETATM    6  C   UNL     1     -46.325  60.820 -52.332  1.00  0.00     0.032 A 
ENDROOT
BRANCH   1   7
HETATM    7  N   UNL     1     -47.096  62.819 -51.095  1.00  0.00    -0.333 N 
HETATM    8  H   UNL     1     -47.909  62.671 -50.508  1.00  0.00     0.168 HD
BRANCH   7   9
HETATM    9  C   UNL     1     -47.306  63.720 -52.095  1.00  0.00     0.179 C 
HETATM   10  S   UNL     1     -46.039  64.479 -52.879  1.00  0.00    -0.040 SA
BRANCH   9  11
HETATM   11  N   UNL     1     -48.566  63.821 -52.631  1.00  0.00    -0.299 N 
HETATM   12  C   UNL     1     -49.785  63.595 -52.003  1.00  0.00     0.257 C 
HETATM   13  O   UNL     1     -49.986  63.793 -50.808  1.00  0.00    -0.267 OA
HETATM   14  H   UNL     1     -48.533  63.861 -53.637  1.00  0.00     0.171 HD
BRANCH  12  15
HETATM   15  C   UNL     1     -50.929  63.133 -52.857  1.00  0.00     0.034 A 
HETATM   16  C   UNL     1     -51.827  63.986 -53.511  1.00  0.00     0.044 A 
HETATM   17  C   UNL     1     -52.854  63.473 -54.335  1.00  0.00     0.068 A 
HETATM   18  C   UNL     1     -52.990  62.092 -54.521  1.00  0.00     0.089 A 
HETATM   19 CL   UNL     1     -53.892  64.673 -55.026  1.00  0.00    -0.081 Cl
HETATM   20  C   UNL     1     -52.097  61.247 -53.848  1.00  0.00     0.039 A 
HETATM   21  C   UNL     1     -51.084  61.754 -53.030  1.00  0.00     0.020 A 
BRANCH  18  22
HETATM   22  O   UNL     1     -53.892  61.375 -55.253  1.00  0.00    -0.354 OA
HETATM   23  C   UNL     1     -53.658  61.095 -56.623  1.00  0.00     0.210 C 
ENDBRANCH  18  22
ENDBRANCH  12  15
ENDBRANCH   9  11
ENDBRANCH   7   9
ENDBRANCH   1   7
BRANCH   4  24
HETATM   24  N   UNL     1     -43.805  58.237 -51.308  1.00  0.00    -0.378 N 
HETATM   25  C   UNL     1     -44.425  56.904 -51.333  1.00  0.00     0.150 C 
HETATM   26  C   UNL     1     -43.387  55.859 -50.857  1.00  0.00     0.255 C 
HETATM   27  N   UNL     1     -42.103  55.928 -51.692  1.00  0.00    -0.064 N 
HETATM   28  H   UNL     1     -42.343  55.630 -52.648  1.00  0.00     0.280 HD
HETATM   29  C   UNL     1     -41.556  57.356 -51.773  1.00  0.00     0.255 C 
HETATM   30  C   UNL     1     -42.638  58.365 -52.202  1.00  0.00     0.150 C 
BRANCH  27  31
HETATM   31  C   UNL     1     -41.025  54.991 -51.194  1.00  0.00     0.276 C 
BRANCH  31  32
HETATM   32  C   UNL     1     -40.612  53.919 -52.157  1.00  0.00     0.006 A 
HETATM   33  C   UNL     1     -40.066  52.725 -51.680  1.00  0.00     0.124 A 
HETATM   34  F   UNL     1     -39.861  52.586 -50.361  1.00  0.00    -0.206 F 
HETATM   35  C   UNL     1     -39.717  51.690 -52.541  1.00  0.00     0.043 A 
HETATM   36  C   UNL     1     -39.912  51.846 -53.912  1.00  0.00     0.003 A 
HETATM   37  C   UNL     1     -40.450  53.033 -54.409  1.00  0.00     0.001 A 
HETATM   38  C   UNL     1     -40.803  54.066 -53.538  1.00  0.00     0.012 A 
ENDBRANCH  31  32
ENDBRANCH  27  31
ENDBRANCH   4  24
TORSDOF 8
ENDMDL
