MODEL 1
REMARK VINA RESULT:      -8.3      0.000      0.000
REMARK  4 active torsions:
REMARK  status: ('A' for Active; 'I' for Inactive)
REMARK    1  A    between atoms: C_4  and  N_5 
REMARK    2  A    between atoms: N_5  and  C_6 
REMARK    3  A    between atoms: C_6  and  C_7 
REMARK    4  A    between atoms: N_17  and  N_19 
ROOT
HETATM    1  C   UNL     1     -43.513  55.886 -51.929  1.00  0.00     0.145 C 
HETATM    2  N   UNL     1     -44.382  55.661 -50.933  1.00  0.00    -0.307 N 
HETATM    3  H   UNL     1     -44.832  56.489 -50.546  1.00  0.00     0.182 HD
ENDROOT
BRANCH   1   4
HETATM    4  N   UNL     1     -43.351  57.255 -52.322  1.00  0.00    -0.339 N 
HETATM    5  H   UNL     1     -43.629  57.452 -53.278  1.00  0.00     0.167 HD
BRANCH   4   6
HETATM    6  C   UNL     1     -42.840  58.370 -51.633  1.00  0.00     0.040 A 
HETATM    7  C   UNL     1     -41.465  58.473 -51.363  1.00  0.00     0.036 A 
HETATM    8  C   UNL     1     -40.923  59.602 -50.735  1.00  0.00    -0.060 A 
HETATM    9  C   UNL     1     -39.459  59.668 -50.411  1.00  0.00     0.048 C 
HETATM   10  C   UNL     1     -41.777  60.636 -50.351  1.00  0.00     0.007 A 
HETATM   11  C   UNL     1     -43.144  60.553 -50.613  1.00  0.00     0.009 A 
HETATM   12  C   UNL     1     -43.687  59.433 -51.264  1.00  0.00    -0.035 A 
HETATM   13  C   UNL     1     -45.167  59.401 -51.534  1.00  0.00     0.050 C 
ENDBRANCH   4   6
ENDBRANCH   1   4
BRANCH   1  14
HETATM   14  C   UNL     1     -42.683  54.851 -52.624  1.00  0.00     0.102 A 
HETATM   15  N   UNL     1     -41.808  54.155 -51.846  1.00  0.00    -0.245 NA
HETATM   16  C   UNL     1     -41.025  53.216 -52.413  1.00  0.00     0.068 A 
HETATM   17  C   UNL     1     -41.100  52.901 -53.783  1.00  0.00    -0.007 A 
HETATM   18  C   UNL     1     -40.110  52.524 -51.630  1.00  0.00     0.032 A 
HETATM   19  C   UNL     1     -42.025  53.601 -54.564  1.00  0.00     0.016 A 
HETATM   20  C   UNL     1     -40.267  51.910 -54.331  1.00  0.00     0.014 A 
HETATM   21  C   UNL     1     -42.825  54.580 -53.982  1.00  0.00     0.036 A 
HETATM   22  C   UNL     1     -39.359  51.230 -53.524  1.00  0.00     0.001 A 
HETATM   23  C   UNL     1     -39.279  51.537 -52.170  1.00  0.00     0.002 A 
ENDBRANCH   1  14
BRANCH   2  24
HETATM   24  N   UNL     1     -44.541  54.406 -50.382  1.00  0.00    -0.248 NA
HETATM   25  H   UNL     1     -45.422  54.341 -49.855  1.00  0.00     0.143 HD
HETATM   26  H   UNL     1     -43.747  54.161 -49.790  1.00  0.00     0.143 HD
ENDBRANCH   2  24
TORSDOF 4
ENDMDL
MODEL 2
REMARK VINA RESULT:      -8.2      3.718      7.116
REMARK  4 active torsions:
REMARK  status: ('A' for Active; 'I' for Inactive)
REMARK    1  A    between atoms: C_4  and  N_5 
REMARK    2  A    between atoms: N_5  and  C_6 
REMARK    3  A    between atoms: C_6  and  C_7 
REMARK    4  A    between atoms: N_17  and  N_19 
ROOT
HETATM    1  C   UNL     1     -42.339  55.105 -54.540  1.00  0.00     0.145 C 
HETATM    2  N   UNL     1     -43.380  54.529 -53.924  1.00  0.00    -0.307 N 
HETATM    3  H   UNL     1     -43.146  53.850 -53.202  1.00  0.00     0.182 HD
ENDROOT
BRANCH   1   4
HETATM    4  N   UNL     1     -41.040  54.700 -54.086  1.00  0.00    -0.339 N 
HETATM    5  H   UNL     1     -40.304  55.374 -54.268  1.00  0.00     0.167 HD
BRANCH   4   6
HETATM    6  C   UNL     1     -40.595  53.518 -53.466  1.00  0.00     0.040 A 
HETATM    7  C   UNL     1     -40.275  52.386 -54.235  1.00  0.00     0.036 A 
HETATM    8  C   UNL     1     -39.769  51.219 -53.648  1.00  0.00    -0.060 A 
HETATM    9  C   UNL     1     -39.481  50.005 -54.482  1.00  0.00     0.048 C 
HETATM   10  C   UNL     1     -39.603  51.178 -52.264  1.00  0.00     0.007 A 
HETATM   11  C   UNL     1     -39.913  52.292 -51.484  1.00  0.00     0.009 A 
HETATM   12  C   UNL     1     -40.398  53.471 -52.073  1.00  0.00    -0.035 A 
HETATM   13  C   UNL     1     -40.704  54.648 -51.186  1.00  0.00     0.050 C 
ENDBRANCH   4   6
ENDBRANCH   1   4
BRANCH   1  14
HETATM   14  C   UNL     1     -42.415  56.085 -55.669  1.00  0.00     0.102 A 
HETATM   15  N   UNL     1     -42.752  55.580 -56.889  1.00  0.00    -0.245 NA
HETATM   16  C   UNL     1     -42.829  56.410 -57.947  1.00  0.00     0.068 A 
HETATM   17  C   UNL     1     -42.604  57.795 -57.836  1.00  0.00    -0.007 A 
HETATM   18  C   UNL     1     -43.143  55.895 -59.198  1.00  0.00     0.032 A 
HETATM   19  C   UNL     1     -42.290  58.306 -56.573  1.00  0.00     0.016 A 
HETATM   20  C   UNL     1     -42.700  58.624 -58.968  1.00  0.00     0.014 A 
HETATM   21  C   UNL     1     -42.199  57.448 -55.481  1.00  0.00     0.036 A 
HETATM   22  C   UNL     1     -43.018  58.082 -60.211  1.00  0.00     0.001 A 
HETATM   23  C   UNL     1     -43.239  56.714 -60.328  1.00  0.00     0.002 A 
ENDBRANCH   1  14
BRANCH   2  24
HETATM   24  N   UNL     1     -44.678  54.742 -54.346  1.00  0.00    -0.248 NA
HETATM   25  H   UNL     1     -45.299  53.987 -54.030  1.00  0.00     0.143 HD
HETATM   26  H   UNL     1     -44.722  54.847 -55.359  1.00  0.00     0.143 HD
ENDBRANCH   2  24
TORSDOF 4
ENDMDL
MODEL 3
REMARK VINA RESULT:      -8.2      1.619      2.649
REMARK  4 active torsions:
REMARK  status: ('A' for Active; 'I' for Inactive)
REMARK    1  A    between atoms: C_4  and  N_5 
REMARK    2  A    between atoms: N_5  and  C_6 
REMARK    3  A    between atoms: C_6  and  C_7 
REMARK    4  A    between atoms: N_17  and  N_19 
ROOT
HETATM    1  C   UNL     1     -41.326  55.597 -52.886  1.00  0.00     0.145 C 
HETATM    2  N   UNL     1     -41.225  56.185 -54.086  1.00  0.00    -0.307 N 
HETATM    3  H   UNL     1     -41.660  57.103 -54.166  1.00  0.00     0.182 HD
ENDROOT
BRANCH   1   4
HETATM    4  N   UNL     1     -42.015  56.347 -51.877  1.00  0.00    -0.339 N 
HETATM    5  H   UNL     1     -42.803  55.863 -51.460  1.00  0.00     0.167 HD
BRANCH   4   6
HETATM    6  C   UNL     1     -41.819  57.652 -51.387  1.00  0.00     0.040 A 
HETATM    7  C   UNL     1     -40.534  58.093 -51.028  1.00  0.00     0.036 A 
HETATM    8  C   UNL     1     -40.303  59.406 -50.597  1.00  0.00    -0.060 A 
HETATM    9  C   UNL     1     -38.932  59.842 -50.171  1.00  0.00     0.048 C 
HETATM   10  C   UNL     1     -41.382  60.286 -50.504  1.00  0.00     0.007 A 
HETATM   11  C   UNL     1     -42.664  59.866 -50.858  1.00  0.00     0.009 A 
HETATM   12  C   UNL     1     -42.895  58.557 -51.313  1.00  0.00    -0.035 A 
HETATM   13  C   UNL     1     -44.296  58.161 -51.695  1.00  0.00     0.050 C 
ENDBRANCH   4   6
ENDBRANCH   1   4
BRANCH   1  14
HETATM   14  C   UNL     1     -40.827  54.231 -52.530  1.00  0.00     0.102 A 
HETATM   15  N   UNL     1     -40.746  53.330 -53.548  1.00  0.00    -0.245 NA
HETATM   16  C   UNL     1     -40.313  52.081 -53.290  1.00  0.00     0.068 A 
HETATM   17  C   UNL     1     -39.906  51.676 -52.005  1.00  0.00    -0.007 A 
HETATM   18  C   UNL     1     -40.258  51.150 -54.320  1.00  0.00     0.032 A 
HETATM   19  C   UNL     1     -39.963  52.619 -50.975  1.00  0.00     0.016 A 
HETATM   20  C   UNL     1     -39.456  50.362 -51.783  1.00  0.00     0.014 A 
HETATM   21  C   UNL     1     -40.423  53.906 -51.237  1.00  0.00     0.036 A 
HETATM   22  C   UNL     1     -39.409  49.448 -52.834  1.00  0.00     0.001 A 
HETATM   23  C   UNL     1     -39.811  49.842 -54.105  1.00  0.00     0.002 A 
ENDBRANCH   1  14
BRANCH   2  24
HETATM   24  N   UNL     1     -40.692  55.522 -55.173  1.00  0.00    -0.248 NA
HETATM   25  H   UNL     1     -41.313  55.588 -55.990  1.00  0.00     0.143 HD
HETATM   26  H   UNL     1     -40.494  54.548 -54.949  1.00  0.00     0.143 HD
ENDBRANCH   2  24
TORSDOF 4
ENDMDL
MODEL 4
REMARK VINA RESULT:      -8.2      3.992      6.086
REMARK  4 active torsions:
REMARK  status: ('A' for Active; 'I' for Inactive)
REMARK    1  A    between atoms: C_4  and  N_5 
REMARK    2  A    between atoms: N_5  and  C_6 
REMARK    3  A    between atoms: C_6  and  C_7 
REMARK    4  A    between atoms: N_17  and  N_19 
ROOT
HETATM    1  C   UNL     1     -42.952  55.773 -55.518  1.00  0.00     0.145 C 
HETATM    2  N   UNL     1     -44.211  56.207 -55.372  1.00  0.00    -0.307 N 
HETATM    3  H   UNL     1     -44.590  56.735 -56.158  1.00  0.00     0.182 HD
ENDROOT
BRANCH   1   4
HETATM    4  N   UNL     1     -42.318  56.096 -56.763  1.00  0.00    -0.339 N 
HETATM    5  H   UNL     1     -41.304  56.089 -56.730  1.00  0.00     0.167 HD
BRANCH   4   6
HETATM    6  C   UNL     1     -42.849  56.458 -58.014  1.00  0.00     0.040 A 
HETATM    7  C   UNL     1     -43.552  55.521 -58.790  1.00  0.00     0.036 A 
HETATM    8  C   UNL     1     -44.145  55.874 -60.009  1.00  0.00    -0.060 A 
HETATM    9  C   UNL     1     -44.848  54.845 -60.844  1.00  0.00     0.048 C 
HETATM   10  C   UNL     1     -44.011  57.184 -60.470  1.00  0.00     0.007 A 
HETATM   11  C   UNL     1     -43.319  58.129 -59.713  1.00  0.00     0.009 A 
HETATM   12  C   UNL     1     -42.744  57.783 -58.479  1.00  0.00    -0.035 A 
HETATM   13  C   UNL     1     -42.019  58.846 -57.697  1.00  0.00     0.050 C 
ENDBRANCH   4   6
ENDBRANCH   1   4
BRANCH   1  14
HETATM   14  C   UNL     1     -42.152  55.031 -54.492  1.00  0.00     0.102 A 
HETATM   15  N   UNL     1     -41.695  53.800 -54.855  1.00  0.00    -0.245 NA
HETATM   16  C   UNL     1     -40.977  53.078 -53.972  1.00  0.00     0.068 A 
HETATM   17  C   UNL     1     -40.650  53.563 -52.692  1.00  0.00    -0.007 A 
HETATM   18  C   UNL     1     -40.534  51.810 -54.326  1.00  0.00     0.032 A 
HETATM   19  C   UNL     1     -41.097  54.840 -52.344  1.00  0.00     0.016 A 
HETATM   20  C   UNL     1     -39.893  52.776 -51.806  1.00  0.00     0.014 A 
HETATM   21  C   UNL     1     -41.850  55.583 -53.250  1.00  0.00     0.036 A 
HETATM   22  C   UNL     1     -39.460  51.508 -52.186  1.00  0.00     0.001 A 
HETATM   23  C   UNL     1     -39.782  51.023 -53.449  1.00  0.00     0.002 A 
ENDBRANCH   1  14
BRANCH   2  24
HETATM   24  N   UNL     1     -44.891  56.067 -54.179  1.00  0.00    -0.248 NA
HETATM   25  H   UNL     1     -45.563  55.290 -54.224  1.00  0.00     0.143 HD
HETATM   26  H   UNL     1     -45.359  56.934 -53.919  1.00  0.00     0.143 HD
ENDBRANCH   2  24
TORSDOF 4
ENDMDL
MODEL 5
REMARK VINA RESULT:      -8.1      1.455      7.157
REMARK  4 active torsions:
REMARK  status: ('A' for Active; 'I' for Inactive)
REMARK    1  A    between atoms: C_4  and  N_5 
REMARK    2  A    between atoms: N_5  and  C_6 
REMARK    3  A    between atoms: C_6  and  C_7 
REMARK    4  A    between atoms: N_17  and  N_19 
ROOT
HETATM    1  C   UNL     1     -42.190  55.131 -53.461  1.00  0.00     0.145 C 
HETATM    2  N   UNL     1     -43.083  54.431 -54.175  1.00  0.00    -0.307 N 
HETATM    3  H   UNL     1     -42.742  53.558 -54.573  1.00  0.00     0.182 HD
ENDROOT
BRANCH   1   4
HETATM    4  N   UNL     1     -40.887  54.545 -53.341  1.00  0.00    -0.339 N 
HETATM    5  H   UNL     1     -40.125  55.160 -53.606  1.00  0.00     0.167 HD
BRANCH   4   6
HETATM    6  C   UNL     1     -40.474  53.256 -52.957  1.00  0.00     0.040 A 
HETATM    7  C   UNL     1     -40.309  52.244 -53.918  1.00  0.00     0.036 A 
HETATM    8  C   UNL     1     -39.839  50.971 -53.569  1.00  0.00    -0.060 A 
HETATM    9  C   UNL     1     -39.717  49.891 -54.604  1.00  0.00     0.048 C 
HETATM   10  C   UNL     1     -39.550  50.701 -52.232  1.00  0.00     0.007 A 
HETATM   11  C   UNL     1     -39.707  51.693 -51.264  1.00  0.00     0.009 A 
HETATM   12  C   UNL     1     -40.155  52.977 -51.614  1.00  0.00    -0.035 A 
HETATM   13  C   UNL     1     -40.293  54.014 -50.532  1.00  0.00     0.050 C 
ENDBRANCH   4   6
ENDBRANCH   1   4
BRANCH   1  14
HETATM   14  C   UNL     1     -42.423  56.467 -52.826  1.00  0.00     0.102 A 
HETATM   15  N   UNL     1     -43.641  56.659 -52.248  1.00  0.00    -0.245 NA
HETATM   16  C   UNL     1     -43.916  57.844 -51.668  1.00  0.00     0.068 A 
HETATM   17  C   UNL     1     -42.974  58.887 -51.605  1.00  0.00    -0.007 A 
HETATM   18  C   UNL     1     -45.167  58.055 -51.104  1.00  0.00     0.032 A 
HETATM   19  C   UNL     1     -41.716  58.666 -52.173  1.00  0.00     0.016 A 
HETATM   20  C   UNL     1     -43.302  60.106 -50.985  1.00  0.00     0.014 A 
HETATM   21  C   UNL     1     -41.435  57.447 -52.784  1.00  0.00     0.036 A 
HETATM   22  C   UNL     1     -44.565  60.292 -50.426  1.00  0.00     0.001 A 
HETATM   23  C   UNL     1     -45.500  59.265 -50.486  1.00  0.00     0.002 A 
ENDBRANCH   1  14
BRANCH   2  24
HETATM   24  N   UNL     1     -44.333  54.939 -54.466  1.00  0.00    -0.248 NA
HETATM   25  H   UNL     1     -45.058  54.216 -54.371  1.00  0.00     0.143 HD
HETATM   26  H   UNL     1     -44.354  55.352 -55.397  1.00  0.00     0.143 HD
ENDBRANCH   2  24
TORSDOF 4
ENDMDL
MODEL 6
REMARK VINA RESULT:      -8.1      3.224      6.597
REMARK  4 active torsions:
REMARK  status: ('A' for Active; 'I' for Inactive)
REMARK    1  A    between atoms: C_4  and  N_5 
REMARK    2  A    between atoms: N_5  and  C_6 
REMARK    3  A    between atoms: C_6  and  C_7 
REMARK    4  A    between atoms: N_17  and  N_19 
ROOT
HETATM    1  C   UNL     1     -41.978  55.190 -52.842  1.00  0.00     0.145 C 
HETATM    2  N   UNL     1     -42.724  55.604 -51.808  1.00  0.00    -0.307 N 
HETATM    3  H   UNL     1     -42.342  55.411 -50.883  1.00  0.00     0.182 HD
ENDROOT
BRANCH   1   4
HETATM    4  N   UNL     1     -40.740  54.550 -52.504  1.00  0.00    -0.339 N 
HETATM    5  H   UNL     1     -39.956  55.185 -52.400  1.00  0.00     0.167 HD
BRANCH   4   6
HETATM    6  C   UNL     1     -40.407  53.194 -52.329  1.00  0.00     0.040 A 
HETATM    7  C   UNL     1     -40.212  52.358 -53.441  1.00  0.00     0.036 A 
HETATM    8  C   UNL     1     -39.818  51.022 -53.294  1.00  0.00    -0.060 A 
HETATM    9  C   UNL     1     -39.663  50.133 -54.493  1.00  0.00     0.048 C 
HETATM   10  C   UNL     1     -39.638  50.509 -52.009  1.00  0.00     0.007 A 
HETATM   11  C   UNL     1     -39.825  51.324 -50.893  1.00  0.00     0.009 A 
HETATM   12  C   UNL     1     -40.197  52.671 -51.039  1.00  0.00    -0.035 A 
HETATM   13  C   UNL     1     -40.372  53.510 -49.801  1.00  0.00     0.050 C 
ENDBRANCH   4   6
ENDBRANCH   1   4
BRANCH   1  14
HETATM   14  C   UNL     1     -42.342  55.299 -54.290  1.00  0.00     0.102 A 
HETATM   15  N   UNL     1     -42.105  56.501 -54.886  1.00  0.00    -0.245 NA
HETATM   16  C   UNL     1     -42.419  56.665 -56.186  1.00  0.00     0.068 A 
HETATM   17  C   UNL     1     -42.958  55.627 -56.967  1.00  0.00    -0.007 A 
HETATM   18  C   UNL     1     -42.207  57.898 -56.789  1.00  0.00     0.032 A 
HETATM   19  C   UNL     1     -43.168  54.389 -56.352  1.00  0.00     0.016 A 
HETATM   20  C   UNL     1     -43.267  55.843 -58.322  1.00  0.00     0.014 A 
HETATM   21  C   UNL     1     -42.855  54.220 -55.006  1.00  0.00     0.036 A 
HETATM   22  C   UNL     1     -43.042  57.088 -58.904  1.00  0.00     0.001 A 
HETATM   23  C   UNL     1     -42.512  58.119 -58.136  1.00  0.00     0.002 A 
ENDBRANCH   1  14
BRANCH   2  24
HETATM   24  N   UNL     1     -43.989  56.126 -51.992  1.00  0.00    -0.248 NA
HETATM   25  H   UNL     1     -44.299  56.013 -52.966  1.00  0.00     0.143 HD
HETATM   26  H   UNL     1     -44.026  57.105 -51.712  1.00  0.00     0.143 HD
ENDBRANCH   2  24
TORSDOF 4
ENDMDL
MODEL 7
REMARK VINA RESULT:      -7.9      3.474      7.189
REMARK  4 active torsions:
REMARK  status: ('A' for Active; 'I' for Inactive)
REMARK    1  A    between atoms: C_4  and  N_5 
REMARK    2  A    between atoms: N_5  and  C_6 
REMARK    3  A    between atoms: C_6  and  C_7 
REMARK    4  A    between atoms: N_17  and  N_19 
ROOT
HETATM    1  C   UNL     1     -42.076  55.284 -54.123  1.00  0.00     0.145 C 
HETATM    2  N   UNL     1     -43.142  54.504 -53.897  1.00  0.00    -0.307 N 
HETATM    3  H   UNL     1     -42.946  53.607 -53.455  1.00  0.00     0.182 HD
ENDROOT
BRANCH   1   4
HETATM    4  N   UNL     1     -40.812  54.757 -53.697  1.00  0.00    -0.339 N 
HETATM    5  H   UNL     1     -40.034  55.399 -53.801  1.00  0.00     0.167 HD
BRANCH   4   6
HETATM    6  C   UNL     1     -40.449  53.494 -53.193  1.00  0.00     0.040 A 
HETATM    7  C   UNL     1     -40.208  52.420 -54.067  1.00  0.00     0.036 A 
HETATM    8  C   UNL     1     -39.784  51.172 -53.594  1.00  0.00    -0.060 A 
HETATM    9  C   UNL     1     -39.580  50.025 -54.540  1.00  0.00     0.048 C 
HETATM   10  C   UNL     1     -39.621  50.989 -52.221  1.00  0.00     0.007 A 
HETATM   11  C   UNL     1     -39.854  52.044 -51.338  1.00  0.00     0.009 A 
HETATM   12  C   UNL     1     -40.256  53.304 -51.811  1.00  0.00    -0.035 A 
HETATM   13  C   UNL     1     -40.481  54.411 -50.817  1.00  0.00     0.050 C 
ENDBRANCH   4   6
ENDBRANCH   1   4
BRANCH   1  14
HETATM   14  C   UNL     1     -42.088  56.615 -54.809  1.00  0.00     0.102 A 
HETATM   15  N   UNL     1     -42.264  56.599 -56.160  1.00  0.00    -0.245 NA
HETATM   16  C   UNL     1     -42.275  57.765 -56.837  1.00  0.00     0.068 A 
HETATM   17  C   UNL     1     -42.143  59.010 -56.194  1.00  0.00    -0.007 A 
HETATM   18  C   UNL     1     -42.424  57.752 -58.217  1.00  0.00     0.032 A 
HETATM   19  C   UNL     1     -41.995  59.014 -54.803  1.00  0.00     0.016 A 
HETATM   20  C   UNL     1     -42.165  60.201 -56.940  1.00  0.00     0.014 A 
HETATM   21  C   UNL     1     -41.971  57.810 -54.104  1.00  0.00     0.036 A 
HETATM   22  C   UNL     1     -42.318  60.161 -58.324  1.00  0.00     0.001 A 
HETATM   23  C   UNL     1     -42.446  58.934 -58.965  1.00  0.00     0.002 A 
ENDBRANCH   1  14
BRANCH   2  24
HETATM   24  N   UNL     1     -44.396  54.841 -54.365  1.00  0.00    -0.248 NA
HETATM   25  H   UNL     1     -44.417  54.854 -55.394  1.00  0.00     0.143 HD
HETATM   26  H   UNL     1     -44.702  55.736 -53.986  1.00  0.00     0.143 HD
ENDBRANCH   2  24
TORSDOF 4
ENDMDL
MODEL 8
REMARK VINA RESULT:      -7.7     15.470     17.357
REMARK  4 active torsions:
REMARK  status: ('A' for Active; 'I' for Inactive)
REMARK    1  A    between atoms: C_4  and  N_5 
REMARK    2  A    between atoms: N_5  and  C_6 
REMARK    3  A    between atoms: C_6  and  C_7 
REMARK    4  A    between atoms: N_17  and  N_19 
ROOT
HETATM    1  C   UNL     1     -37.146  40.728 -52.714  1.00  0.00     0.145 C 
HETATM    2  N   UNL     1     -38.239  41.001 -51.989  1.00  0.00    -0.307 N 
HETATM    3  H   UNL     1     -38.260  40.598 -51.053  1.00  0.00     0.182 HD
ENDROOT
BRANCH   1   4
HETATM    4  N   UNL     1     -36.150  39.924 -52.068  1.00  0.00    -0.339 N 
HETATM    5  H   UNL     1     -36.508  39.324 -51.333  1.00  0.00     0.167 HD
BRANCH   4   6
HETATM    6  C   UNL     1     -34.756  39.845 -52.244  1.00  0.00     0.040 A 
HETATM    7  C   UNL     1     -34.189  38.797 -52.988  1.00  0.00     0.036 A 
HETATM    8  C   UNL     1     -32.810  38.732 -53.231  1.00  0.00    -0.060 A 
HETATM    9  C   UNL     1     -32.220  37.577 -53.986  1.00  0.00     0.048 C 
HETATM   10  C   UNL     1     -31.984  39.722 -52.699  1.00  0.00     0.007 A 
HETATM   11  C   UNL     1     -32.529  40.771 -51.959  1.00  0.00     0.009 A 
HETATM   12  C   UNL     1     -33.913  40.852 -51.735  1.00  0.00    -0.035 A 
HETATM   13  C   UNL     1     -34.450  42.013 -50.941  1.00  0.00     0.050 C 
ENDBRANCH   4   6
ENDBRANCH   1   4
BRANCH   1  14
HETATM   14  C   UNL     1     -36.901  41.149 -54.130  1.00  0.00     0.102 A 
HETATM   15  N   UNL     1     -37.667  40.547 -55.082  1.00  0.00    -0.245 NA
HETATM   16  C   UNL     1     -37.488  40.877 -56.377  1.00  0.00     0.068 A 
HETATM   17  C   UNL     1     -36.556  41.849 -56.784  1.00  0.00    -0.007 A 
HETATM   18  C   UNL     1     -38.245  40.244 -57.354  1.00  0.00     0.032 A 
HETATM   19  C   UNL     1     -35.798  42.483 -55.794  1.00  0.00     0.016 A 
HETATM   20  C   UNL     1     -36.406  42.165 -58.146  1.00  0.00     0.014 A 
HETATM   21  C   UNL     1     -35.973  42.135 -54.457  1.00  0.00     0.036 A 
HETATM   22  C   UNL     1     -37.180  41.517 -59.106  1.00  0.00     0.001 A 
HETATM   23  C   UNL     1     -38.101  40.553 -58.710  1.00  0.00     0.002 A 
ENDBRANCH   1  14
BRANCH   2  24
HETATM   24  N   UNL     1     -39.322  41.662 -52.533  1.00  0.00    -0.248 NA
HETATM   25  H   UNL     1     -39.266  41.683 -53.559  1.00  0.00     0.143 HD
HETATM   26  H   UNL     1     -39.403  42.606 -52.156  1.00  0.00     0.143 HD
ENDBRANCH   2  24
TORSDOF 4
ENDMDL
MODEL 9
REMARK VINA RESULT:      -7.5      3.589      5.627
REMARK  4 active torsions:
REMARK  status: ('A' for Active; 'I' for Inactive)
REMARK    1  A    between atoms: C_4  and  N_5 
REMARK    2  A    between atoms: N_5  and  C_6 
REMARK    3  A    between atoms: C_6  and  C_7 
REMARK    4  A    between atoms: N_17  and  N_19 
ROOT
HETATM    1  C   UNL     1     -41.846  57.007 -54.666  1.00  0.00     0.145 C 
HETATM    2  N   UNL     1     -41.429  58.162 -54.130  1.00  0.00    -0.307 N 
HETATM    3  H   UNL     1     -41.903  59.000 -54.465  1.00  0.00     0.182 HD
ENDROOT
BRANCH   1   4
HETATM    4  N   UNL     1     -42.909  57.107 -55.622  1.00  0.00    -0.339 N 
HETATM    5  H   UNL     1     -43.829  57.228 -55.214  1.00  0.00     0.167 HD
BRANCH   4   6
HETATM    6  C   UNL     1     -42.911  57.028 -57.027  1.00  0.00     0.040 A 
HETATM    7  C   UNL     1     -43.433  55.898 -57.678  1.00  0.00     0.036 A 
HETATM    8  C   UNL     1     -43.505  55.823 -59.075  1.00  0.00    -0.060 A 
HETATM    9  C   UNL     1     -44.019  54.586 -59.750  1.00  0.00     0.048 C 
HETATM   10  C   UNL     1     -43.025  56.891 -59.833  1.00  0.00     0.007 A 
HETATM   11  C   UNL     1     -42.505  58.023 -59.205  1.00  0.00     0.009 A 
HETATM   12  C   UNL     1     -42.454  58.110 -57.804  1.00  0.00    -0.035 A 
HETATM   13  C   UNL     1     -41.896  59.360 -57.178  1.00  0.00     0.050 C 
ENDBRANCH   4   6
ENDBRANCH   1   4
BRANCH   1  14
HETATM   14  C   UNL     1     -41.276  55.651 -54.386  1.00  0.00     0.102 A 
HETATM   15  N   UNL     1     -41.239  55.266 -53.079  1.00  0.00    -0.245 NA
HETATM   16  C   UNL     1     -40.729  54.060 -52.762  1.00  0.00     0.068 A 
HETATM   17  C   UNL     1     -40.258  53.161 -53.737  1.00  0.00    -0.007 A 
HETATM   18  C   UNL     1     -40.662  53.676 -51.428  1.00  0.00     0.032 A 
HETATM   19  C   UNL     1     -40.331  53.555 -55.076  1.00  0.00     0.016 A 
HETATM   20  C   UNL     1     -39.738  51.911 -53.359  1.00  0.00     0.014 A 
HETATM   21  C   UNL     1     -40.846  54.805 -55.405  1.00  0.00     0.036 A 
HETATM   22  C   UNL     1     -39.684  51.549 -52.015  1.00  0.00     0.001 A 
HETATM   23  C   UNL     1     -40.146  52.434 -51.047  1.00  0.00     0.002 A 
ENDBRANCH   1  14
BRANCH   2  24
HETATM   24  N   UNL     1     -40.337  58.217 -53.288  1.00  0.00    -0.248 NA
HETATM   25  H   UNL     1     -40.618  58.459 -52.329  1.00  0.00     0.143 HD
HETATM   26  H   UNL     1     -39.638  58.873 -53.636  1.00  0.00     0.143 HD
ENDBRANCH   2  24
TORSDOF 4
ENDMDL
MODEL 10
REMARK VINA RESULT:      -7.5      1.674      6.670
REMARK  4 active torsions:
REMARK  status: ('A' for Active; 'I' for Inactive)
REMARK    1  A    between atoms: C_4  and  N_5 
REMARK    2  A    between atoms: N_5  and  C_6 
REMARK    3  A    between atoms: C_6  and  C_7 
REMARK    4  A    between atoms: N_17  and  N_19 
ROOT
HETATM    1  C   UNL     1     -43.899  55.778 -53.260  1.00  0.00     0.145 C 
HETATM    2  N   UNL     1     -44.565  55.705 -54.421  1.00  0.00    -0.307 N 
HETATM    3  H   UNL     1     -44.724  54.765 -54.780  1.00  0.00     0.182 HD
ENDROOT
BRANCH   1   4
HETATM    4  N   UNL     1     -43.521  54.525 -52.675  1.00  0.00    -0.339 N 
HETATM    5  H   UNL     1     -44.261  53.832 -52.655  1.00  0.00     0.167 HD
BRANCH   4   6
HETATM    6  C   UNL     1     -42.316  54.095 -52.088  1.00  0.00     0.040 A 
HETATM    7  C   UNL     1     -42.084  54.285 -50.715  1.00  0.00     0.036 A 
HETATM    8  C   UNL     1     -40.921  53.810 -50.095  1.00  0.00    -0.060 A 
HETATM    9  C   UNL     1     -40.671  54.068 -48.638  1.00  0.00     0.048 C 
HETATM   10  C   UNL     1     -39.965  53.152 -50.868  1.00  0.00     0.007 A 
HETATM   11  C   UNL     1     -40.179  52.952 -52.232  1.00  0.00     0.009 A 
HETATM   12  C   UNL     1     -41.354  53.407 -52.851  1.00  0.00    -0.035 A 
HETATM   13  C   UNL     1     -41.540  53.152 -54.323  1.00  0.00     0.050 C 
ENDBRANCH   4   6
ENDBRANCH   1   4
BRANCH   1  14
HETATM   14  C   UNL     1     -43.489  57.036 -52.558  1.00  0.00     0.102 A 
HETATM   15  N   UNL     1     -44.474  57.714 -51.905  1.00  0.00    -0.245 NA
HETATM   16  C   UNL     1     -44.171  58.858 -51.261  1.00  0.00     0.068 A 
HETATM   17  C   UNL     1     -42.860  59.368 -51.209  1.00  0.00    -0.007 A 
HETATM   18  C   UNL     1     -45.177  59.569 -50.620  1.00  0.00     0.032 A 
HETATM   19  C   UNL     1     -41.853  58.645 -51.855  1.00  0.00     0.016 A 
HETATM   20  C   UNL     1     -42.589  60.563 -50.521  1.00  0.00     0.014 A 
HETATM   21  C   UNL     1     -42.167  57.470 -52.531  1.00  0.00     0.036 A 
HETATM   22  C   UNL     1     -43.616  61.256 -49.884  1.00  0.00     0.001 A 
HETATM   23  C   UNL     1     -44.914  60.759 -49.934  1.00  0.00     0.002 A 
ENDBRANCH   1  14
BRANCH   2  24
HETATM   24  N   UNL     1     -44.881  56.837 -55.146  1.00  0.00    -0.248 NA
HETATM   25  H   UNL     1     -44.074  57.469 -55.218  1.00  0.00     0.143 HD
HETATM   26  H   UNL     1     -45.683  57.319 -54.741  1.00  0.00     0.143 HD
ENDBRANCH   2  24
TORSDOF 4
ENDMDL
