MODEL 1
REMARK VINA RESULT:      -7.8      0.000      0.000
REMARK  5 active torsions:
REMARK  status: ('A' for Active; 'I' for Inactive)
REMARK    1  A    between atoms: C_2  and  O_3 
REMARK    2  A    between atoms: C_4  and  C_5 
REMARK    3  A    between atoms: C_5  and  O_6 
REMARK    4  A    between atoms: C_9  and  C_10 
REMARK    5  A    between atoms: C_22  and  O_23 
ROOT
HETATM    1  C   UNL     1     -42.639  56.651 -55.192  1.00  0.00     0.047 C 
HETATM    2  C   UNL     1     -42.284  57.629 -54.061  1.00  0.00     0.073 C 
HETATM    3  C   UNL     1     -41.050  57.127 -53.239  1.00  0.00     0.133 C 
HETATM    4  C   UNL     1     -41.301  55.997 -52.194  1.00  0.00     0.074 C 
HETATM    5  C   UNL     1     -42.693  56.031 -51.664  1.00  0.00     0.030 A 
HETATM    6  C   UNL     1     -43.675  56.880 -52.129  1.00  0.00     0.042 A 
HETATM    7  N   UNL     1     -44.787  56.653 -51.369  1.00  0.00    -0.279 N 
HETATM    8  H   UNL     1     -45.696  57.105 -51.422  1.00  0.00     0.189 HD
HETATM    9  N   UNL     1     -44.588  55.716 -50.418  1.00  0.00    -0.149 NA
HETATM   10  C   UNL     1     -43.319  55.379 -50.602  1.00  0.00     0.190 A 
HETATM   11  C   UNL     1     -43.541  57.904 -53.190  1.00  0.00     0.097 C 
ENDROOT
BRANCH   4  12
HETATM   12  C   UNL     1     -41.002  54.603 -52.740  1.00  0.00    -0.048 A 
HETATM   13  C   UNL     1     -40.312  53.709 -51.897  1.00  0.00     0.009 A 
HETATM   14  C   UNL     1     -39.989  52.416 -52.318  1.00  0.00     0.019 A 
HETATM   15  C   UNL     1     -40.345  51.998 -53.596  1.00  0.00     0.011 A 
HETATM   16 BR   UNL     1     -39.913  50.251 -54.170  1.00  0.00    -0.051 Br
HETATM   17  C   UNL     1     -41.021  52.861 -54.452  1.00  0.00     0.019 A 
HETATM   18  C   UNL     1     -41.347  54.153 -54.026  1.00  0.00     0.009 A 
ENDBRANCH   4  12
BRANCH   3  19
HETATM   19  C   UNL     1     -40.364  58.297 -52.557  1.00  0.00     0.266 C 
HETATM   20  O   UNL     1     -39.761  59.162 -53.183  1.00  0.00    -0.265 OA
BRANCH  19  21
HETATM   21  O   UNL     1     -40.508  58.279 -51.207  1.00  0.00    -0.326 OA
HETATM   22  C   UNL     1     -41.122  59.446 -50.659  1.00  0.00     0.213 C 
ENDBRANCH  19  21
ENDBRANCH   3  19
BRANCH   2  23
HETATM   23  O   UNL     1     -41.961  58.864 -54.732  1.00  0.00    -0.389 OA
HETATM   24  H   UNL     1     -42.761  59.419 -54.770  1.00  0.00     0.210 HD
ENDBRANCH   2  23
BRANCH  10  25
HETATM   25  O   UNL     1     -42.837  54.483 -49.748  1.00  0.00    -0.343 OA
HETATM   26  H   UNL     1     -43.622  54.128 -49.297  1.00  0.00     0.219 HD
ENDBRANCH  10  25
TORSDOF 5
ENDMDL
MODEL 2
REMARK VINA RESULT:      -7.1      2.879      4.195
REMARK  5 active torsions:
REMARK  status: ('A' for Active; 'I' for Inactive)
REMARK    1  A    between atoms: C_2  and  O_3 
REMARK    2  A    between atoms: C_4  and  C_5 
REMARK    3  A    between atoms: C_5  and  O_6 
REMARK    4  A    between atoms: C_9  and  C_10 
REMARK    5  A    between atoms: C_22  and  O_23 
ROOT
HETATM    1  C   UNL     1     -40.528  58.291 -53.415  1.00  0.00     0.047 C 
HETATM    2  C   UNL     1     -41.989  58.711 -53.642  1.00  0.00     0.073 C 
HETATM    3  C   UNL     1     -42.967  57.505 -53.445  1.00  0.00     0.133 C 
HETATM    4  C   UNL     1     -43.072  56.475 -54.611  1.00  0.00     0.074 C 
HETATM    5  C   UNL     1     -42.782  57.100 -55.931  1.00  0.00     0.030 A 
HETATM    6  C   UNL     1     -42.353  58.400 -56.092  1.00  0.00     0.042 A 
HETATM    7  N   UNL     1     -42.246  58.619 -57.436  1.00  0.00    -0.279 N 
HETATM    8  H   UNL     1     -41.968  59.467 -57.921  1.00  0.00     0.189 HD
HETATM    9  N   UNL     1     -42.598  57.543 -58.171  1.00  0.00    -0.149 NA
HETATM   10  C   UNL     1     -42.938  56.656 -57.245  1.00  0.00     0.190 A 
HETATM   11  C   UNL     1     -42.127  59.404 -55.027  1.00  0.00     0.097 C 
ENDROOT
BRANCH   4  12
HETATM   12  C   UNL     1     -42.169  55.259 -54.416  1.00  0.00    -0.048 A 
HETATM   13  C   UNL     1     -42.516  54.348 -53.399  1.00  0.00     0.009 A 
HETATM   14  C   UNL     1     -41.740  53.213 -53.146  1.00  0.00     0.019 A 
HETATM   15  C   UNL     1     -40.598  52.975 -53.903  1.00  0.00     0.011 A 
HETATM   16 BR   UNL     1     -39.548  51.441 -53.567  1.00  0.00    -0.051 Br
HETATM   17  C   UNL     1     -40.228  53.861 -54.910  1.00  0.00     0.019 A 
HETATM   18  C   UNL     1     -41.009  54.993 -55.164  1.00  0.00     0.009 A 
ENDBRANCH   4  12
BRANCH   3  19
HETATM   19  C   UNL     1     -44.355  58.009 -53.094  1.00  0.00     0.266 C 
HETATM   20  O   UNL     1     -45.163  58.360 -53.948  1.00  0.00    -0.265 OA
BRANCH  19  21
HETATM   21  O   UNL     1     -44.594  58.010 -51.757  1.00  0.00    -0.326 OA
HETATM   22  C   UNL     1     -44.102  56.862 -51.065  1.00  0.00     0.213 C 
ENDBRANCH  19  21
ENDBRANCH   3  19
BRANCH   2  23
HETATM   23  O   UNL     1     -42.240  59.719 -52.643  1.00  0.00    -0.389 OA
HETATM   24  H   UNL     1     -42.363  60.578 -53.087  1.00  0.00     0.210 HD
ENDBRANCH   2  23
BRANCH  10  25
HETATM   25  O   UNL     1     -43.380  55.491 -57.705  1.00  0.00    -0.343 OA
HETATM   26  H   UNL     1     -44.348  55.577 -57.698  1.00  0.00     0.219 HD
ENDBRANCH  10  25
TORSDOF 5
ENDMDL
MODEL 3
REMARK VINA RESULT:      -7.0      2.554      4.283
REMARK  5 active torsions:
REMARK  status: ('A' for Active; 'I' for Inactive)
REMARK    1  A    between atoms: C_2  and  O_3 
REMARK    2  A    between atoms: C_4  and  C_5 
REMARK    3  A    between atoms: C_5  and  O_6 
REMARK    4  A    between atoms: C_9  and  C_10 
REMARK    5  A    between atoms: C_22  and  O_23 
ROOT
HETATM    1  C   UNL     1     -44.825  56.475 -54.044  1.00  0.00     0.047 C 
HETATM    2  C   UNL     1     -44.367  57.505 -55.089  1.00  0.00     0.073 C 
HETATM    3  C   UNL     1     -43.034  57.063 -55.781  1.00  0.00     0.133 C 
HETATM    4  C   UNL     1     -41.712  57.272 -54.981  1.00  0.00     0.074 C 
HETATM    5  C   UNL     1     -41.814  58.415 -54.031  1.00  0.00     0.030 A 
HETATM    6  C   UNL     1     -42.974  59.124 -53.798  1.00  0.00     0.042 A 
HETATM    7  N   UNL     1     -42.661  60.117 -52.913  1.00  0.00    -0.279 N 
HETATM    8  H   UNL     1     -43.265  60.836 -52.525  1.00  0.00     0.189 HD
HETATM    9  N   UNL     1     -41.357  60.113 -52.564  1.00  0.00    -0.149 NA
HETATM   10  C   UNL     1     -40.868  59.100 -53.267  1.00  0.00     0.190 A 
HETATM   11  C   UNL     1     -44.292  58.914 -54.438  1.00  0.00     0.097 C 
ENDROOT
BRANCH   4  12
HETATM   12  C   UNL     1     -41.269  56.023 -54.224  1.00  0.00    -0.048 A 
HETATM   13  C   UNL     1     -40.671  54.988 -54.971  1.00  0.00     0.009 A 
HETATM   14  C   UNL     1     -40.243  53.805 -54.361  1.00  0.00     0.019 A 
HETATM   15  C   UNL     1     -40.413  53.636 -52.991  1.00  0.00     0.011 A 
HETATM   16 BR   UNL     1     -39.834  52.041 -52.161  1.00  0.00    -0.051 Br
HETATM   17  C   UNL     1     -41.005  54.638 -52.230  1.00  0.00     0.019 A 
HETATM   18  C   UNL     1     -41.428  55.822 -52.843  1.00  0.00     0.009 A 
ENDBRANCH   4  12
BRANCH   3  19
HETATM   19  C   UNL     1     -42.907  57.722 -57.142  1.00  0.00     0.266 C 
HETATM   20  O   UNL     1     -42.293  58.771 -57.310  1.00  0.00    -0.265 OA
BRANCH  19  21
HETATM   21  O   UNL     1     -43.526  57.024 -58.127  1.00  0.00    -0.326 OA
HETATM   22  C   UNL     1     -43.208  55.632 -58.158  1.00  0.00     0.213 C 
ENDBRANCH  19  21
ENDBRANCH   3  19
BRANCH   2  23
HETATM   23  O   UNL     1     -45.436  57.546 -56.056  1.00  0.00    -0.389 OA
HETATM   24  H   UNL     1     -45.810  56.651 -56.148  1.00  0.00     0.210 HD
ENDBRANCH   2  23
BRANCH  10  25
HETATM   25  O   UNL     1     -39.562  58.897 -53.144  1.00  0.00    -0.343 OA
HETATM   26  H   UNL     1     -39.318  59.364 -52.328  1.00  0.00     0.219 HD
ENDBRANCH  10  25
TORSDOF 5
ENDMDL
MODEL 4
REMARK VINA RESULT:      -6.8     16.605     18.808
REMARK  5 active torsions:
REMARK  status: ('A' for Active; 'I' for Inactive)
REMARK    1  A    between atoms: C_2  and  O_3 
REMARK    2  A    between atoms: C_4  and  C_5 
REMARK    3  A    between atoms: C_5  and  O_6 
REMARK    4  A    between atoms: C_9  and  C_10 
REMARK    5  A    between atoms: C_22  and  O_23 
ROOT
HETATM    1  C   UNL     1     -34.900  37.852 -53.691  1.00  0.00     0.047 C 
HETATM    2  C   UNL     1     -33.757  38.488 -52.883  1.00  0.00     0.073 C 
HETATM    3  C   UNL     1     -33.640  40.022 -53.170  1.00  0.00     0.133 C 
HETATM    4  C   UNL     1     -32.948  40.447 -54.502  1.00  0.00     0.074 C 
HETATM    5  C   UNL     1     -31.948  39.439 -54.953  1.00  0.00     0.030 A 
HETATM    6  C   UNL     1     -31.745  38.223 -54.336  1.00  0.00     0.042 A 
HETATM    7  N   UNL     1     -30.722  37.607 -54.999  1.00  0.00    -0.279 N 
HETATM    8  H   UNL     1     -30.298  36.703 -54.814  1.00  0.00     0.189 HD
HETATM    9  N   UNL     1     -30.226  38.356 -56.007  1.00  0.00    -0.149 NA
HETATM   10  C   UNL     1     -30.962  39.458 -55.941  1.00  0.00     0.190 A 
HETATM   11  C   UNL     1     -32.438  37.705 -53.134  1.00  0.00     0.097 C 
ENDROOT
BRANCH   4  12
HETATM   12  C   UNL     1     -33.940  40.715 -55.631  1.00  0.00    -0.048 A 
HETATM   13  C   UNL     1     -34.562  41.979 -55.662  1.00  0.00     0.009 A 
HETATM   14  C   UNL     1     -35.491  42.307 -56.655  1.00  0.00     0.019 A 
HETATM   15  C   UNL     1     -35.816  41.371 -57.630  1.00  0.00     0.011 A 
HETATM   16 BR   UNL     1     -37.068  41.810 -58.975  1.00  0.00    -0.051 Br
HETATM   17  C   UNL     1     -35.222  40.114 -57.621  1.00  0.00     0.019 A 
HETATM   18  C   UNL     1     -34.290  39.790 -56.628  1.00  0.00     0.009 A 
ENDBRANCH   4  12
BRANCH   3  19
HETATM   19  C   UNL     1     -32.962  40.723 -52.007  1.00  0.00     0.266 C 
HETATM   20  O   UNL     1     -31.743  40.842 -51.931  1.00  0.00    -0.265 OA
BRANCH  19  21
HETATM   21  O   UNL     1     -33.843  41.201 -51.093  1.00  0.00    -0.326 OA
HETATM   22  C   UNL     1     -34.974  41.870 -51.651  1.00  0.00     0.213 C 
ENDBRANCH  19  21
ENDBRANCH   3  19
BRANCH   2  23
HETATM   23  O   UNL     1     -34.117  38.270 -51.504  1.00  0.00    -0.389 OA
HETATM   24  H   UNL     1     -33.303  38.231 -50.970  1.00  0.00     0.210 HD
ENDBRANCH   2  23
BRANCH  10  25
HETATM   25  O   UNL     1     -30.646  40.408 -56.813  1.00  0.00    -0.343 OA
HETATM   26  H   UNL     1     -30.521  41.206 -56.271  1.00  0.00     0.219 HD
ENDBRANCH  10  25
TORSDOF 5
ENDMDL
MODEL 5
REMARK VINA RESULT:      -6.7      3.215      4.703
REMARK  5 active torsions:
REMARK  status: ('A' for Active; 'I' for Inactive)
REMARK    1  A    between atoms: C_2  and  O_3 
REMARK    2  A    between atoms: C_4  and  C_5 
REMARK    3  A    between atoms: C_5  and  O_6 
REMARK    4  A    between atoms: C_9  and  C_10 
REMARK    5  A    between atoms: C_22  and  O_23 
ROOT
HETATM    1  C   UNL     1     -44.529  57.172 -53.525  1.00  0.00     0.047 C 
HETATM    2  C   UNL     1     -43.202  57.752 -53.009  1.00  0.00     0.073 C 
HETATM    3  C   UNL     1     -42.295  58.238 -54.189  1.00  0.00     0.133 C 
HETATM    4  C   UNL     1     -41.519  57.147 -54.988  1.00  0.00     0.074 C 
HETATM    5  C   UNL     1     -41.220  55.953 -54.150  1.00  0.00     0.030 A 
HETATM    6  C   UNL     1     -41.678  55.780 -52.861  1.00  0.00     0.042 A 
HETATM    7  N   UNL     1     -41.157  54.601 -52.409  1.00  0.00    -0.279 N 
HETATM    8  H   UNL     1     -41.274  54.162 -51.500  1.00  0.00     0.189 HD
HETATM    9  N   UNL     1     -40.366  53.996 -53.320  1.00  0.00    -0.149 NA
HETATM   10  C   UNL     1     -40.402  54.839 -54.344  1.00  0.00     0.190 A 
HETATM   11  C   UNL     1     -42.508  56.722 -52.075  1.00  0.00     0.097 C 
ENDROOT
BRANCH   4  12
HETATM   12  C   UNL     1     -42.247  56.705 -56.256  1.00  0.00    -0.048 A 
HETATM   13  C   UNL     1     -42.382  57.652 -57.291  1.00  0.00     0.009 A 
HETATM   14  C   UNL     1     -43.041  57.336 -58.483  1.00  0.00     0.019 A 
HETATM   15  C   UNL     1     -43.584  56.067 -58.655  1.00  0.00     0.011 A 
HETATM   16 BR   UNL     1     -44.473  55.635 -60.264  1.00  0.00    -0.051 Br
HETATM   17  C   UNL     1     -43.470  55.115 -57.648  1.00  0.00     0.019 A 
HETATM   18  C   UNL     1     -42.806  55.433 -56.459  1.00  0.00     0.009 A 
ENDBRANCH   4  12
BRANCH   3  19
HETATM   19  C   UNL     1     -41.317  59.290 -53.698  1.00  0.00     0.266 C 
HETATM   20  O   UNL     1     -40.181  59.011 -53.329  1.00  0.00    -0.265 OA
BRANCH  19  21
HETATM   21  O   UNL     1     -41.833  60.545 -53.729  1.00  0.00    -0.326 OA
HETATM   22  C   UNL     1     -42.637  60.828 -54.875  1.00  0.00     0.213 C 
ENDBRANCH  19  21
ENDBRANCH   3  19
BRANCH   2  23
HETATM   23  O   UNL     1     -43.585  58.872 -52.187  1.00  0.00    -0.389 OA
HETATM   24  H   UNL     1     -42.814  59.155 -51.663  1.00  0.00     0.210 HD
ENDBRANCH   2  23
BRANCH  10  25
HETATM   25  O   UNL     1     -39.653  54.502 -55.387  1.00  0.00    -0.343 OA
HETATM   26  H   UNL     1     -39.630  55.300 -55.941  1.00  0.00     0.219 HD
ENDBRANCH  10  25
TORSDOF 5
ENDMDL
MODEL 6
REMARK VINA RESULT:      -6.6      2.391      4.107
REMARK  5 active torsions:
REMARK  status: ('A' for Active; 'I' for Inactive)
REMARK    1  A    between atoms: C_2  and  O_3 
REMARK    2  A    between atoms: C_4  and  C_5 
REMARK    3  A    between atoms: C_5  and  O_6 
REMARK    4  A    between atoms: C_9  and  C_10 
REMARK    5  A    between atoms: C_22  and  O_23 
ROOT
HETATM    1  C   UNL     1     -44.101  57.035 -51.057  1.00  0.00     0.047 C 
HETATM    2  C   UNL     1     -44.048  58.373 -51.812  1.00  0.00     0.073 C 
HETATM    3  C   UNL     1     -43.470  58.192 -53.255  1.00  0.00     0.133 C 
HETATM    4  C   UNL     1     -41.924  58.043 -53.390  1.00  0.00     0.074 C 
HETATM    5  C   UNL     1     -41.202  58.739 -52.289  1.00  0.00     0.030 A 
HETATM    6  C   UNL     1     -41.825  59.337 -51.214  1.00  0.00     0.042 A 
HETATM    7  N   UNL     1     -40.844  59.907 -50.453  1.00  0.00    -0.279 N 
HETATM    8  H   UNL     1     -40.935  60.440 -49.593  1.00  0.00     0.189 HD
HETATM    9  N   UNL     1     -39.611  59.734 -50.976  1.00  0.00    -0.149 NA
HETATM   10  C   UNL     1     -39.857  59.053 -52.087  1.00  0.00     0.190 A 
HETATM   11  C   UNL     1     -43.281  59.424 -50.962  1.00  0.00     0.097 C 
ENDROOT
BRANCH   4  12
HETATM   12  C   UNL     1     -41.468  56.588 -53.455  1.00  0.00    -0.048 A 
HETATM   13  C   UNL     1     -41.150  56.062 -54.723  1.00  0.00     0.009 A 
HETATM   14  C   UNL     1     -40.732  54.736 -54.876  1.00  0.00     0.019 A 
HETATM   15  C   UNL     1     -40.633  53.912 -53.760  1.00  0.00     0.011 A 
HETATM   16 BR   UNL     1     -40.066  52.121 -53.960  1.00  0.00    -0.051 Br
HETATM   17  C   UNL     1     -40.946  54.403 -52.497  1.00  0.00     0.019 A 
HETATM   18  C   UNL     1     -41.359  55.730 -52.347  1.00  0.00     0.009 A 
ENDBRANCH   4  12
BRANCH   3  19
HETATM   19  C   UNL     1     -43.947  59.318 -54.155  1.00  0.00     0.266 C 
HETATM   20  O   UNL     1     -43.272  60.321 -54.366  1.00  0.00    -0.265 OA
BRANCH  19  21
HETATM   21  O   UNL     1     -45.170  59.081 -54.694  1.00  0.00    -0.326 OA
HETATM   22  C   UNL     1     -45.258  57.881 -55.462  1.00  0.00     0.213 C 
ENDBRANCH  19  21
ENDBRANCH   3  19
BRANCH   2  23
HETATM   23  O   UNL     1     -45.420  58.810 -51.880  1.00  0.00    -0.389 OA
HETATM   24  H   UNL     1     -45.562  59.265 -52.730  1.00  0.00     0.210 HD
ENDBRANCH   2  23
BRANCH  10  25
HETATM   25  O   UNL     1     -38.796  58.783 -52.838  1.00  0.00    -0.343 OA
HETATM   26  H   UNL     1     -39.165  58.476 -53.682  1.00  0.00     0.219 HD
ENDBRANCH  10  25
TORSDOF 5
ENDMDL
MODEL 7
REMARK VINA RESULT:      -6.4     15.847     18.413
REMARK  5 active torsions:
REMARK  status: ('A' for Active; 'I' for Inactive)
REMARK    1  A    between atoms: C_2  and  O_3 
REMARK    2  A    between atoms: C_4  and  C_5 
REMARK    3  A    between atoms: C_5  and  O_6 
REMARK    4  A    between atoms: C_9  and  C_10 
REMARK    5  A    between atoms: C_22  and  O_23 
ROOT
HETATM    1  C   UNL     1     -35.809  38.242 -52.637  1.00  0.00     0.047 C 
HETATM    2  C   UNL     1     -35.864  39.588 -51.897  1.00  0.00     0.073 C 
HETATM    3  C   UNL     1     -34.748  40.562 -52.402  1.00  0.00     0.133 C 
HETATM    4  C   UNL     1     -33.299  40.321 -51.877  1.00  0.00     0.074 C 
HETATM    5  C   UNL     1     -33.297  39.684 -50.531  1.00  0.00     0.030 A 
HETATM    6  C   UNL     1     -34.432  39.248 -49.880  1.00  0.00     0.042 A 
HETATM    7  N   UNL     1     -34.035  38.774 -48.662  1.00  0.00    -0.279 N 
HETATM    8  H   UNL     1     -34.603  38.385 -47.916  1.00  0.00     0.189 HD
HETATM    9  N   UNL     1     -32.704  38.890 -48.466  1.00  0.00    -0.149 NA
HETATM   10  C   UNL     1     -32.291  39.460 -49.590  1.00  0.00     0.190 A 
HETATM   11  C   UNL     1     -35.829  39.345 -50.362  1.00  0.00     0.097 C 
ENDROOT
BRANCH   4  12
HETATM   12  C   UNL     1     -32.449  39.487 -52.833  1.00  0.00    -0.048 A 
HETATM   13  C   UNL     1     -32.076  40.080 -54.056  1.00  0.00     0.009 A 
HETATM   14  C   UNL     1     -31.306  39.386 -54.994  1.00  0.00     0.019 A 
HETATM   15  C   UNL     1     -30.902  38.083 -54.726  1.00  0.00     0.011 A 
HETATM   16 BR   UNL     1     -29.859  37.142 -55.988  1.00  0.00    -0.051 Br
HETATM   17  C   UNL     1     -31.260  37.471 -53.529  1.00  0.00     0.019 A 
HETATM   18  C   UNL     1     -32.027  38.169 -52.591  1.00  0.00     0.009 A 
ENDBRANCH   4  12
BRANCH   3  19
HETATM   19  C   UNL     1     -35.146  42.001 -52.131  1.00  0.00     0.266 C 
HETATM   20  O   UNL     1     -34.678  42.649 -51.200  1.00  0.00    -0.265 OA
BRANCH  19  21
HETATM   21  O   UNL     1     -36.049  42.476 -53.026  1.00  0.00    -0.326 OA
HETATM   22  C   UNL     1     -35.655  42.348 -54.392  1.00  0.00     0.213 C 
ENDBRANCH  19  21
ENDBRANCH   3  19
BRANCH   2  23
HETATM   23  O   UNL     1     -37.165  40.124 -52.207  1.00  0.00    -0.389 OA
HETATM   24  H   UNL     1     -37.701  40.137 -51.393  1.00  0.00     0.210 HD
ENDBRANCH   2  23
BRANCH  10  25
HETATM   25  O   UNL     1     -30.993  39.736 -49.646  1.00  0.00    -0.343 OA
HETATM   26  H   UNL     1     -30.942  40.698 -49.514  1.00  0.00     0.219 HD
ENDBRANCH  10  25
TORSDOF 5
ENDMDL
MODEL 8
REMARK VINA RESULT:      -6.3     15.270     17.826
REMARK  5 active torsions:
REMARK  status: ('A' for Active; 'I' for Inactive)
REMARK    1  A    between atoms: C_2  and  O_3 
REMARK    2  A    between atoms: C_4  and  C_5 
REMARK    3  A    between atoms: C_5  and  O_6 
REMARK    4  A    between atoms: C_9  and  C_10 
REMARK    5  A    between atoms: C_22  and  O_23 
ROOT
HETATM    1  C   UNL     1     -32.400  39.904 -55.372  1.00  0.00     0.047 C 
HETATM    2  C   UNL     1     -32.985  39.168 -54.157  1.00  0.00     0.073 C 
HETATM    3  C   UNL     1     -34.472  38.744 -54.408  1.00  0.00     0.133 C 
HETATM    4  C   UNL     1     -35.561  39.852 -54.273  1.00  0.00     0.074 C 
HETATM    5  C   UNL     1     -35.152  40.918 -53.316  1.00  0.00     0.030 A 
HETATM    6  C   UNL     1     -33.912  40.983 -52.716  1.00  0.00     0.042 A 
HETATM    7  N   UNL     1     -33.935  42.059 -51.875  1.00  0.00    -0.279 N 
HETATM    8  H   UNL     1     -33.200  42.403 -51.264  1.00  0.00     0.189 HD
HETATM    9  N   UNL     1     -35.125  42.697 -51.874  1.00  0.00    -0.149 NA
HETATM   10  C   UNL     1     -35.843  41.978 -52.726  1.00  0.00     0.190 A 
HETATM   11  C   UNL     1     -32.792  40.029 -52.878  1.00  0.00     0.097 C 
ENDROOT
BRANCH   4  12
HETATM   12  C   UNL     1     -35.934  40.487 -55.610  1.00  0.00    -0.048 A 
HETATM   13  C   UNL     1     -37.029  39.939 -56.307  1.00  0.00     0.009 A 
HETATM   14  C   UNL     1     -37.434  40.453 -57.543  1.00  0.00     0.019 A 
HETATM   15  C   UNL     1     -36.744  41.521 -58.105  1.00  0.00     0.011 A 
HETATM   16 BR   UNL     1     -37.289  42.221 -59.772  1.00  0.00    -0.051 Br
HETATM   17  C   UNL     1     -35.656  42.079 -57.442  1.00  0.00     0.019 A 
HETATM   18  C   UNL     1     -35.256  41.565 -56.204  1.00  0.00     0.009 A 
ENDBRANCH   4  12
BRANCH   3  19
HETATM   19  C   UNL     1     -34.838  37.569 -53.519  1.00  0.00     0.266 C 
HETATM   20  O   UNL     1     -34.053  36.658 -53.276  1.00  0.00    -0.265 OA
BRANCH  19  21
HETATM   21  O   UNL     1     -36.100  37.653 -53.027  1.00  0.00    -0.326 OA
HETATM   22  C   UNL     1     -36.211  37.391 -51.628  1.00  0.00     0.213 C 
ENDBRANCH  19  21
ENDBRANCH   3  19
BRANCH   2  23
HETATM   23  O   UNL     1     -32.157  37.998 -54.003  1.00  0.00    -0.389 OA
HETATM   24  H   UNL     1     -31.244  38.282 -53.816  1.00  0.00     0.210 HD
ENDBRANCH   2  23
BRANCH  10  25
HETATM   25  O   UNL     1     -37.102  42.367 -52.883  1.00  0.00    -0.343 OA
HETATM   26  H   UNL     1     -37.629  41.668 -52.461  1.00  0.00     0.219 HD
ENDBRANCH  10  25
TORSDOF 5
ENDMDL
MODEL 9
REMARK VINA RESULT:      -6.2      6.155      8.362
REMARK  5 active torsions:
REMARK  status: ('A' for Active; 'I' for Inactive)
REMARK    1  A    between atoms: C_2  and  O_3 
REMARK    2  A    between atoms: C_4  and  C_5 
REMARK    3  A    between atoms: C_5  and  O_6 
REMARK    4  A    between atoms: C_9  and  C_10 
REMARK    5  A    between atoms: C_22  and  O_23 
ROOT
HETATM    1  C   UNL     1     -45.863  60.180 -58.630  1.00  0.00     0.047 C 
HETATM    2  C   UNL     1     -45.612  58.968 -57.719  1.00  0.00     0.073 C 
HETATM    3  C   UNL     1     -44.156  58.979 -57.143  1.00  0.00     0.133 C 
HETATM    4  C   UNL     1     -43.011  58.513 -58.094  1.00  0.00     0.074 C 
HETATM    5  C   UNL     1     -43.494  57.536 -59.108  1.00  0.00     0.030 A 
HETATM    6  C   UNL     1     -44.817  57.179 -59.267  1.00  0.00     0.042 A 
HETATM    7  N   UNL     1     -44.857  56.231 -60.250  1.00  0.00    -0.279 N 
HETATM    8  H   UNL     1     -45.662  55.735 -60.622  1.00  0.00     0.189 HD
HETATM    9  N   UNL     1     -43.634  55.930 -60.736  1.00  0.00    -0.149 NA
HETATM   10  C   UNL     1     -42.835  56.708 -60.017  1.00  0.00     0.190 A 
HETATM   11  C   UNL     1     -45.972  57.659 -58.475  1.00  0.00     0.097 C 
ENDROOT
BRANCH   4  12
HETATM   12  C   UNL     1     -42.313  59.673 -58.801  1.00  0.00    -0.048 A 
HETATM   13  C   UNL     1     -41.533  60.541 -58.011  1.00  0.00     0.009 A 
HETATM   14  C   UNL     1     -40.867  61.633 -58.574  1.00  0.00     0.019 A 
HETATM   15  C   UNL     1     -40.978  61.880 -59.938  1.00  0.00     0.011 A 
HETATM   16 BR   UNL     1     -40.078  63.353 -60.705  1.00  0.00    -0.051 Br
HETATM   17  C   UNL     1     -41.746  61.043 -60.741  1.00  0.00     0.019 A 
HETATM   18  C   UNL     1     -42.408  59.949 -60.175  1.00  0.00     0.009 A 
ENDBRANCH   4  12
BRANCH   3  19
HETATM   19  C   UNL     1     -44.096  58.178 -55.856  1.00  0.00     0.266 C 
HETATM   20  O   UNL     1     -43.683  57.023 -55.818  1.00  0.00    -0.265 OA
BRANCH  19  21
HETATM   21  O   UNL     1     -44.530  58.878 -54.778  1.00  0.00    -0.326 OA
HETATM   22  C   UNL     1     -44.766  58.088 -53.612  1.00  0.00     0.213 C 
ENDBRANCH  19  21
ENDBRANCH   3  19
BRANCH   2  23
HETATM   23  O   UNL     1     -46.567  59.110 -56.649  1.00  0.00    -0.389 OA
HETATM   24  H   UNL     1     -47.085  59.922 -56.796  1.00  0.00     0.210 HD
ENDBRANCH   2  23
BRANCH  10  25
HETATM   25  O   UNL     1     -41.537  56.576 -60.264  1.00  0.00    -0.343 OA
HETATM   26  H   UNL     1     -41.487  56.377 -61.214  1.00  0.00     0.219 HD
ENDBRANCH  10  25
TORSDOF 5
ENDMDL
MODEL 10
REMARK VINA RESULT:      -6.2     15.340     18.182
REMARK  5 active torsions:
REMARK  status: ('A' for Active; 'I' for Inactive)
REMARK    1  A    between atoms: C_2  and  O_3 
REMARK    2  A    between atoms: C_4  and  C_5 
REMARK    3  A    between atoms: C_5  and  O_6 
REMARK    4  A    between atoms: C_9  and  C_10 
REMARK    5  A    between atoms: C_22  and  O_23 
ROOT
HETATM    1  C   UNL     1     -34.966  37.588 -53.892  1.00  0.00     0.047 C 
HETATM    2  C   UNL     1     -34.563  38.646 -54.932  1.00  0.00     0.073 C 
HETATM    3  C   UNL     1     -33.294  39.440 -54.475  1.00  0.00     0.133 C 
HETATM    4  C   UNL     1     -33.498  40.556 -53.405  1.00  0.00     0.074 C 
HETATM    5  C   UNL     1     -34.865  41.144 -53.471  1.00  0.00     0.030 A 
HETATM    6  C   UNL     1     -35.868  40.676 -54.294  1.00  0.00     0.042 A 
HETATM    7  N   UNL     1     -36.946  41.495 -54.111  1.00  0.00    -0.279 N 
HETATM    8  H   UNL     1     -37.856  41.457 -54.560  1.00  0.00     0.189 HD
HETATM    9  N   UNL     1     -36.704  42.487 -53.228  1.00  0.00    -0.149 NA
HETATM   10  C   UNL     1     -35.443  42.268 -52.879  1.00  0.00     0.190 A 
HETATM   11  C   UNL     1     -35.782  39.554 -55.256  1.00  0.00     0.097 C 
ENDROOT
BRANCH   4  12
HETATM   12  C   UNL     1     -33.221  40.077 -51.983  1.00  0.00    -0.048 A 
HETATM   13  C   UNL     1     -31.898  40.180 -51.508  1.00  0.00     0.009 A 
HETATM   14  C   UNL     1     -31.553  39.757 -50.221  1.00  0.00     0.019 A 
HETATM   15  C   UNL     1     -32.527  39.215 -49.389  1.00  0.00     0.011 A 
HETATM   16 BR   UNL     1     -32.067  38.645 -47.648  1.00  0.00    -0.051 Br
HETATM   17  C   UNL     1     -33.840  39.096 -49.833  1.00  0.00     0.019 A 
HETATM   18  C   UNL     1     -34.182  39.524 -51.120  1.00  0.00     0.009 A 
ENDBRANCH   4  12
BRANCH   3  19
HETATM   19  C   UNL     1     -32.581  40.025 -55.681  1.00  0.00     0.266 C 
HETATM   20  O   UNL     1     -33.183  40.410 -56.678  1.00  0.00    -0.265 OA
BRANCH  19  21
HETATM   21  O   UNL     1     -31.234  40.083 -55.521  1.00  0.00    -0.326 OA
HETATM   22  C   UNL     1     -30.563  38.833 -55.680  1.00  0.00     0.213 C 
ENDBRANCH  19  21
ENDBRANCH   3  19
BRANCH   2  23
HETATM   23  O   UNL     1     -34.272  37.893 -56.126  1.00  0.00    -0.389 OA
HETATM   24  H   UNL     1     -34.889  37.141 -56.182  1.00  0.00     0.210 HD
ENDBRANCH   2  23
BRANCH  10  25
HETATM   25  O   UNL     1     -34.924  43.148 -52.033  1.00  0.00    -0.343 OA
HETATM   26  H   UNL     1     -34.533  42.608 -51.326  1.00  0.00     0.219 HD
ENDBRANCH  10  25
TORSDOF 5
ENDMDL
