MODEL 1
REMARK VINA RESULT:      -8.7      0.000      0.000
REMARK  8 active torsions:
REMARK  status: ('A' for Active; 'I' for Inactive)
REMARK    1  A    between atoms: C_2  and  C_3 
REMARK    2  A    between atoms: C_3  and  O_4 
REMARK    3  A    between atoms: O_4  and  C_5 
REMARK    4  A    between atoms: C_8  and  C_9 
REMARK    5  A    between atoms: N_10  and  C_11 
REMARK    6  A    between atoms: C_11  and  C_12 
REMARK    7  A    between atoms: C_25  and  C_26 
REMARK    8  A    between atoms: C_27  and  O_28 
ROOT
HETATM    1  C   UNL     1     -42.590  57.720 -54.305  1.00  0.00     0.159 A 
HETATM    2  N   UNL     1     -43.298  57.937 -53.013  1.00  0.00    -0.329 N 
HETATM    3  C   UNL     1     -44.655  58.254 -53.158  1.00  0.00     0.273 A 
HETATM    4  O   UNL     1     -45.459  58.561 -52.296  1.00  0.00    -0.266 OA
HETATM    5  C   UNL     1     -44.865  58.183 -54.555  1.00  0.00     0.129 A 
HETATM    6  C   UNL     1     -43.725  57.888 -55.240  1.00  0.00     0.034 A 
HETATM    7  N   UNL     1     -45.856  58.319 -55.447  1.00  0.00    -0.272 N 
HETATM    8  H   UNL     1     -46.837  58.534 -55.292  1.00  0.00     0.189 HD
HETATM    9  N   UNL     1     -45.413  58.124 -56.716  1.00  0.00    -0.173 NA
HETATM   10  C   UNL     1     -44.092  57.853 -56.593  1.00  0.00     0.101 A 
ENDROOT
BRANCH   1  11
HETATM   11  C   UNL     1     -42.056  56.322 -54.506  1.00  0.00    -0.030 A 
HETATM   12  C   UNL     1     -40.684  56.039 -54.609  1.00  0.00     0.012 A 
HETATM   13  C   UNL     1     -40.234  54.718 -54.681  1.00  0.00     0.037 A 
HETATM   14  C   UNL     1     -41.140  53.659 -54.644  1.00  0.00     0.069 A 
HETATM   15  C   UNL     1     -42.507  53.926 -54.609  1.00  0.00     0.037 A 
HETATM   16  C   UNL     1     -42.960  55.246 -54.535  1.00  0.00     0.012 A 
BRANCH  14  17
HETATM   17  O   UNL     1     -40.584  52.408 -54.654  1.00  0.00    -0.348 OA
BRANCH  17  18
HETATM   18  C   UNL     1     -39.951  52.013 -53.435  1.00  0.00     0.202 C 
BRANCH  18  19
HETATM   19  C   UNL     1     -39.500  50.592 -53.599  1.00  0.00    -0.011 C 
HETATM   20  C   UNL     1     -39.866  49.792 -54.609  1.00  0.00     0.009 C 
ENDBRANCH  18  19
ENDBRANCH  17  18
ENDBRANCH  14  17
ENDBRANCH   1  11
BRANCH   2  21
HETATM   21  C   UNL     1     -42.576  58.149 -51.777  1.00  0.00     0.167 C 
BRANCH  21  22
HETATM   22  C   UNL     1     -42.276  56.851 -51.077  1.00  0.00    -0.023 A 
HETATM   23  C   UNL     1     -43.269  55.899 -50.870  1.00  0.00     0.125 A 
HETATM   24  N   UNL     1     -43.056  54.695 -50.292  1.00  0.00    -0.273 NA
HETATM   25  C   UNL     1     -41.795  54.425 -49.893  1.00  0.00     0.116 A 
HETATM   26  C   UNL     1     -40.736  55.303 -50.045  1.00  0.00     0.020 A 
HETATM   27  C   UNL     1     -40.984  56.534 -50.644  1.00  0.00     0.012 A 
ENDBRANCH  21  22
ENDBRANCH   2  21
BRANCH  10  28
HETATM   28  C   UNL     1     -43.256  57.550 -57.749  1.00  0.00     0.028 A 
HETATM   29  C   UNL     1     -43.267  56.298 -58.378  1.00  0.00     0.078 A 
HETATM   30  C   UNL     1     -42.538  56.074 -59.546  1.00  0.00     0.037 A 
HETATM   31  C   UNL     1     -41.753  57.096 -60.080  1.00  0.00     0.003 A 
HETATM   32  C   UNL     1     -41.701  58.336 -59.447  1.00  0.00     0.001 A 
HETATM   33  C   UNL     1     -42.450  58.564 -58.290  1.00  0.00     0.017 A 
BRANCH  29  34
HETATM   34  O   UNL     1     -43.960  55.224 -57.884  1.00  0.00    -0.360 OA
HETATM   35  H   UNL     1     -44.171  54.651 -58.644  1.00  0.00     0.217 HD
ENDBRANCH  29  34
ENDBRANCH  10  28
TORSDOF 8
ENDMDL
MODEL 2
REMARK VINA RESULT:      -8.6      2.179      6.541
REMARK  8 active torsions:
REMARK  status: ('A' for Active; 'I' for Inactive)
REMARK    1  A    between atoms: C_2  and  C_3 
REMARK    2  A    between atoms: C_3  and  O_4 
REMARK    3  A    between atoms: O_4  and  C_5 
REMARK    4  A    between atoms: C_8  and  C_9 
REMARK    5  A    between atoms: N_10  and  C_11 
REMARK    6  A    between atoms: C_11  and  C_12 
REMARK    7  A    between atoms: C_25  and  C_26 
REMARK    8  A    between atoms: C_27  and  O_28 
ROOT
HETATM    1  C   UNL     1     -42.358  54.370 -51.768  1.00  0.00     0.159 A 
HETATM    2  N   UNL     1     -42.581  55.580 -50.928  1.00  0.00    -0.329 N 
HETATM    3  C   UNL     1     -41.543  55.841 -50.025  1.00  0.00     0.273 A 
HETATM    4  O   UNL     1     -41.482  56.701 -49.165  1.00  0.00    -0.266 OA
HETATM    5  C   UNL     1     -40.592  54.834 -50.312  1.00  0.00     0.129 A 
HETATM    6  C   UNL     1     -41.014  53.980 -51.286  1.00  0.00     0.034 A 
HETATM    7  N   UNL     1     -39.373  54.437 -49.919  1.00  0.00    -0.272 N 
HETATM    8  H   UNL     1     -38.760  54.840 -49.216  1.00  0.00     0.189 HD
HETATM    9  N   UNL     1     -38.963  53.337 -50.603  1.00  0.00    -0.173 NA
HETATM   10  C   UNL     1     -39.976  53.052 -51.455  1.00  0.00     0.101 A 
ENDROOT
BRANCH   1  11
HETATM   11  C   UNL     1     -42.235  54.641 -53.248  1.00  0.00    -0.030 A 
HETATM   12  C   UNL     1     -43.053  54.020 -54.206  1.00  0.00     0.012 A 
HETATM   13  C   UNL     1     -42.977  54.387 -55.552  1.00  0.00     0.037 A 
HETATM   14  C   UNL     1     -42.094  55.384 -55.965  1.00  0.00     0.069 A 
HETATM   15  C   UNL     1     -41.231  55.963 -55.037  1.00  0.00     0.037 A 
HETATM   16  C   UNL     1     -41.305  55.598 -53.689  1.00  0.00     0.012 A 
BRANCH  14  17
HETATM   17  O   UNL     1     -42.153  55.709 -57.293  1.00  0.00    -0.348 OA
BRANCH  17  18
HETATM   18  C   UNL     1     -43.413  55.474 -57.923  1.00  0.00     0.202 C 
BRANCH  18  19
HETATM   19  C   UNL     1     -43.257  55.788 -59.381  1.00  0.00    -0.011 C 
HETATM   20  C   UNL     1     -42.304  56.583 -59.887  1.00  0.00     0.009 C 
ENDBRANCH  18  19
ENDBRANCH  17  18
ENDBRANCH  14  17
ENDBRANCH   1  11
BRANCH   2  21
HETATM   21  C   UNL     1     -43.885  56.197 -50.816  1.00  0.00     0.167 C 
BRANCH  21  22
HETATM   22  C   UNL     1     -44.019  57.388 -51.727  1.00  0.00    -0.023 A 
HETATM   23  C   UNL     1     -43.566  58.645 -51.340  1.00  0.00     0.125 A 
HETATM   24  N   UNL     1     -43.612  59.743 -52.127  1.00  0.00    -0.273 NA
HETATM   25  C   UNL     1     -44.142  59.587 -53.359  1.00  0.00     0.116 A 
HETATM   26  C   UNL     1     -44.627  58.384 -53.841  1.00  0.00     0.020 A 
HETATM   27  C   UNL     1     -44.565  57.270 -53.009  1.00  0.00     0.012 A 
ENDBRANCH  21  22
ENDBRANCH   2  21
BRANCH  10  28
HETATM   28  C   UNL     1     -39.901  51.941 -52.397  1.00  0.00     0.028 A 
HETATM   29  C   UNL     1     -39.729  50.613 -51.981  1.00  0.00     0.078 A 
HETATM   30  C   UNL     1     -39.771  49.563 -52.897  1.00  0.00     0.037 A 
HETATM   31  C   UNL     1     -39.947  49.832 -54.254  1.00  0.00     0.003 A 
HETATM   32  C   UNL     1     -40.083  51.149 -54.690  1.00  0.00     0.001 A 
HETATM   33  C   UNL     1     -40.062  52.197 -53.767  1.00  0.00     0.017 A 
BRANCH  29  34
HETATM   34  O   UNL     1     -39.488  50.268 -50.678  1.00  0.00    -0.360 OA
HETATM   35  H   UNL     1     -39.217  51.082 -50.216  1.00  0.00     0.217 HD
ENDBRANCH  29  34
ENDBRANCH  10  28
TORSDOF 8
ENDMDL
MODEL 3
REMARK VINA RESULT:      -8.3      2.782      6.409
REMARK  8 active torsions:
REMARK  status: ('A' for Active; 'I' for Inactive)
REMARK    1  A    between atoms: C_2  and  C_3 
REMARK    2  A    between atoms: C_3  and  O_4 
REMARK    3  A    between atoms: O_4  and  C_5 
REMARK    4  A    between atoms: C_8  and  C_9 
REMARK    5  A    between atoms: N_10  and  C_11 
REMARK    6  A    between atoms: C_11  and  C_12 
REMARK    7  A    between atoms: C_25  and  C_26 
REMARK    8  A    between atoms: C_27  and  O_28 
ROOT
HETATM    1  C   UNL     1     -43.444  56.764 -56.801  1.00  0.00     0.159 A 
HETATM    2  N   UNL     1     -43.115  56.488 -58.227  1.00  0.00    -0.329 N 
HETATM    3  C   UNL     1     -42.394  57.514 -58.850  1.00  0.00     0.273 A 
HETATM    4  O   UNL     1     -42.058  57.606 -60.017  1.00  0.00    -0.266 OA
HETATM    5  C   UNL     1     -42.185  58.451 -57.812  1.00  0.00     0.129 A 
HETATM    6  C   UNL     1     -42.765  58.069 -56.639  1.00  0.00     0.034 A 
HETATM    7  N   UNL     1     -41.583  59.632 -57.606  1.00  0.00    -0.272 N 
HETATM    8  H   UNL     1     -41.054  60.206 -58.255  1.00  0.00     0.189 HD
HETATM    9  N   UNL     1     -41.743  60.055 -56.325  1.00  0.00    -0.173 NA
HETATM   10  C   UNL     1     -42.472  59.088 -55.720  1.00  0.00     0.101 A 
ENDROOT
BRANCH   1  11
HETATM   11  C   UNL     1     -42.814  55.814 -55.811  1.00  0.00    -0.030 A 
HETATM   12  C   UNL     1     -43.482  55.360 -54.662  1.00  0.00     0.012 A 
HETATM   13  C   UNL     1     -42.900  54.394 -53.836  1.00  0.00     0.037 A 
HETATM   14  C   UNL     1     -41.651  53.858 -54.145  1.00  0.00     0.069 A 
HETATM   15  C   UNL     1     -40.949  54.346 -55.245  1.00  0.00     0.037 A 
HETATM   16  C   UNL     1     -41.528  55.312 -56.073  1.00  0.00     0.012 A 
BRANCH  14  17
HETATM   17  O   UNL     1     -41.209  52.872 -53.305  1.00  0.00    -0.348 OA
BRANCH  17  18
HETATM   18  C   UNL     1     -39.985  52.245 -53.692  1.00  0.00     0.202 C 
BRANCH  18  19
HETATM   19  C   UNL     1     -40.328  50.917 -54.296  1.00  0.00    -0.011 C 
HETATM   20  C   UNL     1     -39.513  49.852 -54.300  1.00  0.00     0.009 C 
ENDBRANCH  18  19
ENDBRANCH  17  18
ENDBRANCH  14  17
ENDBRANCH   1  11
BRANCH   2  21
HETATM   21  C   UNL     1     -43.780  55.440 -58.971  1.00  0.00     0.167 C 
BRANCH  21  22
HETATM   22  C   UNL     1     -45.000  55.954 -59.686  1.00  0.00    -0.023 A 
HETATM   23  C   UNL     1     -45.422  55.390 -60.886  1.00  0.00     0.125 A 
HETATM   24  N   UNL     1     -46.534  55.772 -61.554  1.00  0.00    -0.273 NA
HETATM   25  C   UNL     1     -47.262  56.769 -61.006  1.00  0.00     0.116 A 
HETATM   26  C   UNL     1     -46.929  57.402 -59.821  1.00  0.00     0.020 A 
HETATM   27  C   UNL     1     -45.779  56.987 -59.155  1.00  0.00     0.012 A 
ENDBRANCH  21  22
ENDBRANCH   2  21
BRANCH  10  28
HETATM   28  C   UNL     1     -42.830  59.161 -54.308  1.00  0.00     0.028 A 
HETATM   29  C   UNL     1     -41.886  59.420 -53.305  1.00  0.00     0.078 A 
HETATM   30  C   UNL     1     -42.277  59.592 -51.978  1.00  0.00     0.037 A 
HETATM   31  C   UNL     1     -43.622  59.468 -51.629  1.00  0.00     0.003 A 
HETATM   32  C   UNL     1     -44.570  59.174 -52.608  1.00  0.00     0.001 A 
HETATM   33  C   UNL     1     -44.177  59.024 -53.940  1.00  0.00     0.017 A 
BRANCH  29  34
HETATM   34  O   UNL     1     -40.541  59.495 -53.552  1.00  0.00    -0.360 OA
HETATM   35  H   UNL     1     -40.369  60.383 -53.915  1.00  0.00     0.217 HD
ENDBRANCH  29  34
ENDBRANCH  10  28
TORSDOF 8
ENDMDL
MODEL 4
REMARK VINA RESULT:      -8.2      1.496      2.029
REMARK  8 active torsions:
REMARK  status: ('A' for Active; 'I' for Inactive)
REMARK    1  A    between atoms: C_2  and  C_3 
REMARK    2  A    between atoms: C_3  and  O_4 
REMARK    3  A    between atoms: O_4  and  C_5 
REMARK    4  A    between atoms: C_8  and  C_9 
REMARK    5  A    between atoms: N_10  and  C_11 
REMARK    6  A    between atoms: C_11  and  C_12 
REMARK    7  A    between atoms: C_25  and  C_26 
REMARK    8  A    between atoms: C_27  and  O_28 
ROOT
HETATM    1  C   UNL     1     -41.854  56.869 -53.463  1.00  0.00     0.159 A 
HETATM    2  N   UNL     1     -42.173  56.954 -52.011  1.00  0.00    -0.329 N 
HETATM    3  C   UNL     1     -43.513  57.262 -51.743  1.00  0.00     0.273 A 
HETATM    4  O   UNL     1     -44.044  57.475 -50.668  1.00  0.00    -0.266 OA
HETATM    5  C   UNL     1     -44.103  57.318 -53.028  1.00  0.00     0.129 A 
HETATM    6  C   UNL     1     -43.202  57.106 -54.026  1.00  0.00     0.034 A 
HETATM    7  N   UNL     1     -45.302  57.520 -53.593  1.00  0.00    -0.272 N 
HETATM    8  H   UNL     1     -46.199  57.704 -53.154  1.00  0.00     0.189 HD
HETATM    9  N   UNL     1     -45.231  57.451 -54.948  1.00  0.00    -0.173 NA
HETATM   10  C   UNL     1     -43.931  57.190 -55.222  1.00  0.00     0.101 A 
ENDROOT
BRANCH   1  11
HETATM   11  C   UNL     1     -41.412  55.505 -53.934  1.00  0.00    -0.030 A 
HETATM   12  C   UNL     1     -40.270  55.306 -54.728  1.00  0.00     0.012 A 
HETATM   13  C   UNL     1     -39.840  54.015 -55.045  1.00  0.00     0.037 A 
HETATM   14  C   UNL     1     -40.530  52.902 -54.569  1.00  0.00     0.069 A 
HETATM   15  C   UNL     1     -41.701  53.083 -53.835  1.00  0.00     0.037 A 
HETATM   16  C   UNL     1     -42.134  54.373 -53.516  1.00  0.00     0.012 A 
BRANCH  14  17
HETATM   17  O   UNL     1     -39.980  51.689 -54.884  1.00  0.00    -0.348 OA
BRANCH  17  18
HETATM   18  C   UNL     1     -40.667  50.553 -54.355  1.00  0.00     0.202 C 
BRANCH  18  19
HETATM   19  C   UNL     1     -39.761  49.902 -53.353  1.00  0.00    -0.011 C 
HETATM   20  C   UNL     1     -39.486  50.403 -52.141  1.00  0.00     0.009 C 
ENDBRANCH  18  19
ENDBRANCH  17  18
ENDBRANCH  14  17
ENDBRANCH   1  11
BRANCH   2  21
HETATM   21  C   UNL     1     -41.134  57.062 -51.009  1.00  0.00     0.167 C 
BRANCH  21  22
HETATM   22  C   UNL     1     -40.873  55.743 -50.333  1.00  0.00    -0.023 A 
HETATM   23  C   UNL     1     -41.455  55.433 -49.108  1.00  0.00     0.125 A 
HETATM   24  N   UNL     1     -41.300  54.250 -48.473  1.00  0.00    -0.273 NA
HETATM   25  C   UNL     1     -40.521  53.330 -49.080  1.00  0.00     0.116 A 
HETATM   26  C   UNL     1     -39.890  53.537 -50.294  1.00  0.00     0.020 A 
HETATM   27  C   UNL     1     -40.070  54.764 -50.927  1.00  0.00     0.012 A 
ENDBRANCH  21  22
ENDBRANCH   2  21
BRANCH  10  28
HETATM   28  C   UNL     1     -43.451  57.009 -56.587  1.00  0.00     0.028 A 
HETATM   29  C   UNL     1     -42.882  58.054 -57.329  1.00  0.00     0.078 A 
HETATM   30  C   UNL     1     -42.335  57.824 -58.591  1.00  0.00     0.037 A 
HETATM   31  C   UNL     1     -42.385  56.545 -59.146  1.00  0.00     0.003 A 
HETATM   32  C   UNL     1     -42.980  55.503 -58.439  1.00  0.00     0.001 A 
HETATM   33  C   UNL     1     -43.508  55.732 -57.166  1.00  0.00     0.017 A 
BRANCH  29  34
HETATM   34  O   UNL     1     -42.850  59.349 -56.884  1.00  0.00    -0.360 OA
HETATM   35  H   UNL     1     -43.727  59.539 -56.503  1.00  0.00     0.217 HD
ENDBRANCH  29  34
ENDBRANCH  10  28
TORSDOF 8
ENDMDL
MODEL 5
REMARK VINA RESULT:      -8.1      2.217      5.850
REMARK  8 active torsions:
REMARK  status: ('A' for Active; 'I' for Inactive)
REMARK    1  A    between atoms: C_2  and  C_3 
REMARK    2  A    between atoms: C_3  and  O_4 
REMARK    3  A    between atoms: O_4  and  C_5 
REMARK    4  A    between atoms: C_8  and  C_9 
REMARK    5  A    between atoms: N_10  and  C_11 
REMARK    6  A    between atoms: C_11  and  C_12 
REMARK    7  A    between atoms: C_25  and  C_26 
REMARK    8  A    between atoms: C_27  and  O_28 
ROOT
HETATM    1  C   UNL     1     -41.654  55.578 -52.469  1.00  0.00     0.159 A 
HETATM    2  N   UNL     1     -41.203  54.326 -51.801  1.00  0.00    -0.329 N 
HETATM    3  C   UNL     1     -42.044  53.902 -50.765  1.00  0.00     0.273 A 
HETATM    4  O   UNL     1     -41.891  52.970 -49.995  1.00  0.00    -0.266 OA
HETATM    5  C   UNL     1     -43.098  54.844 -50.787  1.00  0.00     0.129 A 
HETATM    6  C   UNL     1     -42.916  55.810 -51.730  1.00  0.00     0.034 A 
HETATM    7  N   UNL     1     -44.253  55.100 -50.155  1.00  0.00    -0.272 N 
HETATM    8  H   UNL     1     -44.702  54.589 -49.402  1.00  0.00     0.189 HD
HETATM    9  N   UNL     1     -44.853  56.215 -50.649  1.00  0.00    -0.173 NA
HETATM   10  C   UNL     1     -44.030  56.656 -51.629  1.00  0.00     0.101 A 
ENDROOT
BRANCH   1  11
HETATM   11  C   UNL     1     -42.018  55.423 -53.925  1.00  0.00    -0.030 A 
HETATM   12  C   UNL     1     -42.792  54.354 -54.406  1.00  0.00     0.012 A 
HETATM   13  C   UNL     1     -43.197  54.314 -55.743  1.00  0.00     0.037 A 
HETATM   14  C   UNL     1     -42.848  55.340 -56.619  1.00  0.00     0.069 A 
HETATM   15  C   UNL     1     -42.026  56.373 -56.173  1.00  0.00     0.037 A 
HETATM   16  C   UNL     1     -41.620  56.416 -54.836  1.00  0.00     0.012 A 
BRANCH  14  17
HETATM   17  O   UNL     1     -43.355  55.231 -57.886  1.00  0.00    -0.348 OA
BRANCH  17  18
HETATM   18  C   UNL     1     -43.662  56.470 -58.528  1.00  0.00     0.202 C 
BRANCH  18  19
HETATM   19  C   UNL     1     -42.916  56.503 -59.828  1.00  0.00    -0.011 C 
HETATM   20  C   UNL     1     -41.902  57.337 -60.100  1.00  0.00     0.009 C 
ENDBRANCH  18  19
ENDBRANCH  17  18
ENDBRANCH  14  17
ENDBRANCH   1  11
BRANCH   2  21
HETATM   21  C   UNL     1     -39.859  53.816 -51.973  1.00  0.00     0.167 C 
BRANCH  21  22
HETATM   22  C   UNL     1     -39.860  52.431 -52.561  1.00  0.00    -0.023 A 
HETATM   23  C   UNL     1     -39.534  51.320 -51.790  1.00  0.00     0.125 A 
HETATM   24  N   UNL     1     -39.561  50.047 -52.245  1.00  0.00    -0.273 NA
HETATM   25  C   UNL     1     -39.924  49.867 -53.532  1.00  0.00     0.116 A 
HETATM   26  C   UNL     1     -40.261  50.902 -54.388  1.00  0.00     0.020 A 
HETATM   27  C   UNL     1     -40.226  52.202 -53.892  1.00  0.00     0.012 A 
ENDBRANCH  21  22
ENDBRANCH   2  21
BRANCH  10  28
HETATM   28  C   UNL     1     -44.348  57.832 -52.432  1.00  0.00     0.028 A 
HETATM   29  C   UNL     1     -44.191  59.138 -51.946  1.00  0.00     0.078 A 
HETATM   30  C   UNL     1     -44.400  60.241 -52.774  1.00  0.00     0.037 A 
HETATM   31  C   UNL     1     -44.807  60.051 -54.094  1.00  0.00     0.003 A 
HETATM   32  C   UNL     1     -45.004  58.760 -54.582  1.00  0.00     0.001 A 
HETATM   33  C   UNL     1     -44.773  57.657 -53.757  1.00  0.00     0.017 A 
BRANCH  29  34
HETATM   34  O   UNL     1     -43.855  59.413 -50.647  1.00  0.00    -0.360 OA
HETATM   35  H   UNL     1     -44.384  58.816 -50.087  1.00  0.00     0.217 HD
ENDBRANCH  29  34
ENDBRANCH  10  28
TORSDOF 8
ENDMDL
MODEL 6
REMARK VINA RESULT:      -8.1      2.309      5.609
REMARK  8 active torsions:
REMARK  status: ('A' for Active; 'I' for Inactive)
REMARK    1  A    between atoms: C_2  and  C_3 
REMARK    2  A    between atoms: C_3  and  O_4 
REMARK    3  A    between atoms: O_4  and  C_5 
REMARK    4  A    between atoms: C_8  and  C_9 
REMARK    5  A    between atoms: N_10  and  C_11 
REMARK    6  A    between atoms: C_11  and  C_12 
REMARK    7  A    between atoms: C_25  and  C_26 
REMARK    8  A    between atoms: C_27  and  O_28 
ROOT
HETATM    1  C   UNL     1     -41.590  55.560 -52.529  1.00  0.00     0.159 A 
HETATM    2  N   UNL     1     -41.164  54.322 -51.818  1.00  0.00    -0.329 N 
HETATM    3  C   UNL     1     -42.013  53.954 -50.767  1.00  0.00     0.273 A 
HETATM    4  O   UNL     1     -41.879  53.047 -49.965  1.00  0.00    -0.266 OA
HETATM    5  C   UNL     1     -43.047  54.917 -50.821  1.00  0.00     0.129 A 
HETATM    6  C   UNL     1     -42.845  55.845 -51.799  1.00  0.00     0.034 A 
HETATM    7  N   UNL     1     -44.195  55.220 -50.198  1.00  0.00    -0.272 N 
HETATM    8  H   UNL     1     -44.654  54.746 -49.427  1.00  0.00     0.189 HD
HETATM    9  N   UNL     1     -44.772  56.329 -50.731  1.00  0.00    -0.173 NA
HETATM   10  C   UNL     1     -43.941  56.718 -51.727  1.00  0.00     0.101 A 
ENDROOT
BRANCH   1  11
HETATM   11  C   UNL     1     -41.960  55.360 -53.979  1.00  0.00    -0.030 A 
HETATM   12  C   UNL     1     -42.653  54.229 -54.439  1.00  0.00     0.012 A 
HETATM   13  C   UNL     1     -43.071  54.143 -55.770  1.00  0.00     0.037 A 
HETATM   14  C   UNL     1     -42.815  55.184 -56.661  1.00  0.00     0.069 A 
HETATM   15  C   UNL     1     -42.072  56.283 -56.236  1.00  0.00     0.037 A 
HETATM   16  C   UNL     1     -41.653  56.372 -54.905  1.00  0.00     0.012 A 
BRANCH  14  17
HETATM   17  O   UNL     1     -43.329  55.022 -57.919  1.00  0.00    -0.348 OA
BRANCH  17  18
HETATM   18  C   UNL     1     -43.012  56.063 -58.845  1.00  0.00     0.202 C 
BRANCH  18  19
HETATM   19  C   UNL     1     -43.889  55.881 -60.048  1.00  0.00    -0.011 C 
HETATM   20  C   UNL     1     -44.610  54.781 -60.302  1.00  0.00     0.009 C 
ENDBRANCH  18  19
ENDBRANCH  17  18
ENDBRANCH  14  17
ENDBRANCH   1  11
BRANCH   2  21
HETATM   21  C   UNL     1     -39.832  53.777 -51.972  1.00  0.00     0.167 C 
BRANCH  21  22
HETATM   22  C   UNL     1     -39.862  52.389 -52.553  1.00  0.00    -0.023 A 
HETATM   23  C   UNL     1     -39.576  51.275 -51.771  1.00  0.00     0.125 A 
HETATM   24  N   UNL     1     -39.632  50.000 -52.218  1.00  0.00    -0.273 NA
HETATM   25  C   UNL     1     -39.982  49.822 -53.510  1.00  0.00     0.116 A 
HETATM   26  C   UNL     1     -40.280  50.860 -54.376  1.00  0.00     0.020 A 
HETATM   27  C   UNL     1     -40.216  52.162 -53.887  1.00  0.00     0.012 A 
ENDBRANCH  21  22
ENDBRANCH   2  21
BRANCH  10  28
HETATM   28  C   UNL     1     -44.234  57.871 -52.570  1.00  0.00     0.028 A 
HETATM   29  C   UNL     1     -44.897  57.754 -53.800  1.00  0.00     0.078 A 
HETATM   30  C   UNL     1     -45.259  58.885 -54.530  1.00  0.00     0.037 A 
HETATM   31  C   UNL     1     -44.926  60.154 -54.056  1.00  0.00     0.003 A 
HETATM   32  C   UNL     1     -44.234  60.287 -52.854  1.00  0.00     0.001 A 
HETATM   33  C   UNL     1     -43.892  59.153 -52.114  1.00  0.00     0.017 A 
BRANCH  29  34
HETATM   34  O   UNL     1     -45.205  56.545 -54.366  1.00  0.00    -0.360 OA
HETATM   35  H   UNL     1     -44.875  55.858 -53.759  1.00  0.00     0.217 HD
ENDBRANCH  29  34
ENDBRANCH  10  28
TORSDOF 8
ENDMDL
MODEL 7
REMARK VINA RESULT:      -7.8      1.737      5.995
REMARK  8 active torsions:
REMARK  status: ('A' for Active; 'I' for Inactive)
REMARK    1  A    between atoms: C_2  and  C_3 
REMARK    2  A    between atoms: C_3  and  O_4 
REMARK    3  A    between atoms: O_4  and  C_5 
REMARK    4  A    between atoms: C_8  and  C_9 
REMARK    5  A    between atoms: N_10  and  C_11 
REMARK    6  A    between atoms: C_11  and  C_12 
REMARK    7  A    between atoms: C_25  and  C_26 
REMARK    8  A    between atoms: C_27  and  O_28 
ROOT
HETATM    1  C   UNL     1     -43.329  57.146 -54.346  1.00  0.00     0.159 A 
HETATM    2  N   UNL     1     -43.396  58.149 -55.446  1.00  0.00    -0.329 N 
HETATM    3  C   UNL     1     -42.876  59.403 -55.100  1.00  0.00     0.273 A 
HETATM    4  O   UNL     1     -42.870  60.429 -55.756  1.00  0.00    -0.266 OA
HETATM    5  C   UNL     1     -42.400  59.213 -53.782  1.00  0.00     0.129 A 
HETATM    6  C   UNL     1     -42.639  57.955 -53.316  1.00  0.00     0.034 A 
HETATM    7  N   UNL     1     -41.772  59.897 -52.814  1.00  0.00    -0.272 N 
HETATM    8  H   UNL     1     -41.441  60.857 -52.815  1.00  0.00     0.189 HD
HETATM    9  N   UNL     1     -41.582  59.131 -51.708  1.00  0.00    -0.173 NA
HETATM   10  C   UNL     1     -42.114  57.925 -52.016  1.00  0.00     0.101 A 
ENDROOT
BRANCH   1  11
HETATM   11  C   UNL     1     -42.449  55.953 -54.632  1.00  0.00    -0.030 A 
HETATM   12  C   UNL     1     -41.058  56.056 -54.799  1.00  0.00     0.012 A 
HETATM   13  C   UNL     1     -40.274  54.909 -54.949  1.00  0.00     0.037 A 
HETATM   14  C   UNL     1     -40.858  53.644 -54.925  1.00  0.00     0.069 A 
HETATM   15  C   UNL     1     -42.242  53.529 -54.826  1.00  0.00     0.037 A 
HETATM   16  C   UNL     1     -43.030  54.674 -54.675  1.00  0.00     0.012 A 
BRANCH  14  17
HETATM   17  O   UNL     1     -39.987  52.592 -55.013  1.00  0.00    -0.348 OA
BRANCH  17  18
HETATM   18  C   UNL     1     -40.181  51.557 -54.047  1.00  0.00     0.202 C 
BRANCH  18  19
HETATM   19  C   UNL     1     -39.915  52.144 -52.694  1.00  0.00    -0.011 C 
HETATM   20  C   UNL     1     -39.599  51.428 -51.606  1.00  0.00     0.009 C 
ENDBRANCH  18  19
ENDBRANCH  17  18
ENDBRANCH  14  17
ENDBRANCH   1  11
BRANCH   2  21
HETATM   21  C   UNL     1     -44.232  57.945 -56.609  1.00  0.00     0.167 C 
BRANCH  21  22
HETATM   22  C   UNL     1     -43.425  57.530 -57.809  1.00  0.00    -0.023 A 
HETATM   23  C   UNL     1     -43.440  56.217 -58.268  1.00  0.00     0.125 A 
HETATM   24  N   UNL     1     -42.776  55.790 -59.366  1.00  0.00    -0.273 NA
HETATM   25  C   UNL     1     -42.056  56.712 -60.040  1.00  0.00     0.116 A 
HETATM   26  C   UNL     1     -41.968  58.042 -59.667  1.00  0.00     0.020 A 
HETATM   27  C   UNL     1     -42.662  58.453 -58.533  1.00  0.00     0.012 A 
ENDBRANCH  21  22
ENDBRANCH   2  21
BRANCH  10  28
HETATM   28  C   UNL     1     -42.078  56.805 -51.082  1.00  0.00     0.028 A 
HETATM   29  C   UNL     1     -43.209  56.027 -50.797  1.00  0.00     0.078 A 
HETATM   30  C   UNL     1     -43.117  54.898 -49.984  1.00  0.00     0.037 A 
HETATM   31  C   UNL     1     -41.893  54.552 -49.411  1.00  0.00     0.003 A 
HETATM   32  C   UNL     1     -40.766  55.336 -49.654  1.00  0.00     0.001 A 
HETATM   33  C   UNL     1     -40.857  56.454 -50.486  1.00  0.00     0.017 A 
BRANCH  29  34
HETATM   34  O   UNL     1     -44.459  56.332 -51.267  1.00  0.00    -0.360 OA
HETATM   35  H   UNL     1     -44.684  55.655 -51.931  1.00  0.00     0.217 HD
ENDBRANCH  29  34
ENDBRANCH  10  28
TORSDOF 8
ENDMDL
MODEL 8
REMARK VINA RESULT:      -7.5      2.060      6.124
REMARK  8 active torsions:
REMARK  status: ('A' for Active; 'I' for Inactive)
REMARK    1  A    between atoms: C_2  and  C_3 
REMARK    2  A    between atoms: C_3  and  O_4 
REMARK    3  A    between atoms: O_4  and  C_5 
REMARK    4  A    between atoms: C_8  and  C_9 
REMARK    5  A    between atoms: N_10  and  C_11 
REMARK    6  A    between atoms: C_11  and  C_12 
REMARK    7  A    between atoms: C_25  and  C_26 
REMARK    8  A    between atoms: C_27  and  O_28 
ROOT
HETATM    1  C   UNL     1     -43.102  56.579 -56.369  1.00  0.00     0.159 A 
HETATM    2  N   UNL     1     -42.646  56.976 -57.730  1.00  0.00    -0.329 N 
HETATM    3  C   UNL     1     -42.268  58.321 -57.831  1.00  0.00     0.273 A 
HETATM    4  O   UNL     1     -41.934  58.944 -58.823  1.00  0.00    -0.266 OA
HETATM    5  C   UNL     1     -42.413  58.805 -56.510  1.00  0.00     0.129 A 
HETATM    6  C   UNL     1     -42.885  57.857 -55.654  1.00  0.00     0.034 A 
HETATM    7  N   UNL     1     -42.231  59.935 -55.811  1.00  0.00    -0.272 N 
HETATM    8  H   UNL     1     -41.888  60.838 -56.124  1.00  0.00     0.189 HD
HETATM    9  N   UNL     1     -42.569  59.771 -54.505  1.00  0.00    -0.173 NA
HETATM   10  C   UNL     1     -42.971  58.483 -54.402  1.00  0.00     0.101 A 
ENDROOT
BRANCH   1  11
HETATM   11  C   UNL     1     -42.241  55.542 -55.690  1.00  0.00    -0.030 A 
HETATM   12  C   UNL     1     -40.874  55.738 -55.434  1.00  0.00     0.012 A 
HETATM   13  C   UNL     1     -40.145  54.797 -54.702  1.00  0.00     0.037 A 
HETATM   14  C   UNL     1     -40.765  53.651 -54.207  1.00  0.00     0.069 A 
HETATM   15  C   UNL     1     -42.104  53.411 -54.509  1.00  0.00     0.037 A 
HETATM   16  C   UNL     1     -42.836  54.352 -55.239  1.00  0.00     0.012 A 
BRANCH  14  17
HETATM   17  O   UNL     1     -39.972  52.833 -53.448  1.00  0.00    -0.348 OA
BRANCH  17  18
HETATM   18  C   UNL     1     -40.573  51.599 -53.050  1.00  0.00     0.202 C 
BRANCH  18  19
HETATM   19  C   UNL     1     -39.677  50.489 -53.512  1.00  0.00    -0.011 C 
HETATM   20  C   UNL     1     -39.808  49.846 -54.681  1.00  0.00     0.009 C 
ENDBRANCH  18  19
ENDBRANCH  17  18
ENDBRANCH  14  17
ENDBRANCH   1  11
BRANCH   2  21
HETATM   21  C   UNL     1     -42.909  56.151 -58.890  1.00  0.00     0.167 C 
BRANCH  21  22
HETATM   22  C   UNL     1     -44.338  56.272 -59.346  1.00  0.00    -0.023 A 
HETATM   23  C   UNL     1     -45.172  57.267 -58.847  1.00  0.00     0.125 A 
HETATM   24  N   UNL     1     -46.449  57.459 -59.249  1.00  0.00    -0.273 NA
HETATM   25  C   UNL     1     -46.924  56.617 -60.190  1.00  0.00     0.116 A 
HETATM   26  C   UNL     1     -46.183  55.590 -60.749  1.00  0.00     0.020 A 
HETATM   27  C   UNL     1     -44.871  55.417 -60.316  1.00  0.00     0.012 A 
ENDBRANCH  21  22
ENDBRANCH   2  21
BRANCH  10  28
HETATM   28  C   UNL     1     -43.390  57.905 -53.130  1.00  0.00     0.028 A 
HETATM   29  C   UNL     1     -44.577  58.284 -52.486  1.00  0.00     0.078 A 
HETATM   30  C   UNL     1     -45.004  57.637 -51.328  1.00  0.00     0.037 A 
HETATM   31  C   UNL     1     -44.225  56.621 -50.773  1.00  0.00     0.003 A 
HETATM   32  C   UNL     1     -43.024  56.257 -51.379  1.00  0.00     0.001 A 
HETATM   33  C   UNL     1     -42.610  56.893 -52.552  1.00  0.00     0.017 A 
BRANCH  29  34
HETATM   34  O   UNL     1     -45.367  59.312 -52.929  1.00  0.00    -0.360 OA
HETATM   35  H   UNL     1     -46.221  59.231 -52.467  1.00  0.00     0.217 HD
ENDBRANCH  29  34
ENDBRANCH  10  28
TORSDOF 8
ENDMDL
MODEL 9
REMARK VINA RESULT:      -7.3      1.474      2.116
REMARK  8 active torsions:
REMARK  status: ('A' for Active; 'I' for Inactive)
REMARK    1  A    between atoms: C_2  and  C_3 
REMARK    2  A    between atoms: C_3  and  O_4 
REMARK    3  A    between atoms: O_4  and  C_5 
REMARK    4  A    between atoms: C_8  and  C_9 
REMARK    5  A    between atoms: N_10  and  C_11 
REMARK    6  A    between atoms: C_11  and  C_12 
REMARK    7  A    between atoms: C_25  and  C_26 
REMARK    8  A    between atoms: C_27  and  O_28 
ROOT
HETATM    1  C   UNL     1     -43.121  58.644 -54.980  1.00  0.00     0.159 A 
HETATM    2  N   UNL     1     -43.824  59.239 -53.809  1.00  0.00    -0.329 N 
HETATM    3  C   UNL     1     -45.126  59.671 -54.090  1.00  0.00     0.273 A 
HETATM    4  O   UNL     1     -45.903  60.264 -53.363  1.00  0.00    -0.266 OA
HETATM    5  C   UNL     1     -45.314  59.301 -55.442  1.00  0.00     0.129 A 
HETATM    6  C   UNL     1     -44.206  58.722 -55.984  1.00  0.00     0.034 A 
HETATM    7  N   UNL     1     -46.261  59.342 -56.390  1.00  0.00    -0.272 N 
HETATM    8  H   UNL     1     -47.210  59.701 -56.338  1.00  0.00     0.189 HD
HETATM    9  N   UNL     1     -45.819  58.805 -57.557  1.00  0.00    -0.173 NA
HETATM   10  C   UNL     1     -44.547  58.415 -57.310  1.00  0.00     0.101 A 
ENDROOT
BRANCH   1  11
HETATM   11  C   UNL     1     -42.765  57.185 -54.829  1.00  0.00    -0.030 A 
HETATM   12  C   UNL     1     -43.730  56.180 -54.653  1.00  0.00     0.012 A 
HETATM   13  C   UNL     1     -43.359  54.833 -54.631  1.00  0.00     0.037 A 
HETATM   14  C   UNL     1     -42.025  54.464 -54.794  1.00  0.00     0.069 A 
HETATM   15  C   UNL     1     -41.048  55.452 -54.904  1.00  0.00     0.037 A 
HETATM   16  C   UNL     1     -41.416  56.800 -54.927  1.00  0.00     0.012 A 
BRANCH  14  17
HETATM   17  O   UNL     1     -41.786  53.117 -54.824  1.00  0.00    -0.348 OA
BRANCH  17  18
HETATM   18  C   UNL     1     -40.419  52.736 -54.652  1.00  0.00     0.202 C 
BRANCH  18  19
HETATM   19  C   UNL     1     -40.264  52.226 -53.250  1.00  0.00    -0.011 C 
HETATM   20  C   UNL     1     -40.403  52.979 -52.150  1.00  0.00     0.009 C 
ENDBRANCH  18  19
ENDBRANCH  17  18
ENDBRANCH  14  17
ENDBRANCH   1  11
BRANCH   2  21
HETATM   21  C   UNL     1     -43.106  59.647 -52.620  1.00  0.00     0.167 C 
BRANCH  21  22
HETATM   22  C   UNL     1     -42.674  58.464 -51.796  1.00  0.00    -0.023 A 
HETATM   23  C   UNL     1     -43.588  57.497 -51.390  1.00  0.00     0.125 A 
HETATM   24  N   UNL     1     -43.257  56.387 -50.691  1.00  0.00    -0.273 NA
HETATM   25  C   UNL     1     -41.954  56.233 -50.373  1.00  0.00     0.116 A 
HETATM   26  C   UNL     1     -40.965  57.137 -50.722  1.00  0.00     0.020 A 
HETATM   27  C   UNL     1     -41.335  58.269 -51.443  1.00  0.00     0.012 A 
ENDBRANCH  21  22
ENDBRANCH   2  21
BRANCH  10  28
HETATM   28  C   UNL     1     -43.731  57.755 -58.322  1.00  0.00     0.028 A 
HETATM   29  C   UNL     1     -43.030  58.468 -59.305  1.00  0.00     0.078 A 
HETATM   30  C   UNL     1     -42.173  57.816 -60.191  1.00  0.00     0.037 A 
HETATM   31  C   UNL     1     -42.036  56.429 -60.130  1.00  0.00     0.003 A 
HETATM   32  C   UNL     1     -42.754  55.700 -59.184  1.00  0.00     0.001 A 
HETATM   33  C   UNL     1     -43.595  56.359 -58.283  1.00  0.00     0.017 A 
BRANCH  29  34
HETATM   34  O   UNL     1     -43.156  59.821 -59.473  1.00  0.00    -0.360 OA
HETATM   35  H   UNL     1     -43.982  59.968 -59.970  1.00  0.00     0.217 HD
ENDBRANCH  29  34
ENDBRANCH  10  28
TORSDOF 8
ENDMDL
MODEL 10
REMARK VINA RESULT:      -7.3      2.574      5.678
REMARK  8 active torsions:
REMARK  status: ('A' for Active; 'I' for Inactive)
REMARK    1  A    between atoms: C_2  and  C_3 
REMARK    2  A    between atoms: C_3  and  O_4 
REMARK    3  A    between atoms: O_4  and  C_5 
REMARK    4  A    between atoms: C_8  and  C_9 
REMARK    5  A    between atoms: N_10  and  C_11 
REMARK    6  A    between atoms: C_11  and  C_12 
REMARK    7  A    between atoms: C_25  and  C_26 
REMARK    8  A    between atoms: C_27  and  O_28 
ROOT
HETATM    1  C   UNL     1     -43.672  55.935 -53.580  1.00  0.00     0.159 A 
HETATM    2  N   UNL     1     -42.894  54.699 -53.290  1.00  0.00    -0.329 N 
HETATM    3  C   UNL     1     -42.182  54.207 -54.391  1.00  0.00     0.273 A 
HETATM    4  O   UNL     1     -41.531  53.181 -54.478  1.00  0.00    -0.266 OA
HETATM    5  C   UNL     1     -42.438  55.160 -55.404  1.00  0.00     0.129 A 
HETATM    6  C   UNL     1     -43.277  56.150 -54.990  1.00  0.00     0.034 A 
HETATM    7  N   UNL     1     -42.109  55.407 -56.681  1.00  0.00    -0.272 N 
HETATM    8  H   UNL     1     -41.503  54.882 -57.303  1.00  0.00     0.189 HD
HETATM    9  N   UNL     1     -42.707  56.539 -57.138  1.00  0.00    -0.173 NA
HETATM   10  C   UNL     1     -43.429  57.005 -56.092  1.00  0.00     0.101 A 
ENDROOT
BRANCH   1  11
HETATM   11  C   UNL     1     -43.232  57.156 -52.809  1.00  0.00    -0.030 A 
HETATM   12  C   UNL     1     -41.900  57.598 -52.780  1.00  0.00     0.012 A 
HETATM   13  C   UNL     1     -41.561  58.796 -52.144  1.00  0.00     0.037 A 
HETATM   14  C   UNL     1     -42.543  59.577 -51.537  1.00  0.00     0.069 A 
HETATM   15  C   UNL     1     -43.858  59.118 -51.500  1.00  0.00     0.037 A 
HETATM   16  C   UNL     1     -44.200  57.921 -52.136  1.00  0.00     0.012 A 
BRANCH  14  17
HETATM   17  O   UNL     1     -42.109  60.760 -51.005  1.00  0.00    -0.348 OA
BRANCH  17  18
HETATM   18  C   UNL     1     -43.069  61.462 -50.213  1.00  0.00     0.202 C 
BRANCH  18  19
HETATM   19  C   UNL     1     -42.992  62.912 -50.586  1.00  0.00    -0.011 C 
HETATM   20  C   UNL     1     -44.049  63.731 -50.673  1.00  0.00     0.009 C 
ENDBRANCH  18  19
ENDBRANCH  17  18
ENDBRANCH  14  17
ENDBRANCH   1  11
BRANCH   2  21
HETATM   21  C   UNL     1     -43.141  53.907 -52.104  1.00  0.00     0.167 C 
BRANCH  21  22
HETATM   22  C   UNL     1     -42.046  54.073 -51.085  1.00  0.00    -0.023 A 
HETATM   23  C   UNL     1     -42.219  54.882 -49.967  1.00  0.00     0.125 A 
HETATM   24  N   UNL     1     -41.295  55.036 -48.992  1.00  0.00    -0.273 NA
HETATM   25  C   UNL     1     -40.137  54.356 -49.137  1.00  0.00     0.116 A 
HETATM   26  C   UNL     1     -39.860  53.530 -50.213  1.00  0.00     0.020 A 
HETATM   27  C   UNL     1     -40.831  53.390 -51.200  1.00  0.00     0.012 A 
ENDBRANCH  21  22
ENDBRANCH   2  21
BRANCH  10  28
HETATM   28  C   UNL     1     -44.201  58.240 -56.177  1.00  0.00     0.028 A 
HETATM   29  C   UNL     1     -45.366  58.347 -56.950  1.00  0.00     0.078 A 
HETATM   30  C   UNL     1     -46.140  59.507 -56.925  1.00  0.00     0.037 A 
HETATM   31  C   UNL     1     -45.735  60.595 -56.152  1.00  0.00     0.003 A 
HETATM   32  C   UNL     1     -44.560  60.520 -55.407  1.00  0.00     0.001 A 
HETATM   33  C   UNL     1     -43.798  59.349 -55.417  1.00  0.00     0.017 A 
BRANCH  29  34
HETATM   34  O   UNL     1     -45.799  57.350 -57.783  1.00  0.00    -0.360 OA
HETATM   35  H   UNL     1     -46.627  57.004 -57.403  1.00  0.00     0.217 HD
ENDBRANCH  29  34
ENDBRANCH  10  28
TORSDOF 8
ENDMDL
