MODEL 1
REMARK VINA RESULT:      -8.7      0.000      0.000
REMARK  10 active torsions:
REMARK  status: ('A' for Active; 'I' for Inactive)
REMARK    1  A    between atoms: C_2  and  C_3 
REMARK    2  A    between atoms: C_3  and  C_4 
REMARK    3  A    between atoms: C_4  and  O_5 
REMARK    4  A    between atoms: O_5  and  C_6 
REMARK    5  A    between atoms: C_9  and  C_10 
REMARK       I    between atoms: C_10  and  N_11 
REMARK    6  A    between atoms: N_11  and  C_12 
REMARK    7  A    between atoms: C_12  and  N_13 
REMARK    8  A    between atoms: N_13  and  C_14 
REMARK    9  A    between atoms: C_16  and  O_17 
REMARK   10  A    between atoms: C_18  and  C_19 
ROOT
HETATM    1  N   UNL     1     -44.764  59.768 -51.805  1.00  0.00    -0.333 N 
HETATM    2  H   UNL     1     -45.709  59.540 -51.520  1.00  0.00     0.168 HD
ENDROOT
BRANCH   1   3
HETATM    3  C   UNL     1     -44.426  61.050 -51.542  1.00  0.00     0.179 C 
HETATM    4  S   UNL     1     -43.481  61.879 -52.647  1.00  0.00    -0.040 SA
BRANCH   3   5
HETATM    5  N   UNL     1     -44.782  61.694 -50.399  1.00  0.00    -0.299 N 
HETATM    6  C   UNL     1     -45.328  61.136 -49.245  1.00  0.00     0.257 C 
HETATM    7  O   UNL     1     -45.873  60.042 -49.165  1.00  0.00    -0.267 OA
HETATM    8  H   UNL     1     -44.254  62.544 -50.278  1.00  0.00     0.171 HD
BRANCH   6   9
HETATM    9  C   UNL     1     -45.261  61.996 -48.023  1.00  0.00     0.032 A 
HETATM   10  C   UNL     1     -44.997  63.362 -48.193  1.00  0.00     0.020 A 
HETATM   11  C   UNL     1     -44.894  64.209 -47.085  1.00  0.00     0.038 A 
HETATM   12  C   UNL     1     -45.077  63.695 -45.802  1.00  0.00     0.068 A 
HETATM   13  C   UNL     1     -45.344  62.341 -45.623  1.00  0.00     0.038 A 
HETATM   14  C   UNL     1     -45.456  61.492 -46.729  1.00  0.00     0.020 A 
BRANCH  12  15
HETATM   15  O   UNL     1     -44.911  64.448 -44.674  1.00  0.00    -0.351 OA
BRANCH  15  16
HETATM   16  C   UNL     1     -44.700  63.662 -43.496  1.00  0.00     0.175 C 
BRANCH  16  17
HETATM   17  C   UNL     1     -43.380  64.092 -42.856  1.00  0.00     0.026 C 
BRANCH  17  18
HETATM   18  C   UNL     1     -43.326  63.738 -41.367  1.00  0.00    -0.002 C 
HETATM   19  C   UNL     1     -44.716  63.683 -40.753  1.00  0.00     0.005 C 
ENDBRANCH  17  18
ENDBRANCH  16  17
ENDBRANCH  15  16
ENDBRANCH  12  15
ENDBRANCH   6   9
ENDBRANCH   3   5
ENDBRANCH   1   3
BRANCH   1  20
HETATM   20  C   UNL     1     -43.931  58.641 -52.006  1.00  0.00     0.036 A 
HETATM   21  C   UNL     1     -44.415  57.639 -52.855  1.00  0.00     0.067 A 
HETATM   22  C   UNL     1     -43.711  56.437 -53.022  1.00  0.00     0.082 A 
HETATM   23  C   UNL     1     -42.505  56.205 -52.347  1.00  0.00     0.050 A 
HETATM   24  C   UNL     1     -42.028  57.226 -51.506  1.00  0.00     0.021 A 
HETATM   25  C   UNL     1     -42.731  58.427 -51.333  1.00  0.00     0.030 A 
BRANCH  22  26
HETATM   26  O   UNL     1     -44.254  55.474 -53.832  1.00  0.00    -0.360 OA
HETATM   27  H   UNL     1     -43.861  55.528 -54.718  1.00  0.00     0.217 HD
ENDBRANCH  22  26
BRANCH  23  28
HETATM   28  C   UNL     1     -41.737  54.959 -52.424  1.00  0.00     0.183 A 
HETATM   29  O   UNL     1     -41.779  54.253 -53.601  1.00  0.00    -0.289 OA
HETATM   30  C   UNL     1     -41.009  53.155 -53.361  1.00  0.00     0.107 A 
HETATM   31  C   UNL     1     -40.524  53.253 -52.069  1.00  0.00     0.093 A 
HETATM   32  C   UNL     1     -40.744  52.105 -54.233  1.00  0.00     0.046 A 
HETATM   33  N   UNL     1     -40.978  54.409 -51.488  1.00  0.00    -0.221 NA
HETATM   34  C   UNL     1     -39.709  52.228 -51.575  1.00  0.00     0.035 A 
HETATM   35  C   UNL     1     -39.419  51.145 -52.421  1.00  0.00     0.009 A 
HETATM   36  C   UNL     1     -39.916  51.083 -53.736  1.00  0.00    -0.059 A 
HETATM   37  C   UNL     1     -39.606  49.887 -54.593  1.00  0.00     0.048 C 
ENDBRANCH  23  28
ENDBRANCH   1  20
TORSDOF 10
ENDMDL
MODEL 2
REMARK VINA RESULT:      -8.5      5.722      9.482
REMARK  10 active torsions:
REMARK  status: ('A' for Active; 'I' for Inactive)
REMARK    1  A    between atoms: C_2  and  C_3 
REMARK    2  A    between atoms: C_3  and  C_4 
REMARK    3  A    between atoms: C_4  and  O_5 
REMARK    4  A    between atoms: O_5  and  C_6 
REMARK    5  A    between atoms: C_9  and  C_10 
REMARK       I    between atoms: C_10  and  N_11 
REMARK    6  A    between atoms: N_11  and  C_12 
REMARK    7  A    between atoms: C_12  and  N_13 
REMARK    8  A    between atoms: N_13  and  C_14 
REMARK    9  A    between atoms: C_16  and  O_17 
REMARK   10  A    between atoms: C_18  and  C_19 
ROOT
HETATM    1  N   UNL     1     -45.300  59.745 -53.079  1.00  0.00    -0.333 N 
HETATM    2  H   UNL     1     -45.560  60.061 -52.152  1.00  0.00     0.168 HD
ENDROOT
BRANCH   1   3
HETATM    3  C   UNL     1     -45.550  60.662 -54.040  1.00  0.00     0.179 C 
HETATM    4  S   UNL     1     -45.586  62.283 -53.621  1.00  0.00    -0.040 SA
BRANCH   3   5
HETATM    5  N   UNL     1     -45.815  60.333 -55.332  1.00  0.00    -0.299 N 
HETATM    6  C   UNL     1     -44.903  60.190 -56.376  1.00  0.00     0.257 C 
HETATM    7  O   UNL     1     -43.763  60.636 -56.399  1.00  0.00    -0.267 OA
HETATM    8  H   UNL     1     -46.667  59.799 -55.407  1.00  0.00     0.171 HD
BRANCH   6   9
HETATM    9  C   UNL     1     -45.412  59.456 -57.576  1.00  0.00     0.032 A 
HETATM   10  C   UNL     1     -46.334  58.420 -57.372  1.00  0.00     0.020 A 
HETATM   11  C   UNL     1     -46.821  57.680 -58.453  1.00  0.00     0.038 A 
HETATM   12  C   UNL     1     -46.404  57.989 -59.747  1.00  0.00     0.068 A 
HETATM   13  C   UNL     1     -45.493  59.019 -59.961  1.00  0.00     0.038 A 
HETATM   14  C   UNL     1     -45.010  59.767 -58.882  1.00  0.00     0.020 A 
BRANCH  12  15
HETATM   15  O   UNL     1     -46.778  57.257 -60.839  1.00  0.00    -0.351 OA
BRANCH  15  16
HETATM   16  C   UNL     1     -46.671  55.844 -60.635  1.00  0.00     0.175 C 
BRANCH  16  17
HETATM   17  C   UNL     1     -45.261  55.402 -61.025  1.00  0.00     0.026 C 
BRANCH  17  18
HETATM   18  C   UNL     1     -44.500  54.806 -59.837  1.00  0.00    -0.002 C 
HETATM   19  C   UNL     1     -43.404  55.740 -59.348  1.00  0.00     0.005 C 
ENDBRANCH  17  18
ENDBRANCH  16  17
ENDBRANCH  15  16
ENDBRANCH  12  15
ENDBRANCH   6   9
ENDBRANCH   3   5
ENDBRANCH   1   3
BRANCH   1  20
HETATM   20  C   UNL     1     -44.395  58.657 -53.087  1.00  0.00     0.036 A 
HETATM   21  C   UNL     1     -44.780  57.519 -53.806  1.00  0.00     0.067 A 
HETATM   22  C   UNL     1     -44.002  56.353 -53.776  1.00  0.00     0.082 A 
HETATM   23  C   UNL     1     -42.818  56.292 -53.029  1.00  0.00     0.050 A 
HETATM   24  C   UNL     1     -42.440  57.446 -52.321  1.00  0.00     0.021 A 
HETATM   25  C   UNL     1     -43.219  58.613 -52.344  1.00  0.00     0.030 A 
BRANCH  22  26
HETATM   26  O   UNL     1     -44.449  55.255 -54.464  1.00  0.00    -0.360 OA
HETATM   27  H   UNL     1     -43.723  54.621 -54.582  1.00  0.00     0.217 HD
ENDBRANCH  22  26
BRANCH  23  28
HETATM   28  C   UNL     1     -41.977  55.098 -52.901  1.00  0.00     0.183 A 
HETATM   29  O   UNL     1     -41.910  54.244 -53.975  1.00  0.00    -0.289 OA
HETATM   30  C   UNL     1     -41.095  53.238 -53.553  1.00  0.00     0.107 A 
HETATM   31  C   UNL     1     -40.692  53.533 -52.263  1.00  0.00     0.093 A 
HETATM   32  C   UNL     1     -40.721  52.103 -54.263  1.00  0.00     0.046 A 
HETATM   33  N   UNL     1     -41.244  54.724 -51.863  1.00  0.00    -0.221 NA
HETATM   34  C   UNL     1     -39.850  52.635 -51.596  1.00  0.00     0.035 A 
HETATM   35  C   UNL     1     -39.450  51.473 -52.275  1.00  0.00     0.009 A 
HETATM   36  C   UNL     1     -39.866  51.209 -53.594  1.00  0.00    -0.059 A 
HETATM   37  C   UNL     1     -39.439  49.935 -54.268  1.00  0.00     0.048 C 
ENDBRANCH  23  28
ENDBRANCH   1  20
TORSDOF 10
ENDMDL
MODEL 3
REMARK VINA RESULT:      -8.3      5.613      9.297
REMARK  10 active torsions:
REMARK  status: ('A' for Active; 'I' for Inactive)
REMARK    1  A    between atoms: C_2  and  C_3 
REMARK    2  A    between atoms: C_3  and  C_4 
REMARK    3  A    between atoms: C_4  and  O_5 
REMARK    4  A    between atoms: O_5  and  C_6 
REMARK    5  A    between atoms: C_9  and  C_10 
REMARK       I    between atoms: C_10  and  N_11 
REMARK    6  A    between atoms: N_11  and  C_12 
REMARK    7  A    between atoms: C_12  and  N_13 
REMARK    8  A    between atoms: N_13  and  C_14 
REMARK    9  A    between atoms: C_16  and  O_17 
REMARK   10  A    between atoms: C_18  and  C_19 
ROOT
HETATM    1  N   UNL     1     -44.422  60.189 -52.716  1.00  0.00    -0.333 N 
HETATM    2  H   UNL     1     -43.842  61.016 -52.634  1.00  0.00     0.168 HD
ENDROOT
BRANCH   1   3
HETATM    3  C   UNL     1     -45.600  60.428 -53.335  1.00  0.00     0.179 C 
HETATM    4  S   UNL     1     -46.850  61.111 -52.455  1.00  0.00    -0.040 SA
BRANCH   3   5
HETATM    5  N   UNL     1     -45.838  60.105 -54.632  1.00  0.00    -0.299 N 
HETATM    6  C   UNL     1     -44.982  60.269 -55.720  1.00  0.00     0.257 C 
HETATM    7  O   UNL     1     -44.009  61.012 -55.761  1.00  0.00    -0.267 OA
HETATM    8  H   UNL     1     -46.516  59.362 -54.707  1.00  0.00     0.171 HD
BRANCH   6   9
HETATM    9  C   UNL     1     -45.339  59.485 -56.942  1.00  0.00     0.032 A 
HETATM   10  C   UNL     1     -44.521  59.618 -58.073  1.00  0.00     0.020 A 
HETATM   11  C   UNL     1     -44.823  58.932 -59.253  1.00  0.00     0.038 A 
HETATM   12  C   UNL     1     -45.934  58.091 -59.300  1.00  0.00     0.068 A 
HETATM   13  C   UNL     1     -46.750  57.948 -58.181  1.00  0.00     0.038 A 
HETATM   14  C   UNL     1     -46.446  58.626 -56.996  1.00  0.00     0.020 A 
BRANCH  12  15
HETATM   15  O   UNL     1     -46.332  57.455 -60.442  1.00  0.00    -0.351 OA
BRANCH  15  16
HETATM   16  C   UNL     1     -46.421  56.034 -60.295  1.00  0.00     0.175 C 
BRANCH  16  17
HETATM   17  C   UNL     1     -45.158  55.405 -60.883  1.00  0.00     0.026 C 
BRANCH  17  18
HETATM   18  C   UNL     1     -44.236  54.849 -59.794  1.00  0.00    -0.002 C 
HETATM   19  C   UNL     1     -43.011  55.729 -59.594  1.00  0.00     0.005 C 
ENDBRANCH  17  18
ENDBRANCH  16  17
ENDBRANCH  15  16
ENDBRANCH  12  15
ENDBRANCH   6   9
ENDBRANCH   3   5
ENDBRANCH   1   3
BRANCH   1  20
HETATM   20  C   UNL     1     -43.720  58.970 -52.558  1.00  0.00     0.036 A 
HETATM   21  C   UNL     1     -42.391  58.943 -52.995  1.00  0.00     0.067 A 
HETATM   22  C   UNL     1     -41.655  57.749 -52.984  1.00  0.00     0.082 A 
HETATM   23  C   UNL     1     -42.226  56.551 -52.535  1.00  0.00     0.050 A 
HETATM   24  C   UNL     1     -43.559  56.597 -52.091  1.00  0.00     0.021 A 
HETATM   25  C   UNL     1     -44.300  57.788 -52.105  1.00  0.00     0.030 A 
BRANCH  22  26
HETATM   26  O   UNL     1     -40.371  57.773 -53.464  1.00  0.00    -0.360 OA
HETATM   27  H   UNL     1     -39.786  57.284 -52.863  1.00  0.00     0.217 HD
ENDBRANCH  22  26
BRANCH  23  28
HETATM   28  C   UNL     1     -41.546  55.253 -52.542  1.00  0.00     0.183 A 
HETATM   29  O   UNL     1     -41.571  54.522 -53.705  1.00  0.00    -0.289 OA
HETATM   30  C   UNL     1     -40.896  53.380 -53.399  1.00  0.00     0.107 A 
HETATM   31  C   UNL     1     -40.478  53.475 -52.083  1.00  0.00     0.093 A 
HETATM   32  C   UNL     1     -40.659  52.293 -54.231  1.00  0.00     0.046 A 
HETATM   33  N   UNL     1     -40.881  54.675 -51.552  1.00  0.00    -0.221 NA
HETATM   34  C   UNL     1     -39.767  52.409 -51.522  1.00  0.00     0.035 A 
HETATM   35  C   UNL     1     -39.508  51.288 -52.327  1.00  0.00     0.009 A 
HETATM   36  C   UNL     1     -39.934  51.228 -53.667  1.00  0.00    -0.059 A 
HETATM   37  C   UNL     1     -39.662  49.993 -54.480  1.00  0.00     0.048 C 
ENDBRANCH  23  28
ENDBRANCH   1  20
TORSDOF 10
ENDMDL
MODEL 4
REMARK VINA RESULT:      -8.1      5.451      8.754
REMARK  10 active torsions:
REMARK  status: ('A' for Active; 'I' for Inactive)
REMARK    1  A    between atoms: C_2  and  C_3 
REMARK    2  A    between atoms: C_3  and  C_4 
REMARK    3  A    between atoms: C_4  and  O_5 
REMARK    4  A    between atoms: O_5  and  C_6 
REMARK    5  A    between atoms: C_9  and  C_10 
REMARK       I    between atoms: C_10  and  N_11 
REMARK    6  A    between atoms: N_11  and  C_12 
REMARK    7  A    between atoms: C_12  and  N_13 
REMARK    8  A    between atoms: N_13  and  C_14 
REMARK    9  A    between atoms: C_16  and  O_17 
REMARK   10  A    between atoms: C_18  and  C_19 
ROOT
HETATM    1  N   UNL     1     -45.276  59.610 -52.658  1.00  0.00    -0.333 N 
HETATM    2  H   UNL     1     -45.545  59.855 -51.712  1.00  0.00     0.168 HD
ENDROOT
BRANCH   1   3
HETATM    3  C   UNL     1     -45.513  60.598 -53.549  1.00  0.00     0.179 C 
HETATM    4  S   UNL     1     -46.500  61.873 -53.096  1.00  0.00    -0.040 SA
BRANCH   3   5
HETATM    5  N   UNL     1     -45.023  60.592 -54.816  1.00  0.00    -0.299 N 
HETATM    6  C   UNL     1     -43.806  61.107 -55.258  1.00  0.00     0.257 C 
HETATM    7  O   UNL     1     -43.115  61.925 -54.664  1.00  0.00    -0.267 OA
HETATM    8  H   UNL     1     -45.408  59.832 -55.355  1.00  0.00     0.171 HD
BRANCH   6   9
HETATM    9  C   UNL     1     -43.356  60.628 -56.601  1.00  0.00     0.032 A 
HETATM   10  C   UNL     1     -44.277  60.670 -57.658  1.00  0.00     0.020 A 
HETATM   11  C   UNL     1     -43.921  60.208 -58.929  1.00  0.00     0.038 A 
HETATM   12  C   UNL     1     -42.634  59.721 -59.153  1.00  0.00     0.068 A 
HETATM   13  C   UNL     1     -41.711  59.679 -58.112  1.00  0.00     0.038 A 
HETATM   14  C   UNL     1     -42.061  60.149 -56.841  1.00  0.00     0.020 A 
BRANCH  12  15
HETATM   15  O   UNL     1     -42.245  59.180 -60.346  1.00  0.00    -0.351 OA
BRANCH  15  16
HETATM   16  C   UNL     1     -41.774  57.833 -60.229  1.00  0.00     0.175 C 
BRANCH  16  17
HETATM   17  C   UNL     1     -42.983  56.903 -60.124  1.00  0.00     0.026 C 
BRANCH  17  18
HETATM   18  C   UNL     1     -42.908  56.006 -58.886  1.00  0.00    -0.002 C 
HETATM   19  C   UNL     1     -43.680  56.599 -57.717  1.00  0.00     0.005 C 
ENDBRANCH  17  18
ENDBRANCH  16  17
ENDBRANCH  15  16
ENDBRANCH  12  15
ENDBRANCH   6   9
ENDBRANCH   3   5
ENDBRANCH   1   3
BRANCH   1  20
HETATM   20  C   UNL     1     -44.374  58.522 -52.741  1.00  0.00     0.036 A 
HETATM   21  C   UNL     1     -44.746  57.452 -53.562  1.00  0.00     0.067 A 
HETATM   22  C   UNL     1     -43.971  56.284 -53.616  1.00  0.00     0.082 A 
HETATM   23  C   UNL     1     -42.803  56.155 -52.852  1.00  0.00     0.050 A 
HETATM   24  C   UNL     1     -42.438  57.243 -52.040  1.00  0.00     0.021 A 
HETATM   25  C   UNL     1     -43.213  58.410 -51.980  1.00  0.00     0.030 A 
BRANCH  22  26
HETATM   26  O   UNL     1     -44.406  55.251 -54.404  1.00  0.00    -0.360 OA
HETATM   27  H   UNL     1     -45.016  54.687 -53.902  1.00  0.00     0.217 HD
ENDBRANCH  22  26
BRANCH  23  28
HETATM   28  C   UNL     1     -41.968  54.951 -52.809  1.00  0.00     0.183 A 
HETATM   29  O   UNL     1     -41.931  54.157 -53.929  1.00  0.00    -0.289 OA
HETATM   30  C   UNL     1     -41.113  53.125 -53.582  1.00  0.00     0.107 A 
HETATM   31  C   UNL     1     -40.679  53.346 -52.287  1.00  0.00     0.093 A 
HETATM   32  C   UNL     1     -40.763  52.029 -54.361  1.00  0.00     0.046 A 
HETATM   33  N   UNL     1     -41.214  54.516 -51.810  1.00  0.00    -0.221 NA
HETATM   34  C   UNL     1     -39.829  52.409 -51.690  1.00  0.00     0.035 A 
HETATM   35  C   UNL     1     -39.452  51.283 -52.441  1.00  0.00     0.009 A 
HETATM   36  C   UNL     1     -39.899  51.094 -53.762  1.00  0.00    -0.059 A 
HETATM   37  C   UNL     1     -39.496  49.857 -54.515  1.00  0.00     0.048 C 
ENDBRANCH  23  28
ENDBRANCH   1  20
TORSDOF 10
ENDMDL
MODEL 5
REMARK VINA RESULT:      -8.1      5.087      9.530
REMARK  10 active torsions:
REMARK  status: ('A' for Active; 'I' for Inactive)
REMARK    1  A    between atoms: C_2  and  C_3 
REMARK    2  A    between atoms: C_3  and  C_4 
REMARK    3  A    between atoms: C_4  and  O_5 
REMARK    4  A    between atoms: O_5  and  C_6 
REMARK    5  A    between atoms: C_9  and  C_10 
REMARK       I    between atoms: C_10  and  N_11 
REMARK    6  A    between atoms: N_11  and  C_12 
REMARK    7  A    between atoms: C_12  and  N_13 
REMARK    8  A    between atoms: N_13  and  C_14 
REMARK    9  A    between atoms: C_16  and  O_17 
REMARK   10  A    between atoms: C_18  and  C_19 
ROOT
HETATM    1  N   UNL     1     -42.205  60.406 -52.753  1.00  0.00    -0.333 N 
HETATM    2  H   UNL     1     -41.937  61.383 -52.800  1.00  0.00     0.168 HD
ENDROOT
BRANCH   1   3
HETATM    3  C   UNL     1     -42.425  59.979 -51.489  1.00  0.00     0.179 C 
HETATM    4  S   UNL     1     -42.887  61.093 -50.328  1.00  0.00    -0.040 SA
BRANCH   3   5
HETATM    5  N   UNL     1     -42.250  58.689 -51.099  1.00  0.00    -0.299 N 
HETATM    6  C   UNL     1     -43.140  57.628 -51.251  1.00  0.00     0.257 C 
HETATM    7  O   UNL     1     -44.342  57.725 -51.468  1.00  0.00    -0.267 OA
HETATM    8  H   UNL     1     -41.272  58.448 -51.054  1.00  0.00     0.171 HD
BRANCH   6   9
HETATM    9  C   UNL     1     -42.548  56.264 -51.088  1.00  0.00     0.032 A 
HETATM   10  C   UNL     1     -41.442  56.125 -50.238  1.00  0.00     0.020 A 
HETATM   11  C   UNL     1     -40.829  54.879 -50.069  1.00  0.00     0.038 A 
HETATM   12  C   UNL     1     -41.334  53.763 -50.734  1.00  0.00     0.068 A 
HETATM   13  C   UNL     1     -42.436  53.890 -51.576  1.00  0.00     0.038 A 
HETATM   14  C   UNL     1     -43.057  55.133 -51.741  1.00  0.00     0.020 A 
BRANCH  12  15
HETATM   15  O   UNL     1     -40.737  52.536 -50.677  1.00  0.00    -0.351 OA
BRANCH  15  16
HETATM   16  C   UNL     1     -39.582  52.430 -51.516  1.00  0.00     0.175 C 
BRANCH  16  17
HETATM   17  C   UNL     1     -39.636  51.091 -52.252  1.00  0.00     0.026 C 
BRANCH  17  18
HETATM   18  C   UNL     1     -39.931  51.270 -53.744  1.00  0.00    -0.002 C 
HETATM   19  C   UNL     1     -39.768  49.966 -54.507  1.00  0.00     0.005 C 
ENDBRANCH  17  18
ENDBRANCH  16  17
ENDBRANCH  15  16
ENDBRANCH  12  15
ENDBRANCH   6   9
ENDBRANCH   3   5
ENDBRANCH   1   3
BRANCH   1  20
HETATM   20  C   UNL     1     -42.675  59.874 -53.977  1.00  0.00     0.036 A 
HETATM   21  C   UNL     1     -44.039  60.022 -54.250  1.00  0.00     0.067 A 
HETATM   22  C   UNL     1     -44.614  59.427 -55.383  1.00  0.00     0.082 A 
HETATM   23  C   UNL     1     -43.842  58.669 -56.273  1.00  0.00     0.050 A 
HETATM   24  C   UNL     1     -42.471  58.538 -55.989  1.00  0.00     0.021 A 
HETATM   25  C   UNL     1     -41.894  59.127 -54.855  1.00  0.00     0.030 A 
BRANCH  22  26
HETATM   26  O   UNL     1     -45.963  59.570 -55.577  1.00  0.00    -0.360 OA
HETATM   27  H   UNL     1     -46.419  59.597 -54.721  1.00  0.00     0.217 HD
ENDBRANCH  22  26
BRANCH  23  28
HETATM   28  C   UNL     1     -44.373  57.971 -57.447  1.00  0.00     0.183 A 
HETATM   29  O   UNL     1     -45.541  58.441 -57.997  1.00  0.00    -0.289 OA
HETATM   30  C   UNL     1     -45.792  57.589 -59.030  1.00  0.00     0.107 A 
HETATM   31  C   UNL     1     -44.765  56.663 -59.073  1.00  0.00     0.093 A 
HETATM   32  C   UNL     1     -46.876  57.615 -59.899  1.00  0.00     0.046 A 
HETATM   33  N   UNL     1     -43.861  56.923 -58.074  1.00  0.00    -0.221 NA
HETATM   34  C   UNL     1     -44.800  55.662 -60.050  1.00  0.00     0.035 A 
HETATM   35  C   UNL     1     -45.880  55.647 -60.947  1.00  0.00     0.009 A 
HETATM   36  C   UNL     1     -46.902  56.614 -60.886  1.00  0.00    -0.059 A 
HETATM   37  C   UNL     1     -48.056  56.539 -61.847  1.00  0.00     0.048 C 
ENDBRANCH  23  28
ENDBRANCH   1  20
TORSDOF 10
ENDMDL
MODEL 6
REMARK VINA RESULT:      -7.9      5.143      9.061
REMARK  10 active torsions:
REMARK  status: ('A' for Active; 'I' for Inactive)
REMARK    1  A    between atoms: C_2  and  C_3 
REMARK    2  A    between atoms: C_3  and  C_4 
REMARK    3  A    between atoms: C_4  and  O_5 
REMARK    4  A    between atoms: O_5  and  C_6 
REMARK    5  A    between atoms: C_9  and  C_10 
REMARK       I    between atoms: C_10  and  N_11 
REMARK    6  A    between atoms: N_11  and  C_12 
REMARK    7  A    between atoms: C_12  and  N_13 
REMARK    8  A    between atoms: N_13  and  C_14 
REMARK    9  A    between atoms: C_16  and  O_17 
REMARK   10  A    between atoms: C_18  and  C_19 
ROOT
HETATM    1  N   UNL     1     -44.584  60.049 -52.000  1.00  0.00    -0.333 N 
HETATM    2  H   UNL     1     -44.296  60.692 -51.271  1.00  0.00     0.168 HD
ENDROOT
BRANCH   1   3
HETATM    3  C   UNL     1     -45.177  60.666 -53.046  1.00  0.00     0.179 C 
HETATM    4  S   UNL     1     -46.371  61.800 -52.744  1.00  0.00    -0.040 SA
BRANCH   3   5
HETATM    5  N   UNL     1     -44.881  60.383 -54.342  1.00  0.00    -0.299 N 
HETATM    6  C   UNL     1     -43.626  60.394 -54.949  1.00  0.00     0.257 C 
HETATM    7  O   UNL     1     -42.627  60.958 -54.520  1.00  0.00    -0.267 OA
HETATM    8  H   UNL     1     -45.568  59.769 -54.750  1.00  0.00     0.171 HD
BRANCH   6   9
HETATM    9  C   UNL     1     -43.541  59.679 -56.259  1.00  0.00     0.032 A 
HETATM   10  C   UNL     1     -42.269  59.348 -56.747  1.00  0.00     0.020 A 
HETATM   11  C   UNL     1     -42.126  58.705 -57.981  1.00  0.00     0.038 A 
HETATM   12  C   UNL     1     -43.259  58.370 -58.721  1.00  0.00     0.068 A 
HETATM   13  C   UNL     1     -44.527  58.689 -58.243  1.00  0.00     0.038 A 
HETATM   14  C   UNL     1     -44.674  59.325 -57.006  1.00  0.00     0.020 A 
BRANCH  12  15
HETATM   15  O   UNL     1     -43.190  57.815 -59.968  1.00  0.00    -0.351 OA
BRANCH  15  16
HETATM   16  C   UNL     1     -42.611  56.505 -59.972  1.00  0.00     0.175 C 
BRANCH  16  17
HETATM   17  C   UNL     1     -43.455  55.599 -59.076  1.00  0.00     0.026 C 
BRANCH  17  18
HETATM   18  C   UNL     1     -44.367  54.679 -59.893  1.00  0.00    -0.002 C 
HETATM   19  C   UNL     1     -45.619  55.405 -60.363  1.00  0.00     0.005 C 
ENDBRANCH  17  18
ENDBRANCH  16  17
ENDBRANCH  15  16
ENDBRANCH  12  15
ENDBRANCH   6   9
ENDBRANCH   3   5
ENDBRANCH   1   3
BRANCH   1  20
HETATM   20  C   UNL     1     -43.948  58.786 -51.943  1.00  0.00     0.036 A 
HETATM   21  C   UNL     1     -42.664  58.747 -51.387  1.00  0.00     0.067 A 
HETATM   22  C   UNL     1     -41.914  57.562 -51.393  1.00  0.00     0.082 A 
HETATM   23  C   UNL     1     -42.426  56.384 -51.954  1.00  0.00     0.050 A 
HETATM   24  C   UNL     1     -43.720  56.438 -52.499  1.00  0.00     0.021 A 
HETATM   25  C   UNL     1     -44.472  57.622 -52.499  1.00  0.00     0.030 A 
BRANCH  22  26
HETATM   26  O   UNL     1     -40.646  57.593 -50.873  1.00  0.00    -0.360 OA
HETATM   27  H   UNL     1     -40.128  58.290 -51.308  1.00  0.00     0.217 HD
ENDBRANCH  22  26
BRANCH  23  28
HETATM   28  C   UNL     1     -41.688  55.122 -52.049  1.00  0.00     0.183 A 
HETATM   29  O   UNL     1     -41.645  54.496 -53.271  1.00  0.00    -0.289 OA
HETATM   30  C   UNL     1     -40.930  53.360 -53.042  1.00  0.00     0.107 A 
HETATM   31  C   UNL     1     -40.558  53.356 -51.709  1.00  0.00     0.093 A 
HETATM   32  C   UNL     1     -40.618  52.361 -53.957  1.00  0.00     0.046 A 
HETATM   33  N   UNL     1     -41.030  54.486 -51.091  1.00  0.00    -0.221 NA
HETATM   34  C   UNL     1     -39.817  52.275 -51.218  1.00  0.00     0.035 A 
HETATM   35  C   UNL     1     -39.483  51.241 -52.108  1.00  0.00     0.009 A 
HETATM   36  C   UNL     1     -39.864  51.282 -53.462  1.00  0.00    -0.059 A 
HETATM   37  C   UNL     1     -39.513  50.136 -54.369  1.00  0.00     0.048 C 
ENDBRANCH  23  28
ENDBRANCH   1  20
TORSDOF 10
ENDMDL
MODEL 7
REMARK VINA RESULT:      -7.6      6.361     11.146
REMARK  10 active torsions:
REMARK  status: ('A' for Active; 'I' for Inactive)
REMARK    1  A    between atoms: C_2  and  C_3 
REMARK    2  A    between atoms: C_3  and  C_4 
REMARK    3  A    between atoms: C_4  and  O_5 
REMARK    4  A    between atoms: O_5  and  C_6 
REMARK    5  A    between atoms: C_9  and  C_10 
REMARK       I    between atoms: C_10  and  N_11 
REMARK    6  A    between atoms: N_11  and  C_12 
REMARK    7  A    between atoms: C_12  and  N_13 
REMARK    8  A    between atoms: N_13  and  C_14 
REMARK    9  A    between atoms: C_16  and  O_17 
REMARK   10  A    between atoms: C_18  and  C_19 
ROOT
HETATM    1  N   UNL     1     -41.809  59.906 -54.604  1.00  0.00    -0.333 N 
HETATM    2  H   UNL     1     -41.548  60.882 -54.528  1.00  0.00     0.168 HD
ENDROOT
BRANCH   1   3
HETATM    3  C   UNL     1     -41.636  59.221 -53.452  1.00  0.00     0.179 C 
HETATM    4  S   UNL     1     -41.832  60.025 -51.997  1.00  0.00    -0.040 SA
BRANCH   3   5
HETATM    5  N   UNL     1     -41.269  57.913 -53.411  1.00  0.00    -0.299 N 
HETATM    6  C   UNL     1     -42.095  56.804 -53.239  1.00  0.00     0.257 C 
HETATM    7  O   UNL     1     -43.231  56.820 -52.782  1.00  0.00    -0.267 OA
HETATM    8  H   UNL     1     -40.412  57.756 -53.919  1.00  0.00     0.171 HD
BRANCH   6   9
HETATM    9  C   UNL     1     -41.492  55.489 -53.617  1.00  0.00     0.032 A 
HETATM   10  C   UNL     1     -41.652  54.412 -52.734  1.00  0.00     0.020 A 
HETATM   11  C   UNL     1     -41.085  53.167 -53.022  1.00  0.00     0.038 A 
HETATM   12  C   UNL     1     -40.373  52.988 -54.207  1.00  0.00     0.068 A 
HETATM   13  C   UNL     1     -40.212  54.050 -55.093  1.00  0.00     0.038 A 
HETATM   14  C   UNL     1     -40.785  55.295 -54.812  1.00  0.00     0.020 A 
BRANCH  12  15
HETATM   15  O   UNL     1     -39.726  51.824 -54.512  1.00  0.00    -0.351 OA
BRANCH  15  16
HETATM   16  C   UNL     1     -40.444  50.655 -54.103  1.00  0.00     0.175 C 
BRANCH  16  17
HETATM   17  C   UNL     1     -39.434  49.598 -53.654  1.00  0.00     0.026 C 
BRANCH  17  18
HETATM   18  C   UNL     1     -39.601  49.243 -52.174  1.00  0.00    -0.002 C 
HETATM   19  C   UNL     1     -39.595  50.484 -51.295  1.00  0.00     0.005 C 
ENDBRANCH  17  18
ENDBRANCH  16  17
ENDBRANCH  15  16
ENDBRANCH  12  15
ENDBRANCH   6   9
ENDBRANCH   3   5
ENDBRANCH   1   3
BRANCH   1  20
HETATM   20  C   UNL     1     -42.645  59.613 -55.708  1.00  0.00     0.036 A 
HETATM   21  C   UNL     1     -44.012  59.875 -55.554  1.00  0.00     0.067 A 
HETATM   22  C   UNL     1     -44.929  59.510 -56.550  1.00  0.00     0.082 A 
HETATM   23  C   UNL     1     -44.507  58.876 -57.726  1.00  0.00     0.050 A 
HETATM   24  C   UNL     1     -43.131  58.630 -57.869  1.00  0.00     0.021 A 
HETATM   25  C   UNL     1     -42.210  58.988 -56.874  1.00  0.00     0.030 A 
BRANCH  22  26
HETATM   26  O   UNL     1     -46.260  59.752 -56.327  1.00  0.00    -0.360 OA
HETATM   27  H   UNL     1     -46.384  60.119 -55.437  1.00  0.00     0.217 HD
ENDBRANCH  22  26
BRANCH  23  28
HETATM   28  C   UNL     1     -45.405  58.415 -58.789  1.00  0.00     0.183 A 
HETATM   29  O   UNL     1     -46.171  59.356 -59.433  1.00  0.00    -0.289 OA
HETATM   30  C   UNL     1     -46.906  58.636 -60.326  1.00  0.00     0.107 A 
HETATM   31  C   UNL     1     -46.542  57.307 -60.200  1.00  0.00     0.093 A 
HETATM   32  C   UNL     1     -47.861  59.118 -61.214  1.00  0.00     0.046 A 
HETATM   33  N   UNL     1     -45.577  57.179 -59.233  1.00  0.00    -0.221 NA
HETATM   34  C   UNL     1     -47.171  56.355 -61.009  1.00  0.00     0.035 A 
HETATM   35  C   UNL     1     -48.146  56.797 -61.918  1.00  0.00     0.009 A 
HETATM   36  C   UNL     1     -48.483  58.159 -62.033  1.00  0.00    -0.059 A 
HETATM   37  C   UNL     1     -49.557  58.581 -62.997  1.00  0.00     0.048 C 
ENDBRANCH  23  28
ENDBRANCH   1  20
TORSDOF 10
ENDMDL
MODEL 8
REMARK VINA RESULT:      -7.5      4.914      6.324
REMARK  10 active torsions:
REMARK  status: ('A' for Active; 'I' for Inactive)
REMARK    1  A    between atoms: C_2  and  C_3 
REMARK    2  A    between atoms: C_3  and  C_4 
REMARK    3  A    between atoms: C_4  and  O_5 
REMARK    4  A    between atoms: O_5  and  C_6 
REMARK    5  A    between atoms: C_9  and  C_10 
REMARK       I    between atoms: C_10  and  N_11 
REMARK    6  A    between atoms: N_11  and  C_12 
REMARK    7  A    between atoms: C_12  and  N_13 
REMARK    8  A    between atoms: N_13  and  C_14 
REMARK    9  A    between atoms: C_16  and  O_17 
REMARK   10  A    between atoms: C_18  and  C_19 
ROOT
HETATM    1  N   UNL     1     -43.290  60.614 -53.107  1.00  0.00    -0.333 N 
HETATM    2  H   UNL     1     -43.318  61.088 -54.002  1.00  0.00     0.168 HD
ENDROOT
BRANCH   1   3
HETATM    3  C   UNL     1     -44.141  61.143 -52.200  1.00  0.00     0.179 C 
HETATM    4  S   UNL     1     -43.686  61.180 -50.590  1.00  0.00    -0.040 SA
BRANCH   3   5
HETATM    5  N   UNL     1     -45.374  61.615 -52.523  1.00  0.00    -0.299 N 
HETATM    6  C   UNL     1     -45.762  62.237 -53.709  1.00  0.00     0.257 C 
HETATM    7  O   UNL     1     -45.010  62.750 -54.528  1.00  0.00    -0.267 OA
HETATM    8  H   UNL     1     -46.098  61.128 -52.018  1.00  0.00     0.171 HD
BRANCH   6   9
HETATM    9  C   UNL     1     -47.236  62.302 -53.947  1.00  0.00     0.032 A 
HETATM   10  C   UNL     1     -48.090  62.040 -52.867  1.00  0.00     0.020 A 
HETATM   11  C   UNL     1     -49.478  62.057 -53.038  1.00  0.00     0.038 A 
HETATM   12  C   UNL     1     -50.017  62.360 -54.288  1.00  0.00     0.068 A 
HETATM   13  C   UNL     1     -49.178  62.627 -55.366  1.00  0.00     0.038 A 
HETATM   14  C   UNL     1     -47.789  62.618 -55.196  1.00  0.00     0.020 A 
BRANCH  12  15
HETATM   15  O   UNL     1     -51.359  62.316 -54.544  1.00  0.00    -0.351 OA
BRANCH  15  16
HETATM   16  C   UNL     1     -52.149  62.059 -53.378  1.00  0.00     0.175 C 
BRANCH  16  17
HETATM   17  C   UNL     1     -52.846  63.357 -52.969  1.00  0.00     0.026 C 
BRANCH  17  18
HETATM   18  C   UNL     1     -53.371  63.295 -51.532  1.00  0.00    -0.002 C 
HETATM   19  C   UNL     1     -52.276  62.902 -50.553  1.00  0.00     0.005 C 
ENDBRANCH  17  18
ENDBRANCH  16  17
ENDBRANCH  15  16
ENDBRANCH  12  15
ENDBRANCH   6   9
ENDBRANCH   3   5
ENDBRANCH   1   3
BRANCH   1  20
HETATM   20  C   UNL     1     -42.716  59.321 -53.153  1.00  0.00     0.036 A 
HETATM   21  C   UNL     1     -43.593  58.243 -53.324  1.00  0.00     0.067 A 
HETATM   22  C   UNL     1     -43.127  56.922 -53.267  1.00  0.00     0.082 A 
HETATM   23  C   UNL     1     -41.774  56.641 -53.039  1.00  0.00     0.050 A 
HETATM   24  C   UNL     1     -40.905  57.734 -52.878  1.00  0.00     0.021 A 
HETATM   25  C   UNL     1     -41.367  59.057 -52.930  1.00  0.00     0.030 A 
BRANCH  22  26
HETATM   26  O   UNL     1     -44.038  55.906 -53.399  1.00  0.00    -0.360 OA
HETATM   27  H   UNL     1     -44.709  55.972 -52.701  1.00  0.00     0.217 HD
ENDBRANCH  22  26
BRANCH  23  28
HETATM   28  C   UNL     1     -41.216  55.291 -52.911  1.00  0.00     0.183 A 
HETATM   29  O   UNL     1     -41.141  54.519 -54.044  1.00  0.00    -0.289 OA
HETATM   30  C   UNL     1     -40.620  53.337 -53.612  1.00  0.00     0.107 A 
HETATM   31  C   UNL     1     -40.386  53.451 -52.253  1.00  0.00     0.093 A 
HETATM   32  C   UNL     1     -40.364  52.202 -54.371  1.00  0.00     0.046 A 
HETATM   33  N   UNL     1     -40.752  54.700 -51.820  1.00  0.00    -0.221 NA
HETATM   34  C   UNL     1     -39.858  52.352 -51.565  1.00  0.00     0.035 A 
HETATM   35  C   UNL     1     -39.587  51.182 -52.293  1.00  0.00     0.009 A 
HETATM   36  C   UNL     1     -39.823  51.104 -53.678  1.00  0.00    -0.059 A 
HETATM   37  C   UNL     1     -39.549  49.819 -54.408  1.00  0.00     0.048 C 
ENDBRANCH  23  28
ENDBRANCH   1  20
TORSDOF 10
ENDMDL
MODEL 9
REMARK VINA RESULT:      -7.5      2.676     11.615
REMARK  10 active torsions:
REMARK  status: ('A' for Active; 'I' for Inactive)
REMARK    1  A    between atoms: C_2  and  C_3 
REMARK    2  A    between atoms: C_3  and  C_4 
REMARK    3  A    between atoms: C_4  and  O_5 
REMARK    4  A    between atoms: O_5  and  C_6 
REMARK    5  A    between atoms: C_9  and  C_10 
REMARK       I    between atoms: C_10  and  N_11 
REMARK    6  A    between atoms: N_11  and  C_12 
REMARK    7  A    between atoms: C_12  and  N_13 
REMARK    8  A    between atoms: N_13  and  C_14 
REMARK    9  A    between atoms: C_16  and  O_17 
REMARK   10  A    between atoms: C_18  and  C_19 
ROOT
HETATM    1  N   UNL     1     -41.797  60.068 -54.104  1.00  0.00    -0.333 N 
HETATM    2  H   UNL     1     -40.792  60.135 -53.988  1.00  0.00     0.168 HD
ENDROOT
BRANCH   1   3
HETATM    3  C   UNL     1     -42.169  59.060 -54.924  1.00  0.00     0.179 C 
HETATM    4  S   UNL     1     -43.362  59.346 -56.064  1.00  0.00    -0.040 SA
BRANCH   3   5
HETATM    5  N   UNL     1     -41.651  57.807 -54.846  1.00  0.00    -0.299 N 
HETATM    6  C   UNL     1     -41.097  57.184 -53.728  1.00  0.00     0.257 C 
HETATM    7  O   UNL     1     -40.691  57.750 -52.721  1.00  0.00    -0.267 OA
HETATM    8  H   UNL     1     -42.057  57.198 -55.540  1.00  0.00     0.171 HD
BRANCH   6   9
HETATM    9  C   UNL     1     -40.965  55.698 -53.821  1.00  0.00     0.032 A 
HETATM   10  C   UNL     1     -41.321  54.934 -52.702  1.00  0.00     0.020 A 
HETATM   11  C   UNL     1     -41.190  53.542 -52.721  1.00  0.00     0.038 A 
HETATM   12  C   UNL     1     -40.722  52.906 -53.870  1.00  0.00     0.068 A 
HETATM   13  C   UNL     1     -40.371  53.656 -54.990  1.00  0.00     0.038 A 
HETATM   14  C   UNL     1     -40.508  55.048 -54.977  1.00  0.00     0.020 A 
BRANCH  12  15
HETATM   15  O   UNL     1     -40.494  51.560 -53.930  1.00  0.00    -0.351 OA
BRANCH  15  16
HETATM   16  C   UNL     1     -39.415  51.132 -53.093  1.00  0.00     0.175 C 
BRANCH  16  17
HETATM   17  C   UNL     1     -39.621  49.656 -52.752  1.00  0.00     0.026 C 
BRANCH  17  18
HETATM   18  C   UNL     1     -39.799  49.436 -51.248  1.00  0.00    -0.002 C 
HETATM   19  C   UNL     1     -40.048  50.745 -50.516  1.00  0.00     0.005 C 
ENDBRANCH  17  18
ENDBRANCH  16  17
ENDBRANCH  15  16
ENDBRANCH  12  15
ENDBRANCH   6   9
ENDBRANCH   3   5
ENDBRANCH   1   3
BRANCH   1  20
HETATM   20  C   UNL     1     -42.541  60.733 -53.101  1.00  0.00     0.036 A 
HETATM   21  C   UNL     1     -42.365  60.293 -51.784  1.00  0.00     0.067 A 
HETATM   22  C   UNL     1     -43.144  60.815 -50.741  1.00  0.00     0.082 A 
HETATM   23  C   UNL     1     -44.120  61.791 -50.986  1.00  0.00     0.050 A 
HETATM   24  C   UNL     1     -44.278  62.229 -52.312  1.00  0.00     0.021 A 
HETATM   25  C   UNL     1     -43.504  61.706 -53.358  1.00  0.00     0.030 A 
BRANCH  22  26
HETATM   26  O   UNL     1     -42.958  60.316 -49.478  1.00  0.00    -0.360 OA
HETATM   27  H   UNL     1     -43.757  59.848 -49.187  1.00  0.00     0.217 HD
ENDBRANCH  22  26
BRANCH  23  28
HETATM   28  C   UNL     1     -45.011  62.347 -49.964  1.00  0.00     0.183 A 
HETATM   29  O   UNL     1     -44.466  62.670 -48.745  1.00  0.00    -0.289 OA
HETATM   30  C   UNL     1     -45.523  63.125 -48.015  1.00  0.00     0.107 A 
HETATM   31  C   UNL     1     -46.646  63.077 -48.822  1.00  0.00     0.093 A 
HETATM   32  C   UNL     1     -45.509  63.560 -46.695  1.00  0.00     0.046 A 
HETATM   33  N   UNL     1     -46.309  62.597 -50.062  1.00  0.00    -0.221 NA
HETATM   34  C   UNL     1     -47.875  63.485 -48.291  1.00  0.00     0.035 A 
HETATM   35  C   UNL     1     -47.909  63.928 -46.959  1.00  0.00     0.009 A 
HETATM   36  C   UNL     1     -46.744  63.979 -46.170  1.00  0.00    -0.059 A 
HETATM   37  C   UNL     1     -46.835  64.430 -44.738  1.00  0.00     0.048 C 
ENDBRANCH  23  28
ENDBRANCH   1  20
TORSDOF 10
ENDMDL
MODEL 10
REMARK VINA RESULT:      -7.3     21.022     22.323
REMARK  10 active torsions:
REMARK  status: ('A' for Active; 'I' for Inactive)
REMARK    1  A    between atoms: C_2  and  C_3 
REMARK    2  A    between atoms: C_3  and  C_4 
REMARK    3  A    between atoms: C_4  and  O_5 
REMARK    4  A    between atoms: O_5  and  C_6 
REMARK    5  A    between atoms: C_9  and  C_10 
REMARK       I    between atoms: C_10  and  N_11 
REMARK    6  A    between atoms: N_11  and  C_12 
REMARK    7  A    between atoms: C_12  and  N_13 
REMARK    8  A    between atoms: N_13  and  C_14 
REMARK    9  A    between atoms: C_16  and  O_17 
REMARK   10  A    between atoms: C_18  and  C_19 
ROOT
HETATM    1  N   UNL     1     -33.851  41.132 -54.300  1.00  0.00    -0.333 N 
HETATM    2  H   UNL     1     -34.233  41.827 -53.669  1.00  0.00     0.168 HD
ENDROOT
BRANCH   1   3
HETATM    3  C   UNL     1     -32.857  40.402 -53.746  1.00  0.00     0.179 C 
HETATM    4  S   UNL     1     -31.795  39.589 -54.753  1.00  0.00    -0.040 SA
BRANCH   3   5
HETATM    5  N   UNL     1     -32.696  40.261 -52.404  1.00  0.00    -0.299 N 
HETATM    6  C   UNL     1     -33.693  40.158 -51.435  1.00  0.00     0.257 C 
HETATM    7  O   UNL     1     -34.863  40.492 -51.573  1.00  0.00    -0.267 OA
HETATM    8  H   UNL     1     -31.814  39.825 -52.184  1.00  0.00     0.171 HD
BRANCH   6   9
HETATM    9  C   UNL     1     -33.248  39.629 -50.110  1.00  0.00     0.032 A 
HETATM   10  C   UNL     1     -34.122  38.786 -49.410  1.00  0.00     0.020 A 
HETATM   11  C   UNL     1     -33.771  38.284 -48.153  1.00  0.00     0.038 A 
HETATM   12  C   UNL     1     -32.533  38.607 -47.600  1.00  0.00     0.068 A 
HETATM   13  C   UNL     1     -31.655  39.439 -48.289  1.00  0.00     0.038 A 
HETATM   14  C   UNL     1     -31.999  39.936 -49.551  1.00  0.00     0.020 A 
BRANCH  12  15
HETATM   15  O   UNL     1     -32.160  38.218 -46.344  1.00  0.00    -0.351 OA
BRANCH  15  16
HETATM   16  C   UNL     1     -30.825  38.608 -46.006  1.00  0.00     0.175 C 
BRANCH  16  17
HETATM   17  C   UNL     1     -30.818  39.112 -44.562  1.00  0.00     0.026 C 
BRANCH  17  18
HETATM   18  C   UNL     1     -30.231  40.522 -44.452  1.00  0.00    -0.002 C 
HETATM   19  C   UNL     1     -29.744  41.033 -45.800  1.00  0.00     0.005 C 
ENDBRANCH  17  18
ENDBRANCH  16  17
ENDBRANCH  15  16
ENDBRANCH  12  15
ENDBRANCH   6   9
ENDBRANCH   3   5
ENDBRANCH   1   3
BRANCH   1  20
HETATM   20  C   UNL     1     -34.690  40.822 -55.397  1.00  0.00     0.036 A 
HETATM   21  C   UNL     1     -35.469  39.664 -55.291  1.00  0.00     0.067 A 
HETATM   22  C   UNL     1     -36.242  39.217 -56.372  1.00  0.00     0.082 A 
HETATM   23  C   UNL     1     -36.259  39.915 -57.588  1.00  0.00     0.050 A 
HETATM   24  C   UNL     1     -35.478  41.081 -57.674  1.00  0.00     0.021 A 
HETATM   25  C   UNL     1     -34.700  41.528 -56.597  1.00  0.00     0.030 A 
BRANCH  22  26
HETATM   26  O   UNL     1     -36.952  38.054 -56.227  1.00  0.00    -0.360 OA
HETATM   27  H   UNL     1     -36.417  37.301 -56.527  1.00  0.00     0.217 HD
ENDBRANCH  22  26
BRANCH  23  28
HETATM   28  C   UNL     1     -36.995  39.487 -58.781  1.00  0.00     0.183 A 
HETATM   29  O   UNL     1     -38.274  39.016 -58.610  1.00  0.00    -0.289 OA
HETATM   30  C   UNL     1     -38.677  38.677 -59.866  1.00  0.00     0.107 A 
HETATM   31  C   UNL     1     -37.643  38.972 -60.736  1.00  0.00     0.093 A 
HETATM   32  C   UNL     1     -39.898  38.126 -60.239  1.00  0.00     0.046 A 
HETATM   33  N   UNL     1     -36.585  39.501 -60.041  1.00  0.00    -0.221 NA
HETATM   34  C   UNL     1     -37.809  38.699 -62.099  1.00  0.00     0.035 A 
HETATM   35  C   UNL     1     -39.026  38.138 -62.519  1.00  0.00     0.009 A 
HETATM   36  C   UNL     1     -40.065  37.864 -61.610  1.00  0.00    -0.059 A 
HETATM   37  C   UNL     1     -41.337  37.232 -62.102  1.00  0.00     0.048 C 
ENDBRANCH  23  28
ENDBRANCH   1  20
TORSDOF 10
ENDMDL
