MODEL 1
REMARK VINA RESULT:      -8.8      0.000      0.000
REMARK  8 active torsions:
REMARK  status: ('A' for Active; 'I' for Inactive)
REMARK    1  A    between atoms: C_3  and  N_4 
REMARK       I    between atoms: N_4  and  C_5 
REMARK    2  A    between atoms: C_5  and  C_6 
REMARK    3  A    between atoms: C_6  and  S_7 
REMARK    4  A    between atoms: S_7  and  C_8 
REMARK    5  A    between atoms: N_9  and  C_10 
REMARK    6  A    between atoms: C_10  and  C_11 
REMARK       I    between atoms: C_11  and  N_12 
REMARK    7  A    between atoms: N_12  and  C_13 
REMARK    8  A    between atoms: C_20  and  C_21 
ROOT
HETATM    1  C   UNL     1     -43.271  56.211 -55.915  1.00  0.00     0.169 A 
HETATM    2  N   UNL     1     -42.847  55.375 -54.908  1.00  0.00    -0.315 N 
HETATM    3  C   UNL     1     -43.100  56.026 -53.709  1.00  0.00     0.065 A 
HETATM    4  C   UNL     1     -43.783  57.171 -54.087  1.00  0.00     0.150 A 
HETATM    5  N   UNL     1     -43.907  57.260 -55.447  1.00  0.00    -0.234 NA
ENDROOT
BRANCH   1   6
HETATM    6  S   UNL     1     -42.939  55.929 -57.591  1.00  0.00    -0.083 SA
BRANCH   6   7
HETATM    7  C   UNL     1     -42.623  57.607 -58.194  1.00  0.00     0.185 C 
BRANCH   7   8
HETATM    8  C   UNL     1     -43.594  58.015 -59.293  1.00  0.00     0.231 C 
HETATM    9  N   UNL     1     -44.900  57.638 -59.033  1.00  0.00    -0.326 N 
HETATM   10  H   UNL     1     -45.031  57.096 -58.179  1.00  0.00     0.169 HD
HETATM   11  O   UNL     1     -43.179  58.529 -60.329  1.00  0.00    -0.272 OA
BRANCH   9  12
HETATM   12  C   UNL     1     -46.002  57.689 -59.916  1.00  0.00     0.046 A 
HETATM   13  C   UNL     1     -46.383  56.471 -60.534  1.00  0.00    -0.035 A 
HETATM   14  C   UNL     1     -45.643  55.181 -60.293  1.00  0.00     0.050 C 
HETATM   15  C   UNL     1     -47.457  56.455 -61.439  1.00  0.00     0.009 A 
HETATM   16  C   UNL     1     -48.150  57.621 -61.734  1.00  0.00     0.001 A 
HETATM   17  C   UNL     1     -47.799  58.810 -61.104  1.00  0.00     0.009 A 
HETATM   18  C   UNL     1     -46.747  58.857 -60.168  1.00  0.00    -0.035 A 
HETATM   19  C   UNL     1     -46.542  60.166 -59.453  1.00  0.00     0.050 C 
ENDBRANCH   9  12
ENDBRANCH   7   8
ENDBRANCH   6   7
ENDBRANCH   1   6
BRANCH   2  20
HETATM   20  C   UNL     1     -42.361  54.014 -55.075  1.00  0.00     0.234 C 
BRANCH  20  21
HETATM   21  C   UNL     1     -40.994  53.666 -54.527  1.00  0.00     0.236 C 
HETATM   22  N   UNL     1     -40.893  52.706 -53.553  1.00  0.00    -0.355 N 
HETATM   23  H   UNL     1     -41.740  52.232 -53.267  1.00  0.00     0.162 HD
HETATM   24  O   UNL     1     -40.021  54.262 -54.986  1.00  0.00    -0.272 OA
BRANCH  22  25
HETATM   25  C   UNL     1     -39.653  52.092 -53.067  1.00  0.00     0.084 C 
HETATM   26  C   UNL     1     -39.459  52.284 -51.558  1.00  0.00     0.025 C 
HETATM   27  C   UNL     1     -40.085  51.187 -50.707  1.00  0.00     0.002 C 
HETATM   28  C   UNL     1     -39.584  49.815 -51.131  1.00  0.00     0.000 C 
HETATM   29  C   UNL     1     -39.848  49.532 -52.605  1.00  0.00     0.002 C 
HETATM   30  C   UNL     1     -39.384  50.653 -53.538  1.00  0.00     0.025 C 
ENDBRANCH  22  25
ENDBRANCH  20  21
ENDBRANCH   2  20
BRANCH   3  31
HETATM   31  C   UNL     1     -42.652  55.633 -52.378  1.00  0.00    -0.008 A 
HETATM   32  C   UNL     1     -43.333  54.673 -51.619  1.00  0.00     0.017 A 
HETATM   33  C   UNL     1     -42.871  54.321 -50.348  1.00  0.00     0.043 A 
HETATM   34  C   UNL     1     -41.741  54.942 -49.829  1.00  0.00     0.116 A 
HETATM   35  F   UNL     1     -41.303  54.605 -48.610  1.00  0.00    -0.206 F 
HETATM   36  C   UNL     1     -41.065  55.914 -50.554  1.00  0.00     0.043 A 
HETATM   37  C   UNL     1     -41.522  56.259 -51.828  1.00  0.00     0.017 A 
ENDBRANCH   3  31
TORSDOF 8
ENDMDL
MODEL 2
REMARK VINA RESULT:      -8.6      3.614      7.796
REMARK  8 active torsions:
REMARK  status: ('A' for Active; 'I' for Inactive)
REMARK    1  A    between atoms: C_3  and  N_4 
REMARK       I    between atoms: N_4  and  C_5 
REMARK    2  A    between atoms: C_5  and  C_6 
REMARK    3  A    between atoms: C_6  and  S_7 
REMARK    4  A    between atoms: S_7  and  C_8 
REMARK    5  A    between atoms: N_9  and  C_10 
REMARK    6  A    between atoms: C_10  and  C_11 
REMARK       I    between atoms: C_11  and  N_12 
REMARK    7  A    between atoms: N_12  and  C_13 
REMARK    8  A    between atoms: C_20  and  C_21 
ROOT
HETATM    1  C   UNL     1     -41.424  56.523 -52.902  1.00  0.00     0.169 A 
HETATM    2  N   UNL     1     -41.078  55.385 -53.594  1.00  0.00    -0.315 N 
HETATM    3  C   UNL     1     -41.068  54.344 -52.678  1.00  0.00     0.065 A 
HETATM    4  C   UNL     1     -41.538  54.920 -51.509  1.00  0.00     0.150 A 
HETATM    5  N   UNL     1     -41.781  56.257 -51.667  1.00  0.00    -0.234 NA
ENDROOT
BRANCH   1   6
HETATM    6  S   UNL     1     -41.331  58.115 -53.577  1.00  0.00    -0.083 SA
BRANCH   6   7
HETATM    7  C   UNL     1     -43.023  58.365 -54.171  1.00  0.00     0.185 C 
BRANCH   7   8
HETATM    8  C   UNL     1     -43.975  58.754 -53.049  1.00  0.00     0.231 C 
HETATM    9  N   UNL     1     -43.791  60.051 -52.604  1.00  0.00    -0.326 N 
HETATM   10  H   UNL     1     -43.018  60.551 -53.041  1.00  0.00     0.169 HD
HETATM   11  O   UNL     1     -44.733  57.918 -52.561  1.00  0.00    -0.272 OA
BRANCH   9  12
HETATM   12  C   UNL     1     -44.365  60.659 -51.465  1.00  0.00     0.046 A 
HETATM   13  C   UNL     1     -43.521  60.833 -50.339  1.00  0.00    -0.035 A 
HETATM   14  C   UNL     1     -42.086  60.372 -50.331  1.00  0.00     0.050 C 
HETATM   15  C   UNL     1     -44.034  61.412 -49.166  1.00  0.00     0.009 A 
HETATM   16  C   UNL     1     -45.360  61.816 -49.099  1.00  0.00     0.001 A 
HETATM   17  C   UNL     1     -46.181  61.676 -50.214  1.00  0.00     0.009 A 
HETATM   18  C   UNL     1     -45.693  61.128 -51.416  1.00  0.00    -0.035 A 
HETATM   19  C   UNL     1     -46.630  61.147 -52.593  1.00  0.00     0.050 C 
ENDBRANCH   9  12
ENDBRANCH   7   8
ENDBRANCH   6   7
ENDBRANCH   1   6
BRANCH   2  20
HETATM   20  C   UNL     1     -40.899  55.282 -55.034  1.00  0.00     0.234 C 
BRANCH  20  21
HETATM   21  C   UNL     1     -42.129  55.291 -55.914  1.00  0.00     0.236 C 
HETATM   22  N   UNL     1     -42.212  56.208 -56.930  1.00  0.00    -0.355 N 
HETATM   23  H   UNL     1     -41.421  56.820 -57.082  1.00  0.00     0.162 HD
HETATM   24  O   UNL     1     -43.010  54.465 -55.682  1.00  0.00    -0.272 OA
BRANCH  22  25
HETATM   25  C   UNL     1     -43.211  56.223 -58.004  1.00  0.00     0.084 C 
HETATM   26  C   UNL     1     -44.173  57.413 -57.891  1.00  0.00     0.025 C 
HETATM   27  C   UNL     1     -43.694  58.668 -58.607  1.00  0.00     0.002 C 
HETATM   28  C   UNL     1     -43.387  58.378 -60.069  1.00  0.00     0.000 C 
HETATM   29  C   UNL     1     -42.355  57.270 -60.235  1.00  0.00     0.002 C 
HETATM   30  C   UNL     1     -42.673  56.009 -59.429  1.00  0.00     0.025 C 
ENDBRANCH  22  25
ENDBRANCH  20  21
ENDBRANCH   2  20
BRANCH   3  31
HETATM   31  C   UNL     1     -40.574  52.986 -52.888  1.00  0.00    -0.008 A 
HETATM   32  C   UNL     1     -40.746  52.314 -54.104  1.00  0.00     0.017 A 
HETATM   33  C   UNL     1     -40.257  51.015 -54.267  1.00  0.00     0.043 A 
HETATM   34  C   UNL     1     -39.614  50.383 -53.210  1.00  0.00     0.116 A 
HETATM   35  F   UNL     1     -39.149  49.138 -53.369  1.00  0.00    -0.206 F 
HETATM   36  C   UNL     1     -39.454  51.022 -51.988  1.00  0.00     0.043 A 
HETATM   37  C   UNL     1     -39.935  52.323 -51.828  1.00  0.00     0.017 A 
ENDBRANCH   3  31
TORSDOF 8
ENDMDL
MODEL 3
REMARK VINA RESULT:      -8.6      1.966      3.343
REMARK  8 active torsions:
REMARK  status: ('A' for Active; 'I' for Inactive)
REMARK    1  A    between atoms: C_3  and  N_4 
REMARK       I    between atoms: N_4  and  C_5 
REMARK    2  A    between atoms: C_5  and  C_6 
REMARK    3  A    between atoms: C_6  and  S_7 
REMARK    4  A    between atoms: S_7  and  C_8 
REMARK    5  A    between atoms: N_9  and  C_10 
REMARK    6  A    between atoms: C_10  and  C_11 
REMARK       I    between atoms: C_11  and  N_12 
REMARK    7  A    between atoms: N_12  and  C_13 
REMARK    8  A    between atoms: C_20  and  C_21 
ROOT
HETATM    1  C   UNL     1     -43.287  56.354 -55.969  1.00  0.00     0.169 A 
HETATM    2  N   UNL     1     -42.861  55.478 -54.997  1.00  0.00    -0.315 N 
HETATM    3  C   UNL     1     -43.138  56.068 -53.772  1.00  0.00     0.065 A 
HETATM    4  C   UNL     1     -43.835  57.218 -54.104  1.00  0.00     0.150 A 
HETATM    5  N   UNL     1     -43.945  57.369 -55.460  1.00  0.00    -0.234 NA
ENDROOT
BRANCH   1   6
HETATM    6  S   UNL     1     -42.932  56.157 -57.652  1.00  0.00    -0.083 SA
BRANCH   6   7
HETATM    7  C   UNL     1     -44.332  57.003 -58.428  1.00  0.00     0.185 C 
BRANCH   7   8
HETATM    8  C   UNL     1     -44.037  58.472 -58.700  1.00  0.00     0.231 C 
HETATM    9  N   UNL     1     -42.693  58.727 -58.908  1.00  0.00    -0.326 N 
HETATM   10  H   UNL     1     -42.079  57.921 -58.798  1.00  0.00     0.169 HD
HETATM   11  O   UNL     1     -44.932  59.309 -58.622  1.00  0.00    -0.272 OA
BRANCH   9  12
HETATM   12  C   UNL     1     -42.061  59.988 -58.993  1.00  0.00     0.046 A 
HETATM   13  C   UNL     1     -41.848  60.510 -60.295  1.00  0.00    -0.035 A 
HETATM   14  C   UNL     1     -42.246  59.757 -61.538  1.00  0.00     0.050 C 
HETATM   15  C   UNL     1     -41.206  61.750 -60.453  1.00  0.00     0.009 A 
HETATM   16  C   UNL     1     -40.778  62.469 -59.346  1.00  0.00     0.001 A 
HETATM   17  C   UNL     1     -41.015  61.974 -58.067  1.00  0.00     0.009 A 
HETATM   18  C   UNL     1     -41.683  60.750 -57.871  1.00  0.00    -0.035 A 
HETATM   19  C   UNL     1     -42.001  60.379 -56.447  1.00  0.00     0.050 C 
ENDBRANCH   9  12
ENDBRANCH   7   8
ENDBRANCH   6   7
ENDBRANCH   1   6
BRANCH   2  20
HETATM   20  C   UNL     1     -42.351  54.134 -55.222  1.00  0.00     0.234 C 
BRANCH  20  21
HETATM   21  C   UNL     1     -40.989  53.780 -54.666  1.00  0.00     0.236 C 
HETATM   22  N   UNL     1     -40.897  52.799 -53.712  1.00  0.00    -0.355 N 
HETATM   23  H   UNL     1     -41.745  52.315 -53.446  1.00  0.00     0.162 HD
HETATM   24  O   UNL     1     -40.013  54.388 -55.100  1.00  0.00    -0.272 OA
BRANCH  22  25
HETATM   25  C   UNL     1     -39.660  52.178 -53.225  1.00  0.00     0.084 C 
HETATM   26  C   UNL     1     -39.458  52.383 -51.718  1.00  0.00     0.025 C 
HETATM   27  C   UNL     1     -40.091  51.301 -50.854  1.00  0.00     0.002 C 
HETATM   28  C   UNL     1     -39.603  49.920 -51.267  1.00  0.00     0.000 C 
HETATM   29  C   UNL     1     -39.876  49.625 -52.736  1.00  0.00     0.002 C 
HETATM   30  C   UNL     1     -39.406  50.732 -53.682  1.00  0.00     0.025 C 
ENDBRANCH  22  25
ENDBRANCH  20  21
ENDBRANCH   2  20
BRANCH   3  31
HETATM   31  C   UNL     1     -42.699  55.619 -52.455  1.00  0.00    -0.008 A 
HETATM   32  C   UNL     1     -43.393  54.641 -51.735  1.00  0.00     0.017 A 
HETATM   33  C   UNL     1     -42.939  54.236 -50.477  1.00  0.00     0.043 A 
HETATM   34  C   UNL     1     -41.803  54.822 -49.932  1.00  0.00     0.116 A 
HETATM   35  F   UNL     1     -41.372  54.433 -48.726  1.00  0.00    -0.206 F 
HETATM   36  C   UNL     1     -41.112  55.811 -50.619  1.00  0.00     0.043 A 
HETATM   37  C   UNL     1     -41.561  56.210 -51.880  1.00  0.00     0.017 A 
ENDBRANCH   3  31
TORSDOF 8
ENDMDL
MODEL 4
REMARK VINA RESULT:      -8.5      3.462      7.265
REMARK  8 active torsions:
REMARK  status: ('A' for Active; 'I' for Inactive)
REMARK    1  A    between atoms: C_3  and  N_4 
REMARK       I    between atoms: N_4  and  C_5 
REMARK    2  A    between atoms: C_5  and  C_6 
REMARK    3  A    between atoms: C_6  and  S_7 
REMARK    4  A    between atoms: S_7  and  C_8 
REMARK    5  A    between atoms: N_9  and  C_10 
REMARK    6  A    between atoms: C_10  and  C_11 
REMARK       I    between atoms: C_11  and  N_12 
REMARK    7  A    between atoms: N_12  and  C_13 
REMARK    8  A    between atoms: C_20  and  C_21 
ROOT
HETATM    1  C   UNL     1     -41.320  56.512 -52.858  1.00  0.00     0.169 A 
HETATM    2  N   UNL     1     -41.012  55.372 -53.564  1.00  0.00    -0.315 N 
HETATM    3  C   UNL     1     -40.998  54.325 -52.654  1.00  0.00     0.065 A 
HETATM    4  C   UNL     1     -41.428  54.903 -51.471  1.00  0.00     0.150 A 
HETATM    5  N   UNL     1     -41.650  56.246 -51.616  1.00  0.00    -0.234 NA
ENDROOT
BRANCH   1   6
HETATM    6  S   UNL     1     -41.215  58.105 -53.528  1.00  0.00    -0.083 SA
BRANCH   6   7
HETATM    7  C   UNL     1     -41.041  59.122 -52.040  1.00  0.00     0.185 C 
BRANCH   7   8
HETATM    8  C   UNL     1     -42.299  59.927 -51.744  1.00  0.00     0.231 C 
HETATM    9  N   UNL     1     -43.361  59.598 -52.567  1.00  0.00    -0.326 N 
HETATM   10  H   UNL     1     -43.150  58.910 -53.290  1.00  0.00     0.169 HD
HETATM   11  O   UNL     1     -42.274  60.835 -50.916  1.00  0.00    -0.272 OA
BRANCH   9  12
HETATM   12  C   UNL     1     -44.596  60.274 -52.688  1.00  0.00     0.046 A 
HETATM   13  C   UNL     1     -44.762  61.105 -53.825  1.00  0.00    -0.035 A 
HETATM   14  C   UNL     1     -43.673  61.291 -54.851  1.00  0.00     0.050 C 
HETATM   15  C   UNL     1     -45.957  61.823 -53.997  1.00  0.00     0.009 A 
HETATM   16  C   UNL     1     -46.980  61.726 -53.063  1.00  0.00     0.001 A 
HETATM   17  C   UNL     1     -46.832  60.886 -51.963  1.00  0.00     0.009 A 
HETATM   18  C   UNL     1     -45.660  60.128 -51.776  1.00  0.00    -0.035 A 
HETATM   19  C   UNL     1     -45.664  59.157 -50.626  1.00  0.00     0.050 C 
ENDBRANCH   9  12
ENDBRANCH   7   8
ENDBRANCH   6   7
ENDBRANCH   1   6
BRANCH   2  20
HETATM   20  C   UNL     1     -40.871  55.273 -55.009  1.00  0.00     0.234 C 
BRANCH  20  21
HETATM   21  C   UNL     1     -42.121  55.336 -55.859  1.00  0.00     0.236 C 
HETATM   22  N   UNL     1     -42.140  56.166 -56.950  1.00  0.00    -0.355 N 
HETATM   23  H   UNL     1     -41.296  56.677 -57.172  1.00  0.00     0.162 HD
HETATM   24  O   UNL     1     -43.074  54.629 -55.536  1.00  0.00    -0.272 OA
BRANCH  22  25
HETATM   25  C   UNL     1     -43.166  56.195 -57.999  1.00  0.00     0.084 C 
HETATM   26  C   UNL     1     -44.129  57.379 -57.842  1.00  0.00     0.025 C 
HETATM   27  C   UNL     1     -43.674  58.648 -58.549  1.00  0.00     0.002 C 
HETATM   28  C   UNL     1     -43.401  58.384 -60.022  1.00  0.00     0.000 C 
HETATM   29  C   UNL     1     -42.368  57.283 -60.232  1.00  0.00     0.002 C 
HETATM   30  C   UNL     1     -42.662  56.007 -59.439  1.00  0.00     0.025 C 
ENDBRANCH  22  25
ENDBRANCH  20  21
ENDBRANCH   2  20
BRANCH   3  31
HETATM   31  C   UNL     1     -40.535  52.960 -52.883  1.00  0.00    -0.008 A 
HETATM   32  C   UNL     1     -40.748  52.299 -54.098  1.00  0.00     0.017 A 
HETATM   33  C   UNL     1     -40.287  50.992 -54.280  1.00  0.00     0.043 A 
HETATM   34  C   UNL     1     -39.631  50.341 -53.242  1.00  0.00     0.116 A 
HETATM   35  F   UNL     1     -39.193  49.089 -53.418  1.00  0.00    -0.206 F 
HETATM   36  C   UNL     1     -39.430  50.970 -52.020  1.00  0.00     0.043 A 
HETATM   37  C   UNL     1     -39.883  52.279 -51.842  1.00  0.00     0.017 A 
ENDBRANCH   3  31
TORSDOF 8
ENDMDL
MODEL 5
REMARK VINA RESULT:      -8.5      4.625      8.676
REMARK  8 active torsions:
REMARK  status: ('A' for Active; 'I' for Inactive)
REMARK    1  A    between atoms: C_3  and  N_4 
REMARK       I    between atoms: N_4  and  C_5 
REMARK    2  A    between atoms: C_5  and  C_6 
REMARK    3  A    between atoms: C_6  and  S_7 
REMARK    4  A    between atoms: S_7  and  C_8 
REMARK    5  A    between atoms: N_9  and  C_10 
REMARK    6  A    between atoms: C_10  and  C_11 
REMARK       I    between atoms: C_11  and  N_12 
REMARK    7  A    between atoms: N_12  and  C_13 
REMARK    8  A    between atoms: C_20  and  C_21 
ROOT
HETATM    1  C   UNL     1     -43.268  56.434 -51.977  1.00  0.00     0.169 A 
HETATM    2  N   UNL     1     -42.930  55.403 -52.824  1.00  0.00    -0.315 N 
HETATM    3  C   UNL     1     -42.028  54.599 -52.142  1.00  0.00     0.065 A 
HETATM    4  C   UNL     1     -41.987  55.147 -50.870  1.00  0.00     0.150 A 
HETATM    5  N   UNL     1     -42.776  56.260 -50.773  1.00  0.00    -0.234 NA
ENDROOT
BRANCH   1   6
HETATM    6  S   UNL     1     -44.179  57.818 -52.477  1.00  0.00    -0.083 SA
BRANCH   6   7
HETATM    7  C   UNL     1     -45.289  58.061 -51.067  1.00  0.00     0.185 C 
BRANCH   7   8
HETATM    8  C   UNL     1     -45.505  59.535 -50.753  1.00  0.00     0.231 C 
HETATM    9  N   UNL     1     -44.479  60.089 -50.009  1.00  0.00    -0.326 N 
HETATM   10  H   UNL     1     -43.750  59.434 -49.725  1.00  0.00     0.169 HD
HETATM   11  O   UNL     1     -46.556  60.089 -51.066  1.00  0.00    -0.272 OA
BRANCH   9  12
HETATM   12  C   UNL     1     -44.453  61.360 -49.392  1.00  0.00     0.046 A 
HETATM   13  C   UNL     1     -43.886  62.423 -50.140  1.00  0.00    -0.035 A 
HETATM   14  C   UNL     1     -43.309  62.219 -51.517  1.00  0.00     0.050 C 
HETATM   15  C   UNL     1     -43.810  63.708 -49.577  1.00  0.00     0.009 A 
HETATM   16  C   UNL     1     -44.285  63.948 -48.295  1.00  0.00     0.001 A 
HETATM   17  C   UNL     1     -44.872  62.913 -47.573  1.00  0.00     0.009 A 
HETATM   18  C   UNL     1     -44.993  61.620 -48.117  1.00  0.00    -0.035 A 
HETATM   19  C   UNL     1     -45.760  60.616 -47.299  1.00  0.00     0.050 C 
ENDBRANCH   9  12
ENDBRANCH   7   8
ENDBRANCH   6   7
ENDBRANCH   1   6
BRANCH   2  20
HETATM   20  C   UNL     1     -43.520  55.140 -54.127  1.00  0.00     0.234 C 
BRANCH  20  21
HETATM   21  C   UNL     1     -42.959  55.865 -55.331  1.00  0.00     0.236 C 
HETATM   22  N   UNL     1     -43.651  55.822 -56.513  1.00  0.00    -0.355 N 
HETATM   23  H   UNL     1     -44.540  55.339 -56.525  1.00  0.00     0.162 HD
HETATM   24  O   UNL     1     -41.899  56.472 -55.195  1.00  0.00    -0.272 OA
BRANCH  22  25
HETATM   25  C   UNL     1     -43.380  56.632 -57.706  1.00  0.00     0.084 C 
HETATM   26  C   UNL     1     -42.941  55.779 -58.904  1.00  0.00     0.025 C 
HETATM   27  C   UNL     1     -44.092  55.280 -59.766  1.00  0.00     0.002 C 
HETATM   28  C   UNL     1     -44.964  56.436 -60.234  1.00  0.00     0.000 C 
HETATM   29  C   UNL     1     -45.512  57.256 -59.073  1.00  0.00     0.002 C 
HETATM   30  C   UNL     1     -44.444  57.683 -58.064  1.00  0.00     0.025 C 
ENDBRANCH  22  25
ENDBRANCH  20  21
ENDBRANCH   2  20
BRANCH   3  31
HETATM   31  C   UNL     1     -41.238  53.499 -52.684  1.00  0.00    -0.008 A 
HETATM   32  C   UNL     1     -41.391  53.056 -54.003  1.00  0.00     0.017 A 
HETATM   33  C   UNL     1     -40.613  52.000 -54.487  1.00  0.00     0.043 A 
HETATM   34  C   UNL     1     -39.698  51.376 -53.647  1.00  0.00     0.116 A 
HETATM   35  F   UNL     1     -38.957  50.363 -54.112  1.00  0.00    -0.206 F 
HETATM   36  C   UNL     1     -39.548  51.784 -52.328  1.00  0.00     0.043 A 
HETATM   37  C   UNL     1     -40.319  52.845 -51.847  1.00  0.00     0.017 A 
ENDBRANCH   3  31
TORSDOF 8
ENDMDL
MODEL 6
REMARK VINA RESULT:      -8.4      3.704      9.572
REMARK  8 active torsions:
REMARK  status: ('A' for Active; 'I' for Inactive)
REMARK    1  A    between atoms: C_3  and  N_4 
REMARK       I    between atoms: N_4  and  C_5 
REMARK    2  A    between atoms: C_5  and  C_6 
REMARK    3  A    between atoms: C_6  and  S_7 
REMARK    4  A    between atoms: S_7  and  C_8 
REMARK    5  A    between atoms: N_9  and  C_10 
REMARK    6  A    between atoms: C_10  and  C_11 
REMARK       I    between atoms: C_11  and  N_12 
REMARK    7  A    between atoms: N_12  and  C_13 
REMARK    8  A    between atoms: C_20  and  C_21 
ROOT
HETATM    1  C   UNL     1     -43.507  58.328 -53.449  1.00  0.00     0.169 A 
HETATM    2  N   UNL     1     -43.133  58.454 -54.768  1.00  0.00    -0.315 N 
HETATM    3  C   UNL     1     -44.040  57.718 -55.516  1.00  0.00     0.065 A 
HETATM    4  C   UNL     1     -44.980  57.300 -54.588  1.00  0.00     0.150 A 
HETATM    5  N   UNL     1     -44.655  57.706 -53.322  1.00  0.00    -0.234 NA
ENDROOT
BRANCH   1   6
HETATM    6  S   UNL     1     -42.533  58.875 -52.126  1.00  0.00    -0.083 SA
BRANCH   6   7
HETATM    7  C   UNL     1     -42.117  57.317 -51.303  1.00  0.00     0.185 C 
BRANCH   7   8
HETATM    8  C   UNL     1     -41.441  56.331 -52.245  1.00  0.00     0.231 C 
HETATM    9  N   UNL     1     -41.735  55.011 -51.954  1.00  0.00    -0.326 N 
HETATM   10  H   UNL     1     -42.313  54.871 -51.125  1.00  0.00     0.169 HD
HETATM   11  O   UNL     1     -40.643  56.729 -53.091  1.00  0.00    -0.272 OA
BRANCH   9  12
HETATM   12  C   UNL     1     -41.133  53.856 -52.500  1.00  0.00     0.046 A 
HETATM   13  C   UNL     1     -40.245  53.138 -51.659  1.00  0.00    -0.035 A 
HETATM   14  C   UNL     1     -39.926  53.588 -50.256  1.00  0.00     0.050 C 
HETATM   15  C   UNL     1     -39.597  51.991 -52.146  1.00  0.00     0.009 A 
HETATM   16  C   UNL     1     -39.817  51.553 -53.444  1.00  0.00     0.001 A 
HETATM   17  C   UNL     1     -40.712  52.236 -54.261  1.00  0.00     0.009 A 
HETATM   18  C   UNL     1     -41.404  53.372 -53.795  1.00  0.00    -0.035 A 
HETATM   19  C   UNL     1     -42.443  53.950 -54.717  1.00  0.00     0.050 C 
ENDBRANCH   9  12
ENDBRANCH   7   8
ENDBRANCH   6   7
ENDBRANCH   1   6
BRANCH   2  20
HETATM   20  C   UNL     1     -42.075  59.312 -55.278  1.00  0.00     0.234 C 
BRANCH  20  21
HETATM   21  C   UNL     1     -42.465  60.567 -56.029  1.00  0.00     0.236 C 
HETATM   22  N   UNL     1     -41.699  60.969 -57.092  1.00  0.00    -0.355 N 
HETATM   23  H   UNL     1     -40.921  60.382 -57.365  1.00  0.00     0.162 HD
HETATM   24  O   UNL     1     -43.465  61.176 -55.653  1.00  0.00    -0.272 OA
BRANCH  22  25
HETATM   25  C   UNL     1     -42.042  62.018 -58.059  1.00  0.00     0.084 C 
HETATM   26  C   UNL     1     -40.896  63.016 -58.268  1.00  0.00     0.025 C 
HETATM   27  C   UNL     1     -39.919  62.620 -59.366  1.00  0.00     0.002 C 
HETATM   28  C   UNL     1     -40.647  62.372 -60.679  1.00  0.00     0.000 C 
HETATM   29  C   UNL     1     -41.730  61.308 -60.550  1.00  0.00     0.002 C 
HETATM   30  C   UNL     1     -42.681  61.540 -59.374  1.00  0.00     0.025 C 
ENDBRANCH  22  25
ENDBRANCH  20  21
ENDBRANCH   2  20
BRANCH   3  31
HETATM   31  C   UNL     1     -43.952  57.385 -56.934  1.00  0.00    -0.008 A 
HETATM   32  C   UNL     1     -43.128  56.357 -57.405  1.00  0.00     0.017 A 
HETATM   33  C   UNL     1     -43.073  56.066 -58.771  1.00  0.00     0.043 A 
HETATM   34  C   UNL     1     -43.827  56.816 -59.666  1.00  0.00     0.116 A 
HETATM   35  F   UNL     1     -43.770  56.537 -60.974  1.00  0.00    -0.206 F 
HETATM   36  C   UNL     1     -44.632  57.856 -59.223  1.00  0.00     0.043 A 
HETATM   37  C   UNL     1     -44.694  58.140 -57.857  1.00  0.00     0.017 A 
ENDBRANCH   3  31
TORSDOF 8
ENDMDL
MODEL 7
REMARK VINA RESULT:      -8.3      2.053      2.866
REMARK  8 active torsions:
REMARK  status: ('A' for Active; 'I' for Inactive)
REMARK    1  A    between atoms: C_3  and  N_4 
REMARK       I    between atoms: N_4  and  C_5 
REMARK    2  A    between atoms: C_5  and  C_6 
REMARK    3  A    between atoms: C_6  and  S_7 
REMARK    4  A    between atoms: S_7  and  C_8 
REMARK    5  A    between atoms: N_9  and  C_10 
REMARK    6  A    between atoms: C_10  and  C_11 
REMARK       I    between atoms: C_11  and  N_12 
REMARK    7  A    between atoms: N_12  and  C_13 
REMARK    8  A    between atoms: C_20  and  C_21 
ROOT
HETATM    1  C   UNL     1     -43.081  59.270 -54.074  1.00  0.00     0.169 A 
HETATM    2  N   UNL     1     -42.572  58.075 -53.618  1.00  0.00    -0.315 N 
HETATM    3  C   UNL     1     -42.987  57.936 -52.301  1.00  0.00     0.065 A 
HETATM    4  C   UNL     1     -43.832  59.015 -52.100  1.00  0.00     0.150 A 
HETATM    5  N   UNL     1     -43.904  59.814 -53.209  1.00  0.00    -0.234 NA
ENDROOT
BRANCH   1   6
HETATM    6  S   UNL     1     -42.627  59.984 -55.584  1.00  0.00    -0.083 SA
BRANCH   6   7
HETATM    7  C   UNL     1     -44.200  59.989 -56.480  1.00  0.00     0.185 C 
BRANCH   7   8
HETATM    8  C   UNL     1     -44.641  58.588 -56.876  1.00  0.00     0.231 C 
HETATM    9  N   UNL     1     -44.296  58.255 -58.174  1.00  0.00    -0.326 N 
HETATM   10  H   UNL     1     -43.848  59.002 -58.706  1.00  0.00     0.169 HD
HETATM   11  O   UNL     1     -45.324  57.912 -56.110  1.00  0.00    -0.272 OA
BRANCH   9  12
HETATM   12  C   UNL     1     -44.714  57.125 -58.913  1.00  0.00     0.046 A 
HETATM   13  C   UNL     1     -43.888  55.974 -58.843  1.00  0.00    -0.035 A 
HETATM   14  C   UNL     1     -42.608  55.950 -58.048  1.00  0.00     0.050 C 
HETATM   15  C   UNL     1     -44.234  54.823 -59.570  1.00  0.00     0.009 A 
HETATM   16  C   UNL     1     -45.378  54.801 -60.356  1.00  0.00     0.001 A 
HETATM   17  C   UNL     1     -46.207  55.917 -60.399  1.00  0.00     0.009 A 
HETATM   18  C   UNL     1     -45.907  57.078 -59.659  1.00  0.00    -0.035 A 
HETATM   19  C   UNL     1     -46.940  58.172 -59.678  1.00  0.00     0.050 C 
ENDBRANCH   9  12
ENDBRANCH   7   8
ENDBRANCH   6   7
ENDBRANCH   1   6
BRANCH   2  20
HETATM   20  C   UNL     1     -41.858  57.090 -54.415  1.00  0.00     0.234 C 
BRANCH  20  21
HETATM   21  C   UNL     1     -42.233  55.632 -54.261  1.00  0.00     0.236 C 
HETATM   22  N   UNL     1     -41.317  54.764 -53.726  1.00  0.00    -0.355 N 
HETATM   23  H   UNL     1     -40.433  55.143 -53.411  1.00  0.00     0.162 HD
HETATM   24  O   UNL     1     -43.356  55.284 -54.622  1.00  0.00    -0.272 OA
BRANCH  22  25
HETATM   25  C   UNL     1     -41.575  53.383 -53.305  1.00  0.00     0.084 C 
HETATM   26  C   UNL     1     -41.335  52.373 -54.434  1.00  0.00     0.025 C 
HETATM   27  C   UNL     1     -39.905  51.857 -54.513  1.00  0.00     0.002 C 
HETATM   28  C   UNL     1     -39.463  51.270 -53.180  1.00  0.00     0.000 C 
HETATM   29  C   UNL     1     -39.584  52.271 -52.038  1.00  0.00     0.002 C 
HETATM   30  C   UNL     1     -40.949  52.958 -51.966  1.00  0.00     0.025 C 
ENDBRANCH  22  25
ENDBRANCH  20  21
ENDBRANCH   2  20
BRANCH   3  31
HETATM   31  C   UNL     1     -42.544  56.936 -51.335  1.00  0.00    -0.008 A 
HETATM   32  C   UNL     1     -43.386  55.911 -50.890  1.00  0.00     0.017 A 
HETATM   33  C   UNL     1     -42.924  54.970 -49.965  1.00  0.00     0.043 A 
HETATM   34  C   UNL     1     -41.628  55.066 -49.473  1.00  0.00     0.116 A 
HETATM   35  F   UNL     1     -41.189  54.165 -48.586  1.00  0.00    -0.206 F 
HETATM   36  C   UNL     1     -40.784  56.089 -49.883  1.00  0.00     0.043 A 
HETATM   37  C   UNL     1     -41.243  57.024 -50.814  1.00  0.00     0.017 A 
ENDBRANCH   3  31
TORSDOF 8
ENDMDL
MODEL 8
REMARK VINA RESULT:      -8.3      3.218      9.152
REMARK  8 active torsions:
REMARK  status: ('A' for Active; 'I' for Inactive)
REMARK    1  A    between atoms: C_3  and  N_4 
REMARK       I    between atoms: N_4  and  C_5 
REMARK    2  A    between atoms: C_5  and  C_6 
REMARK    3  A    between atoms: C_6  and  S_7 
REMARK    4  A    between atoms: S_7  and  C_8 
REMARK    5  A    between atoms: N_9  and  C_10 
REMARK    6  A    between atoms: C_10  and  C_11 
REMARK       I    between atoms: C_11  and  N_12 
REMARK    7  A    between atoms: N_12  and  C_13 
REMARK    8  A    between atoms: C_20  and  C_21 
ROOT
HETATM    1  C   UNL     1     -42.695  57.958 -52.797  1.00  0.00     0.169 A 
HETATM    2  N   UNL     1     -43.097  57.984 -54.113  1.00  0.00    -0.315 N 
HETATM    3  C   UNL     1     -42.733  59.223 -54.621  1.00  0.00     0.065 A 
HETATM    4  C   UNL     1     -42.016  59.810 -53.592  1.00  0.00     0.150 A 
HETATM    5  N   UNL     1     -41.976  59.009 -52.483  1.00  0.00    -0.234 NA
ENDROOT
BRANCH   1   6
HETATM    6  S   UNL     1     -43.149  56.709 -51.687  1.00  0.00    -0.083 SA
BRANCH   6   7
HETATM    7  C   UNL     1     -41.584  55.827 -51.460  1.00  0.00     0.185 C 
BRANCH   7   8
HETATM    8  C   UNL     1     -41.689  54.360 -51.851  1.00  0.00     0.231 C 
HETATM    9  N   UNL     1     -40.459  53.767 -52.072  1.00  0.00    -0.326 N 
HETATM   10  H   UNL     1     -39.658  54.394 -51.999  1.00  0.00     0.169 HD
HETATM   11  O   UNL     1     -42.788  53.844 -52.038  1.00  0.00    -0.272 OA
BRANCH   9  12
HETATM   12  C   UNL     1     -40.206  52.492 -52.626  1.00  0.00     0.046 A 
HETATM   13  C   UNL     1     -40.061  52.423 -54.035  1.00  0.00    -0.035 A 
HETATM   14  C   UNL     1     -40.195  53.638 -54.917  1.00  0.00     0.050 C 
HETATM   15  C   UNL     1     -39.829  51.183 -54.653  1.00  0.00     0.009 A 
HETATM   16  C   UNL     1     -39.740  50.022 -53.897  1.00  0.00     0.001 A 
HETATM   17  C   UNL     1     -39.849  50.092 -52.511  1.00  0.00     0.009 A 
HETATM   18  C   UNL     1     -40.051  51.322 -51.856  1.00  0.00    -0.035 A 
HETATM   19  C   UNL     1     -40.021  51.295 -50.351  1.00  0.00     0.050 C 
ENDBRANCH   9  12
ENDBRANCH   7   8
ENDBRANCH   6   7
ENDBRANCH   1   6
BRANCH   2  20
HETATM   20  C   UNL     1     -43.665  56.870 -54.856  1.00  0.00     0.234 C 
BRANCH  20  21
HETATM   21  C   UNL     1     -43.187  56.631 -56.272  1.00  0.00     0.236 C 
HETATM   22  N   UNL     1     -44.081  56.753 -57.303  1.00  0.00    -0.355 N 
HETATM   23  H   UNL     1     -45.025  57.043 -57.081  1.00  0.00     0.162 HD
HETATM   24  O   UNL     1     -42.004  56.340 -56.439  1.00  0.00    -0.272 OA
BRANCH  22  25
HETATM   25  C   UNL     1     -43.756  56.773 -58.734  1.00  0.00     0.084 C 
HETATM   26  C   UNL     1     -43.328  55.395 -59.256  1.00  0.00     0.025 C 
HETATM   27  C   UNL     1     -44.482  54.532 -59.748  1.00  0.00     0.002 C 
HETATM   28  C   UNL     1     -45.299  55.264 -60.803  1.00  0.00     0.000 C 
HETATM   29  C   UNL     1     -45.837  56.597 -60.297  1.00  0.00     0.002 C 
HETATM   30  C   UNL     1     -44.771  57.482 -59.646  1.00  0.00     0.025 C 
ENDBRANCH  22  25
ENDBRANCH  20  21
ENDBRANCH   2  20
BRANCH   3  31
HETATM   31  C   UNL     1     -43.114  59.798 -55.907  1.00  0.00    -0.008 A 
HETATM   32  C   UNL     1     -42.188  59.986 -56.939  1.00  0.00     0.017 A 
HETATM   33  C   UNL     1     -42.593  60.538 -58.158  1.00  0.00     0.043 A 
HETATM   34  C   UNL     1     -43.918  60.918 -58.337  1.00  0.00     0.116 A 
HETATM   35  F   UNL     1     -44.302  61.449 -59.505  1.00  0.00    -0.206 F 
HETATM   36  C   UNL     1     -44.848  60.762 -57.318  1.00  0.00     0.043 A 
HETATM   37  C   UNL     1     -44.445  60.202 -56.103  1.00  0.00     0.017 A 
ENDBRANCH   3  31
TORSDOF 8
ENDMDL
MODEL 9
REMARK VINA RESULT:      -8.2      2.865      6.042
REMARK  8 active torsions:
REMARK  status: ('A' for Active; 'I' for Inactive)
REMARK    1  A    between atoms: C_3  and  N_4 
REMARK       I    between atoms: N_4  and  C_5 
REMARK    2  A    between atoms: C_5  and  C_6 
REMARK    3  A    between atoms: C_6  and  S_7 
REMARK    4  A    between atoms: S_7  and  C_8 
REMARK    5  A    between atoms: N_9  and  C_10 
REMARK    6  A    between atoms: C_10  and  C_11 
REMARK       I    between atoms: C_11  and  N_12 
REMARK    7  A    between atoms: N_12  and  C_13 
REMARK    8  A    between atoms: C_20  and  C_21 
ROOT
HETATM    1  C   UNL     1     -42.920  58.434 -52.884  1.00  0.00     0.169 A 
HETATM    2  N   UNL     1     -42.863  57.241 -53.568  1.00  0.00    -0.315 N 
HETATM    3  C   UNL     1     -41.870  56.480 -52.970  1.00  0.00     0.065 A 
HETATM    4  C   UNL     1     -41.483  57.234 -51.874  1.00  0.00     0.150 A 
HETATM    5  N   UNL     1     -42.158  58.424 -51.816  1.00  0.00    -0.234 NA
ENDROOT
BRANCH   1   6
HETATM    6  S   UNL     1     -43.844  59.797 -53.420  1.00  0.00    -0.083 SA
BRANCH   6   7
HETATM    7  C   UNL     1     -42.621  60.716 -54.388  1.00  0.00     0.185 C 
BRANCH   7   8
HETATM    8  C   UNL     1     -43.231  61.355 -55.627  1.00  0.00     0.231 C 
HETATM    9  N   UNL     1     -43.711  60.429 -56.536  1.00  0.00    -0.326 N 
HETATM   10  H   UNL     1     -43.546  59.454 -56.287  1.00  0.00     0.169 HD
HETATM   11  O   UNL     1     -43.175  62.572 -55.790  1.00  0.00    -0.272 OA
BRANCH   9  12
HETATM   12  C   UNL     1     -44.157  60.670 -57.855  1.00  0.00     0.046 A 
HETATM   13  C   UNL     1     -43.204  60.508 -58.893  1.00  0.00    -0.035 A 
HETATM   14  C   UNL     1     -41.773  60.124 -58.617  1.00  0.00     0.050 C 
HETATM   15  C   UNL     1     -43.576  60.752 -60.226  1.00  0.00     0.009 A 
HETATM   16  C   UNL     1     -44.868  61.151 -60.537  1.00  0.00     0.001 A 
HETATM   17  C   UNL     1     -45.813  61.279 -59.524  1.00  0.00     0.009 A 
HETATM   18  C   UNL     1     -45.484  61.012 -58.181  1.00  0.00    -0.035 A 
HETATM   19  C   UNL     1     -46.617  61.055 -57.190  1.00  0.00     0.050 C 
ENDBRANCH   9  12
ENDBRANCH   7   8
ENDBRANCH   6   7
ENDBRANCH   1   6
BRANCH   2  20
HETATM   20  C   UNL     1     -43.771  56.817 -54.623  1.00  0.00     0.234 C 
BRANCH  20  21
HETATM   21  C   UNL     1     -43.368  57.062 -56.061  1.00  0.00     0.236 C 
HETATM   22  N   UNL     1     -44.161  56.571 -57.065  1.00  0.00    -0.355 N 
HETATM   23  H   UNL     1     -45.016  56.097 -56.805  1.00  0.00     0.162 HD
HETATM   24  O   UNL     1     -42.339  57.703 -56.270  1.00  0.00    -0.272 OA
BRANCH  22  25
HETATM   25  C   UNL     1     -44.051  56.893 -58.492  1.00  0.00     0.084 C 
HETATM   26  C   UNL     1     -43.380  55.770 -59.294  1.00  0.00     0.025 C 
HETATM   27  C   UNL     1     -44.348  54.721 -59.823  1.00  0.00     0.002 C 
HETATM   28  C   UNL     1     -45.454  55.365 -60.645  1.00  0.00     0.000 C 
HETATM   29  C   UNL     1     -46.223  56.419 -59.857  1.00  0.00     0.002 C 
HETATM   30  C   UNL     1     -45.323  57.441 -59.160  1.00  0.00     0.025 C 
ENDBRANCH  22  25
ENDBRANCH  20  21
ENDBRANCH   2  20
BRANCH   3  31
HETATM   31  C   UNL     1     -41.304  55.226 -53.455  1.00  0.00    -0.008 A 
HETATM   32  C   UNL     1     -40.563  55.155 -54.640  1.00  0.00     0.017 A 
HETATM   33  C   UNL     1     -40.035  53.935 -55.071  1.00  0.00     0.043 A 
HETATM   34  C   UNL     1     -40.264  52.783 -54.326  1.00  0.00     0.116 A 
HETATM   35  F   UNL     1     -39.759  51.616 -54.743  1.00  0.00    -0.206 F 
HETATM   36  C   UNL     1     -41.016  52.827 -53.160  1.00  0.00     0.043 A 
HETATM   37  C   UNL     1     -41.536  54.048 -52.725  1.00  0.00     0.017 A 
ENDBRANCH   3  31
TORSDOF 8
ENDMDL
MODEL 10
REMARK VINA RESULT:      -8.1      3.170      9.312
REMARK  8 active torsions:
REMARK  status: ('A' for Active; 'I' for Inactive)
REMARK    1  A    between atoms: C_3  and  N_4 
REMARK       I    between atoms: N_4  and  C_5 
REMARK    2  A    between atoms: C_5  and  C_6 
REMARK    3  A    between atoms: C_6  and  S_7 
REMARK    4  A    between atoms: S_7  and  C_8 
REMARK    5  A    between atoms: N_9  and  C_10 
REMARK    6  A    between atoms: C_10  and  C_11 
REMARK       I    between atoms: C_11  and  N_12 
REMARK    7  A    between atoms: N_12  and  C_13 
REMARK    8  A    between atoms: C_20  and  C_21 
ROOT
HETATM    1  C   UNL     1     -42.927  57.194 -54.112  1.00  0.00     0.169 A 
HETATM    2  N   UNL     1     -44.045  57.976 -54.288  1.00  0.00    -0.315 N 
HETATM    3  C   UNL     1     -43.922  59.055 -53.425  1.00  0.00     0.065 A 
HETATM    4  C   UNL     1     -42.659  58.904 -52.877  1.00  0.00     0.150 A 
HETATM    5  N   UNL     1     -42.044  57.768 -53.329  1.00  0.00    -0.234 NA
ENDROOT
BRANCH   1   6
HETATM    6  S   UNL     1     -42.752  55.614 -54.799  1.00  0.00    -0.083 SA
BRANCH   6   7
HETATM    7  C   UNL     1     -41.180  55.070 -54.083  1.00  0.00     0.185 C 
BRANCH   7   8
HETATM    8  C   UNL     1     -41.367  53.947 -53.073  1.00  0.00     0.231 C 
HETATM    9  N   UNL     1     -40.211  53.222 -52.845  1.00  0.00    -0.326 N 
HETATM   10  H   UNL     1     -39.411  53.495 -53.416  1.00  0.00     0.169 HD
HETATM   11  O   UNL     1     -42.483  53.696 -52.623  1.00  0.00    -0.272 OA
BRANCH   9  12
HETATM   12  C   UNL     1     -40.082  52.013 -52.125  1.00  0.00     0.046 A 
HETATM   13  C   UNL     1     -39.781  50.849 -52.877  1.00  0.00    -0.035 A 
HETATM   14  C   UNL     1     -39.630  50.877 -54.376  1.00  0.00     0.050 C 
HETATM   15  C   UNL     1     -39.660  49.610 -52.226  1.00  0.00     0.009 A 
HETATM   16  C   UNL     1     -39.832  49.514 -50.852  1.00  0.00     0.001 A 
HETATM   17  C   UNL     1     -40.095  50.660 -50.108  1.00  0.00     0.009 A 
HETATM   18  C   UNL     1     -40.193  51.923 -50.723  1.00  0.00    -0.035 A 
HETATM   19  C   UNL     1     -40.348  53.107 -49.807  1.00  0.00     0.050 C 
ENDBRANCH   9  12
ENDBRANCH   7   8
ENDBRANCH   6   7
ENDBRANCH   1   6
BRANCH   2  20
HETATM   20  C   UNL     1     -45.080  57.775 -55.291  1.00  0.00     0.234 C 
BRANCH  20  21
HETATM   21  C   UNL     1     -44.766  58.126 -56.729  1.00  0.00     0.236 C 
HETATM   22  N   UNL     1     -44.593  57.113 -57.636  1.00  0.00    -0.355 N 
HETATM   23  H   UNL     1     -44.725  56.162 -57.316  1.00  0.00     0.162 HD
HETATM   24  O   UNL     1     -44.685  59.316 -57.027  1.00  0.00    -0.272 OA
BRANCH  22  25
HETATM   25  C   UNL     1     -44.502  57.261 -59.093  1.00  0.00     0.084 C 
HETATM   26  C   UNL     1     -43.483  56.298 -59.715  1.00  0.00     0.025 C 
HETATM   27  C   UNL     1     -44.063  54.945 -60.102  1.00  0.00     0.002 C 
HETATM   28  C   UNL     1     -45.262  55.109 -61.024  1.00  0.00     0.000 C 
HETATM   29  C   UNL     1     -46.353  55.975 -60.407  1.00  0.00     0.002 C 
HETATM   30  C   UNL     1     -45.839  57.305 -59.851  1.00  0.00     0.025 C 
ENDBRANCH  22  25
ENDBRANCH  20  21
ENDBRANCH   2  20
BRANCH   3  31
HETATM   31  C   UNL     1     -44.938  60.052 -53.105  1.00  0.00    -0.008 A 
HETATM   32  C   UNL     1     -45.814  59.898 -52.024  1.00  0.00     0.017 A 
HETATM   33  C   UNL     1     -46.773  60.877 -51.748  1.00  0.00     0.043 A 
HETATM   34  C   UNL     1     -46.868  61.998 -52.564  1.00  0.00     0.116 A 
HETATM   35  F   UNL     1     -47.790  62.932 -52.298  1.00  0.00    -0.206 F 
HETATM   36  C   UNL     1     -46.026  62.159 -53.656  1.00  0.00     0.043 A 
HETATM   37  C   UNL     1     -45.062  61.185 -53.926  1.00  0.00     0.017 A 
ENDBRANCH   3  31
TORSDOF 8
ENDMDL
