MODEL 1
REMARK VINA RESULT:      -8.1      0.000      0.000
REMARK  7 active torsions:
REMARK  status: ('A' for Active; 'I' for Inactive)
REMARK    1  A    between atoms: C_6  and  C_7 
REMARK    2  A    between atoms: N_13  and  C_15 
REMARK    3  A    between atoms: C_15  and  C_16 
REMARK    4  A    between atoms: C_16  and  N_17 
REMARK       I    between atoms: N_17  and  C_18 
REMARK    5  A    between atoms: C_18  and  C_19 
REMARK    6  A    between atoms: C_19  and  N_20 
REMARK    7  A    between atoms: C_19  and  C_27 
ROOT
HETATM    1  C   UNL     1     -40.778  54.542 -55.164  1.00  0.00     0.150 C 
ENDROOT
BRANCH   1   2
HETATM    2  C   UNL     1     -40.996  54.891 -53.674  1.00  0.00     0.255 C 
BRANCH   2   3
HETATM    3  N   UNL     1     -42.460  54.919 -53.267  1.00  0.00    -0.063 N 
HETATM    4  C   UNL     1     -43.034  56.290 -52.892  1.00  0.00     0.272 C 
HETATM    5  C   UNL     1     -42.454  56.905 -51.589  1.00  0.00     0.188 C 
HETATM    6  O   UNL     1     -42.879  56.130 -50.453  1.00  0.00    -0.339 OA
HETATM    7  C   UNL     1     -41.993  55.132 -50.161  1.00  0.00     0.077 A 
HETATM    8  C   UNL     1     -41.909  53.996 -50.971  1.00  0.00     0.001 A 
HETATM    9  C   UNL     1     -41.229  55.253 -49.003  1.00  0.00     0.037 A 
HETATM   10  C   UNL     1     -41.009  52.981 -50.615  1.00  0.00     0.012 A 
HETATM   11  C   UNL     1     -42.768  53.876 -52.193  1.00  0.00     0.276 C 
HETATM   12  C   UNL     1     -40.221  53.109 -49.468  1.00  0.00     0.001 A 
HETATM   13  C   UNL     1     -40.333  54.242 -48.663  1.00  0.00     0.003 A 
HETATM   14  H   UNL     1     -43.009  54.603 -54.077  1.00  0.00     0.280 HD
BRANCH   5  15
HETATM   15  C   UNL     1     -42.937  58.332 -51.448  1.00  0.00    -0.020 A 
HETATM   16  C   UNL     1     -42.112  59.444 -51.435  1.00  0.00     0.059 A 
HETATM   17  S   UNL     1     -42.972  60.914 -51.289  1.00  0.00    -0.113 SA
HETATM   18  C   UNL     1     -44.467  60.094 -51.211  1.00  0.00     0.050 A 
HETATM   19  C   UNL     1     -44.312  58.729 -51.308  1.00  0.00     0.017 A 
ENDBRANCH   5  15
ENDBRANCH   2   3
ENDBRANCH   1   2
BRANCH   1  20
HETATM   20  N   UNL     1     -41.391  55.486 -56.103  1.00  0.00    -0.357 N 
HETATM   21  C   UNL     1     -42.709  55.351 -56.510  1.00  0.00     0.253 C 
HETATM   22  O   UNL     1     -43.356  54.348 -56.219  1.00  0.00    -0.271 OA
HETATM   23  H   UNL     1     -40.966  56.412 -56.150  1.00  0.00     0.162 HD
BRANCH  21  24
HETATM   24  C   UNL     1     -43.292  56.505 -57.398  1.00  0.00     0.314 C 
BRANCH  24  25
HETATM   25  N   UNL     1     -44.388  56.076 -58.398  1.00  0.00    -0.050 N 
HETATM   26  H   UNL     1     -45.099  55.584 -57.841  1.00  0.00     0.281 HD
HETATM   27  C   UNL     1     -45.090  57.264 -59.056  1.00  0.00     0.262 C 
HETATM   28  C   UNL     1     -46.231  56.763 -59.948  1.00  0.00     0.195 C 
HETATM   29  O   UNL     1     -45.734  55.856 -60.935  1.00  0.00    -0.388 OA
HETATM   30  C   UNL     1     -45.146  54.693 -60.345  1.00  0.00     0.195 C 
HETATM   31  C   UNL     1     -43.944  55.074 -59.470  1.00  0.00     0.262 C 
ENDBRANCH  24  25
BRANCH  24  32
HETATM   32  C   UNL     1     -43.704  57.716 -56.597  1.00  0.00    -0.001 A 
HETATM   33  C   UNL     1     -43.030  58.931 -56.696  1.00  0.00     0.126 A 
HETATM   34  N   UNL     1     -43.353  60.029 -55.986  1.00  0.00    -0.272 NA
HETATM   35  C   UNL     1     -44.385  59.934 -55.121  1.00  0.00     0.116 A 
HETATM   36  C   UNL     1     -45.113  58.773 -54.937  1.00  0.00     0.020 A 
HETATM   37  C   UNL     1     -44.766  57.649 -55.683  1.00  0.00     0.012 A 
ENDBRANCH  24  32
ENDBRANCH  21  24
ENDBRANCH   1  20
TORSDOF 7
ENDMDL
MODEL 2
REMARK VINA RESULT:      -8.0      2.910      8.797
REMARK  7 active torsions:
REMARK  status: ('A' for Active; 'I' for Inactive)
REMARK    1  A    between atoms: C_6  and  C_7 
REMARK    2  A    between atoms: N_13  and  C_15 
REMARK    3  A    between atoms: C_15  and  C_16 
REMARK    4  A    between atoms: C_16  and  N_17 
REMARK       I    between atoms: N_17  and  C_18 
REMARK    5  A    between atoms: C_18  and  C_19 
REMARK    6  A    between atoms: C_19  and  N_20 
REMARK    7  A    between atoms: C_19  and  C_27 
ROOT
HETATM    1  C   UNL     1     -42.805  55.100 -56.826  1.00  0.00     0.150 C 
ENDROOT
BRANCH   1   2
HETATM    2  C   UNL     1     -42.951  56.523 -57.413  1.00  0.00     0.255 C 
BRANCH   2   3
HETATM    3  N   UNL     1     -42.225  56.709 -58.735  1.00  0.00    -0.063 N 
HETATM    4  C   UNL     1     -41.658  58.106 -59.008  1.00  0.00     0.272 C 
HETATM    5  C   UNL     1     -42.726  59.216 -59.210  1.00  0.00     0.188 C 
HETATM    6  O   UNL     1     -43.441  58.985 -60.438  1.00  0.00    -0.339 OA
HETATM    7  C   UNL     1     -44.547  58.209 -60.243  1.00  0.00     0.077 A 
HETATM    8  C   UNL     1     -44.419  56.838 -59.998  1.00  0.00     0.001 A 
HETATM    9  C   UNL     1     -45.798  58.809 -60.358  1.00  0.00     0.037 A 
HETATM   10  C   UNL     1     -45.583  56.073 -59.837  1.00  0.00     0.012 A 
HETATM   11  C   UNL     1     -43.061  56.210 -59.914  1.00  0.00     0.276 C 
HETATM   12  C   UNL     1     -46.840  56.675 -59.925  1.00  0.00     0.001 A 
HETATM   13  C   UNL     1     -46.947  58.040 -60.187  1.00  0.00     0.003 A 
HETATM   14  H   UNL     1     -41.412  56.078 -58.730  1.00  0.00     0.280 HD
BRANCH   5  15
HETATM   15  C   UNL     1     -42.046  60.567 -59.256  1.00  0.00    -0.020 A 
HETATM   16  C   UNL     1     -42.106  61.440 -60.329  1.00  0.00     0.059 A 
HETATM   17  S   UNL     1     -41.253  62.897 -60.053  1.00  0.00    -0.113 SA
HETATM   18  C   UNL     1     -40.762  62.378 -58.502  1.00  0.00     0.050 A 
HETATM   19  C   UNL     1     -41.250  61.127 -58.198  1.00  0.00     0.017 A 
ENDBRANCH   5  15
ENDBRANCH   2   3
ENDBRANCH   1   2
BRANCH   1  20
HETATM   20  N   UNL     1     -41.787  54.978 -55.778  1.00  0.00    -0.357 N 
HETATM   21  C   UNL     1     -42.058  54.346 -54.574  1.00  0.00     0.253 C 
HETATM   22  O   UNL     1     -43.204  54.008 -54.287  1.00  0.00    -0.271 OA
HETATM   23  H   UNL     1     -40.817  55.026 -56.088  1.00  0.00     0.162 HD
BRANCH  21  24
HETATM   24  C   UNL     1     -40.848  54.148 -53.597  1.00  0.00     0.314 C 
BRANCH  24  25
HETATM   25  N   UNL     1     -40.986  54.852 -52.229  1.00  0.00    -0.050 N 
HETATM   26  H   UNL     1     -40.077  54.742 -51.763  1.00  0.00     0.281 HD
HETATM   27  C   UNL     1     -41.235  56.355 -52.357  1.00  0.00     0.262 C 
HETATM   28  C   UNL     1     -41.253  56.998 -50.966  1.00  0.00     0.195 C 
HETATM   29  O   UNL     1     -42.251  56.387 -50.144  1.00  0.00    -0.388 OA
HETATM   30  C   UNL     1     -41.995  54.994 -49.939  1.00  0.00     0.195 C 
HETATM   31  C   UNL     1     -42.014  54.234 -51.273  1.00  0.00     0.262 C 
ENDBRANCH  24  25
BRANCH  24  32
HETATM   32  C   UNL     1     -40.440  52.703 -53.446  1.00  0.00    -0.001 A 
HETATM   33  C   UNL     1     -39.837  52.222 -52.287  1.00  0.00     0.126 A 
HETATM   34  N   UNL     1     -39.442  50.946 -52.120  1.00  0.00    -0.272 NA
HETATM   35  C   UNL     1     -39.634  50.091 -53.147  1.00  0.00     0.116 A 
HETATM   36  C   UNL     1     -40.213  50.467 -54.345  1.00  0.00     0.020 A 
HETATM   37  C   UNL     1     -40.619  51.790 -54.497  1.00  0.00     0.012 A 
ENDBRANCH  24  32
ENDBRANCH  21  24
ENDBRANCH   1  20
TORSDOF 7
ENDMDL
MODEL 3
REMARK VINA RESULT:      -7.9      2.310      8.267
REMARK  7 active torsions:
REMARK  status: ('A' for Active; 'I' for Inactive)
REMARK    1  A    between atoms: C_6  and  C_7 
REMARK    2  A    between atoms: N_13  and  C_15 
REMARK    3  A    between atoms: C_15  and  C_16 
REMARK    4  A    between atoms: C_16  and  N_17 
REMARK       I    between atoms: N_17  and  C_18 
REMARK    5  A    between atoms: C_18  and  C_19 
REMARK    6  A    between atoms: C_19  and  N_20 
REMARK    7  A    between atoms: C_19  and  C_27 
ROOT
HETATM    1  C   UNL     1     -43.315  54.930 -54.833  1.00  0.00     0.150 C 
ENDROOT
BRANCH   1   2
HETATM    2  C   UNL     1     -42.904  54.906 -56.323  1.00  0.00     0.255 C 
BRANCH   2   3
HETATM    3  N   UNL     1     -42.293  56.212 -56.803  1.00  0.00    -0.063 N 
HETATM    4  C   UNL     1     -42.843  57.493 -56.167  1.00  0.00     0.272 C 
HETATM    5  C   UNL     1     -44.317  57.820 -56.529  1.00  0.00     0.188 C 
HETATM    6  O   UNL     1     -44.411  58.165 -57.923  1.00  0.00    -0.339 OA
HETATM    7  C   UNL     1     -44.654  57.069 -58.701  1.00  0.00     0.077 A 
HETATM    8  C   UNL     1     -43.644  56.134 -58.947  1.00  0.00     0.001 A 
HETATM    9  C   UNL     1     -45.910  56.948 -59.289  1.00  0.00     0.037 A 
HETATM   10  C   UNL     1     -43.927  55.041 -59.778  1.00  0.00     0.012 A 
HETATM   11  C   UNL     1     -42.289  56.306 -58.328  1.00  0.00     0.276 C 
HETATM   12  C   UNL     1     -45.193  54.900 -60.350  1.00  0.00     0.001 A 
HETATM   13  C   UNL     1     -46.182  55.853 -60.108  1.00  0.00     0.003 A 
HETATM   14  H   UNL     1     -41.293  56.190 -56.559  1.00  0.00     0.280 HD
BRANCH   5  15
HETATM   15  C   UNL     1     -44.800  58.975 -55.679  1.00  0.00    -0.020 A 
HETATM   16  C   UNL     1     -45.189  60.208 -56.176  1.00  0.00     0.059 A 
HETATM   17  S   UNL     1     -45.709  61.287 -54.956  1.00  0.00    -0.113 SA
HETATM   18  C   UNL     1     -45.399  60.138 -53.732  1.00  0.00     0.050 A 
HETATM   19  C   UNL     1     -44.921  58.953 -54.247  1.00  0.00     0.017 A 
ENDBRANCH   5  15
ENDBRANCH   2   3
ENDBRANCH   1   2
BRANCH   1  20
HETATM   20  N   UNL     1     -42.418  54.185 -53.944  1.00  0.00    -0.357 N 
HETATM   21  C   UNL     1     -41.117  54.604 -53.711  1.00  0.00     0.253 C 
HETATM   22  O   UNL     1     -40.627  55.523 -54.363  1.00  0.00    -0.271 OA
HETATM   23  H   UNL     1     -42.868  53.599 -53.242  1.00  0.00     0.162 HD
BRANCH  21  24
HETATM   24  C   UNL     1     -40.306  53.809 -52.629  1.00  0.00     0.314 C 
BRANCH  24  25
HETATM   25  N   UNL     1     -40.793  53.994 -51.175  1.00  0.00    -0.050 N 
HETATM   26  H   UNL     1     -41.404  53.191 -50.979  1.00  0.00     0.281 HD
HETATM   27  C   UNL     1     -39.655  53.939 -50.156  1.00  0.00     0.262 C 
HETATM   28  C   UNL     1     -40.226  54.022 -48.737  1.00  0.00     0.195 C 
HETATM   29  O   UNL     1     -40.996  55.216 -48.574  1.00  0.00    -0.388 OA
HETATM   30  C   UNL     1     -42.119  55.252 -49.461  1.00  0.00     0.195 C 
HETATM   31  C   UNL     1     -41.658  55.235 -50.925  1.00  0.00     0.262 C 
ENDBRANCH  24  25
BRANCH  24  32
HETATM   32  C   UNL     1     -40.124  52.352 -52.981  1.00  0.00    -0.001 A 
HETATM   33  C   UNL     1     -39.749  51.404 -52.031  1.00  0.00     0.126 A 
HETATM   34  N   UNL     1     -39.559  50.101 -52.307  1.00  0.00    -0.272 NA
HETATM   35  C   UNL     1     -39.731  49.699 -53.585  1.00  0.00     0.116 A 
HETATM   36  C   UNL     1     -40.091  50.558 -54.606  1.00  0.00     0.020 A 
HETATM   37  C   UNL     1     -40.288  51.903 -54.300  1.00  0.00     0.012 A 
ENDBRANCH  24  32
ENDBRANCH  21  24
ENDBRANCH   1  20
TORSDOF 7
ENDMDL
MODEL 4
REMARK VINA RESULT:      -7.7      3.564      7.018
REMARK  7 active torsions:
REMARK  status: ('A' for Active; 'I' for Inactive)
REMARK    1  A    between atoms: C_6  and  C_7 
REMARK    2  A    between atoms: N_13  and  C_15 
REMARK    3  A    between atoms: C_15  and  C_16 
REMARK    4  A    between atoms: C_16  and  N_17 
REMARK       I    between atoms: N_17  and  C_18 
REMARK    5  A    between atoms: C_18  and  C_19 
REMARK    6  A    between atoms: C_19  and  N_20 
REMARK    7  A    between atoms: C_19  and  C_27 
ROOT
HETATM    1  C   UNL     1     -44.285  56.909 -51.090  1.00  0.00     0.150 C 
ENDROOT
BRANCH   1   2
HETATM    2  C   UNL     1     -43.678  56.331 -52.389  1.00  0.00     0.255 C 
BRANCH   2   3
HETATM    3  N   UNL     1     -42.551  57.177 -52.958  1.00  0.00    -0.063 N 
HETATM    4  C   UNL     1     -42.593  57.437 -54.468  1.00  0.00     0.272 C 
HETATM    5  C   UNL     1     -42.365  56.181 -55.353  1.00  0.00     0.188 C 
HETATM    6  O   UNL     1     -41.008  55.724 -55.209  1.00  0.00    -0.339 OA
HETATM    7  C   UNL     1     -40.883  54.813 -54.200  1.00  0.00     0.077 A 
HETATM    8  C   UNL     1     -40.943  55.219 -52.864  1.00  0.00     0.001 A 
HETATM    9  C   UNL     1     -40.632  53.487 -54.542  1.00  0.00     0.037 A 
HETATM   10  C   UNL     1     -40.777  54.255 -51.860  1.00  0.00     0.012 A 
HETATM   11  C   UNL     1     -41.180  56.660 -52.523  1.00  0.00     0.276 C 
HETATM   12  C   UNL     1     -40.551  52.918 -52.197  1.00  0.00     0.001 A 
HETATM   13  C   UNL     1     -40.477  52.536 -53.536  1.00  0.00     0.003 A 
HETATM   14  H   UNL     1     -42.611  58.105 -52.518  1.00  0.00     0.280 HD
BRANCH   5  15
HETATM   15  C   UNL     1     -42.642  56.527 -56.800  1.00  0.00    -0.020 A 
HETATM   16  C   UNL     1     -42.458  57.781 -57.357  1.00  0.00     0.059 A 
HETATM   17  S   UNL     1     -42.835  57.834 -59.024  1.00  0.00    -0.113 SA
HETATM   18  C   UNL     1     -43.281  56.186 -59.030  1.00  0.00     0.050 A 
HETATM   19  C   UNL     1     -43.132  55.607 -57.790  1.00  0.00     0.017 A 
ENDBRANCH   5  15
ENDBRANCH   2   3
ENDBRANCH   1   2
BRANCH   1  20
HETATM   20  N   UNL     1     -44.102  58.355 -50.926  1.00  0.00    -0.357 N 
HETATM   21  C   UNL     1     -45.148  59.179 -50.541  1.00  0.00     0.253 C 
HETATM   22  O   UNL     1     -46.297  58.747 -50.479  1.00  0.00    -0.271 OA
HETATM   23  H   UNL     1     -43.150  58.668 -50.739  1.00  0.00     0.162 HD
BRANCH  21  24
HETATM   24  C   UNL     1     -44.793  60.679 -50.256  1.00  0.00     0.314 C 
BRANCH  24  25
HETATM   25  N   UNL     1     -44.743  61.591 -51.502  1.00  0.00    -0.050 N 
HETATM   26  H   UNL     1     -45.166  62.483 -51.215  1.00  0.00     0.281 HD
HETATM   27  C   UNL     1     -43.316  61.906 -51.950  1.00  0.00     0.262 C 
HETATM   28  C   UNL     1     -43.347  62.896 -53.119  1.00  0.00     0.195 C 
HETATM   29  O   UNL     1     -44.115  62.369 -54.204  1.00  0.00    -0.388 OA
HETATM   30  C   UNL     1     -45.478  62.143 -53.833  1.00  0.00     0.195 C 
HETATM   31  C   UNL     1     -45.572  61.112 -52.700  1.00  0.00     0.262 C 
ENDBRANCH  24  25
BRANCH  24  32
HETATM   32  C   UNL     1     -45.623  61.283 -49.150  1.00  0.00    -0.001 A 
HETATM   33  C   UNL     1     -46.489  62.352 -49.375  1.00  0.00     0.126 A 
HETATM   34  N   UNL     1     -47.232  62.930 -48.413  1.00  0.00    -0.272 NA
HETATM   35  C   UNL     1     -47.117  62.449 -47.157  1.00  0.00     0.116 A 
HETATM   36  C   UNL     1     -46.280  61.401 -46.823  1.00  0.00     0.020 A 
HETATM   37  C   UNL     1     -45.522  60.812 -47.832  1.00  0.00     0.012 A 
ENDBRANCH  24  32
ENDBRANCH  21  24
ENDBRANCH   1  20
TORSDOF 7
ENDMDL
MODEL 5
REMARK VINA RESULT:      -7.6      2.418      7.390
REMARK  7 active torsions:
REMARK  status: ('A' for Active; 'I' for Inactive)
REMARK    1  A    between atoms: C_6  and  C_7 
REMARK    2  A    between atoms: N_13  and  C_15 
REMARK    3  A    between atoms: C_15  and  C_16 
REMARK    4  A    between atoms: C_16  and  N_17 
REMARK       I    between atoms: N_17  and  C_18 
REMARK    5  A    between atoms: C_18  and  C_19 
REMARK    6  A    between atoms: C_19  and  N_20 
REMARK    7  A    between atoms: C_19  and  C_27 
ROOT
HETATM    1  C   UNL     1     -42.538  54.792 -56.144  1.00  0.00     0.150 C 
ENDROOT
BRANCH   1   2
HETATM    2  C   UNL     1     -43.209  56.179 -56.021  1.00  0.00     0.255 C 
BRANCH   2   3
HETATM    3  N   UNL     1     -42.219  57.331 -56.002  1.00  0.00    -0.063 N 
HETATM    4  C   UNL     1     -42.082  58.087 -54.676  1.00  0.00     0.272 C 
HETATM    5  C   UNL     1     -43.338  58.898 -54.254  1.00  0.00     0.188 C 
HETATM    6  O   UNL     1     -43.531  60.000 -55.159  1.00  0.00    -0.339 OA
HETATM    7  C   UNL     1     -44.330  59.657 -56.213  1.00  0.00     0.077 A 
HETATM    8  C   UNL     1     -43.845  58.836 -57.235  1.00  0.00     0.001 A 
HETATM    9  C   UNL     1     -45.611  60.200 -56.268  1.00  0.00     0.037 A 
HETATM   10  C   UNL     1     -44.688  58.537 -58.314  1.00  0.00     0.012 A 
HETATM   11  C   UNL     1     -42.449  58.293 -57.168  1.00  0.00     0.276 C 
HETATM   12  C   UNL     1     -45.983  59.057 -58.362  1.00  0.00     0.001 A 
HETATM   13  C   UNL     1     -46.443  59.890 -57.341  1.00  0.00     0.003 A 
HETATM   14  H   UNL     1     -41.288  56.938 -56.193  1.00  0.00     0.280 HD
BRANCH   5  15
HETATM   15  C   UNL     1     -43.153  59.415 -52.844  1.00  0.00    -0.020 A 
HETATM   16  C   UNL     1     -41.933  59.759 -52.287  1.00  0.00     0.059 A 
HETATM   17  S   UNL     1     -42.070  60.335 -50.683  1.00  0.00    -0.113 SA
HETATM   18  C   UNL     1     -43.763  60.111 -50.689  1.00  0.00     0.050 A 
HETATM   19  C   UNL     1     -44.213  59.619 -51.895  1.00  0.00     0.017 A 
ENDBRANCH   5  15
ENDBRANCH   2   3
ENDBRANCH   1   2
BRANCH   1  20
HETATM   20  N   UNL     1     -42.057  54.236 -54.875  1.00  0.00    -0.357 N 
HETATM   21  C   UNL     1     -40.783  54.510 -54.401  1.00  0.00     0.253 C 
HETATM   22  O   UNL     1     -39.964  55.096 -55.105  1.00  0.00    -0.271 OA
HETATM   23  H   UNL     1     -42.775  53.973 -54.201  1.00  0.00     0.162 HD
BRANCH  21  24
HETATM   24  C   UNL     1     -40.440  53.980 -52.965  1.00  0.00     0.314 C 
BRANCH  24  25
HETATM   25  N   UNL     1     -41.408  54.430 -51.850  1.00  0.00    -0.050 N 
HETATM   26  H   UNL     1     -41.013  54.068 -50.972  1.00  0.00     0.281 HD
HETATM   27  C   UNL     1     -41.483  55.949 -51.705  1.00  0.00     0.262 C 
HETATM   28  C   UNL     1     -42.376  56.313 -50.514  1.00  0.00     0.195 C 
HETATM   29  O   UNL     1     -43.682  55.754 -50.677  1.00  0.00    -0.388 OA
HETATM   30  C   UNL     1     -43.648  54.324 -50.732  1.00  0.00     0.195 C 
HETATM   31  C   UNL     1     -42.823  53.844 -51.933  1.00  0.00     0.262 C 
ENDBRANCH  24  25
BRANCH  24  32
HETATM   32  C   UNL     1     -40.191  52.491 -52.929  1.00  0.00    -0.001 A 
HETATM   33  C   UNL     1     -39.767  51.841 -51.772  1.00  0.00     0.126 A 
HETATM   34  N   UNL     1     -39.518  50.520 -51.703  1.00  0.00    -0.272 NA
HETATM   35  C   UNL     1     -39.678  49.792 -52.828  1.00  0.00     0.116 A 
HETATM   36  C   UNL     1     -40.083  50.339 -54.032  1.00  0.00     0.020 A 
HETATM   37  C   UNL     1     -40.341  51.707 -54.083  1.00  0.00     0.012 A 
ENDBRANCH  24  32
ENDBRANCH  21  24
ENDBRANCH   1  20
TORSDOF 7
ENDMDL
MODEL 6
REMARK VINA RESULT:      -7.5      3.379      5.366
REMARK  7 active torsions:
REMARK  status: ('A' for Active; 'I' for Inactive)
REMARK    1  A    between atoms: C_6  and  C_7 
REMARK    2  A    between atoms: N_13  and  C_15 
REMARK    3  A    between atoms: C_15  and  C_16 
REMARK    4  A    between atoms: C_16  and  N_17 
REMARK       I    between atoms: N_17  and  C_18 
REMARK    5  A    between atoms: C_18  and  C_19 
REMARK    6  A    between atoms: C_19  and  N_20 
REMARK    7  A    between atoms: C_19  and  C_27 
ROOT
HETATM    1  C   UNL     1     -42.787  55.638 -57.212  1.00  0.00     0.150 C 
ENDROOT
BRANCH   1   2
HETATM    2  C   UNL     1     -42.516  54.916 -55.873  1.00  0.00     0.255 C 
BRANCH   2   3
HETATM    3  N   UNL     1     -41.088  55.074 -55.378  1.00  0.00    -0.063 N 
HETATM    4  C   UNL     1     -40.387  53.796 -54.907  1.00  0.00     0.272 C 
HETATM    5  C   UNL     1     -40.975  53.167 -53.615  1.00  0.00     0.188 C 
HETATM    6  O   UNL     1     -40.717  54.029 -52.492  1.00  0.00    -0.339 OA
HETATM    7  C   UNL     1     -41.728  54.927 -52.299  1.00  0.00     0.077 A 
HETATM    8  C   UNL     1     -41.889  56.013 -53.163  1.00  0.00     0.001 A 
HETATM    9  C   UNL     1     -42.547  54.762 -51.185  1.00  0.00     0.037 A 
HETATM   10  C   UNL     1     -42.920  56.929 -52.908  1.00  0.00     0.012 A 
HETATM   11  C   UNL     1     -40.972  56.187 -54.336  1.00  0.00     0.276 C 
HETATM   12  C   UNL     1     -43.761  56.754 -51.807  1.00  0.00     0.001 A 
HETATM   13  C   UNL     1     -43.573  55.673 -50.945  1.00  0.00     0.003 A 
HETATM   14  H   UNL     1     -40.527  55.422 -56.167  1.00  0.00     0.280 HD
BRANCH   5  15
HETATM   15  C   UNL     1     -40.342  51.813 -53.380  1.00  0.00    -0.020 A 
HETATM   16  C   UNL     1     -39.861  51.371 -52.159  1.00  0.00     0.059 A 
HETATM   17  S   UNL     1     -39.232  49.782 -52.223  1.00  0.00    -0.113 SA
HETATM   18  C   UNL     1     -39.563  49.661 -53.894  1.00  0.00     0.050 A 
HETATM   19  C   UNL     1     -40.153  50.804 -54.386  1.00  0.00     0.017 A 
ENDBRANCH   5  15
ENDBRANCH   2   3
ENDBRANCH   1   2
BRANCH   1  20
HETATM   20  N   UNL     1     -42.238  56.996 -57.290  1.00  0.00    -0.357 N 
HETATM   21  C   UNL     1     -42.984  58.102 -56.910  1.00  0.00     0.253 C 
HETATM   22  O   UNL     1     -44.179  57.992 -56.645  1.00  0.00    -0.271 OA
HETATM   23  H   UNL     1     -41.222  57.071 -57.268  1.00  0.00     0.162 HD
BRANCH  21  24
HETATM   24  C   UNL     1     -42.238  59.481 -56.899  1.00  0.00     0.314 C 
BRANCH  24  25
HETATM   25  N   UNL     1     -42.425  60.340 -58.169  1.00  0.00    -0.050 N 
HETATM   26  H   UNL     1     -43.138  61.041 -57.932  1.00  0.00     0.281 HD
HETATM   27  C   UNL     1     -41.163  61.110 -58.556  1.00  0.00     0.262 C 
HETATM   28  C   UNL     1     -41.457  62.017 -59.756  1.00  0.00     0.195 C 
HETATM   29  O   UNL     1     -41.941  61.248 -60.860  1.00  0.00    -0.388 OA
HETATM   30  C   UNL     1     -43.169  60.581 -60.550  1.00  0.00     0.195 C 
HETATM   31  C   UNL     1     -42.976  59.594 -59.390  1.00  0.00     0.262 C 
ENDBRANCH  24  25
BRANCH  24  32
HETATM   32  C   UNL     1     -42.486  60.277 -55.640  1.00  0.00    -0.001 A 
HETATM   33  C   UNL     1     -41.867  59.962 -54.433  1.00  0.00     0.126 A 
HETATM   34  N   UNL     1     -42.075  60.633 -53.285  1.00  0.00    -0.272 NA
HETATM   35  C   UNL     1     -42.947  61.664 -53.311  1.00  0.00     0.116 A 
HETATM   36  C   UNL     1     -43.624  62.053 -54.452  1.00  0.00     0.020 A 
HETATM   37  C   UNL     1     -43.392  61.348 -55.632  1.00  0.00     0.012 A 
ENDBRANCH  24  32
ENDBRANCH  21  24
ENDBRANCH   1  20
TORSDOF 7
ENDMDL
MODEL 7
REMARK VINA RESULT:      -7.5      2.688      8.592
REMARK  7 active torsions:
REMARK  status: ('A' for Active; 'I' for Inactive)
REMARK    1  A    between atoms: C_6  and  C_7 
REMARK    2  A    between atoms: N_13  and  C_15 
REMARK    3  A    between atoms: C_15  and  C_16 
REMARK    4  A    between atoms: C_16  and  N_17 
REMARK       I    between atoms: N_17  and  C_18 
REMARK    5  A    between atoms: C_18  and  C_19 
REMARK    6  A    between atoms: C_19  and  N_20 
REMARK    7  A    between atoms: C_19  and  C_27 
ROOT
HETATM    1  C   UNL     1     -42.649  55.179 -56.658  1.00  0.00     0.150 C 
ENDROOT
BRANCH   1   2
HETATM    2  C   UNL     1     -43.140  56.373 -57.509  1.00  0.00     0.255 C 
BRANCH   2   3
HETATM    3  N   UNL     1     -42.389  56.531 -58.819  1.00  0.00    -0.063 N 
HETATM    4  C   UNL     1     -41.745  57.899 -59.073  1.00  0.00     0.272 C 
HETATM    5  C   UNL     1     -42.750  59.065 -59.278  1.00  0.00     0.188 C 
HETATM    6  O   UNL     1     -43.461  58.883 -60.517  1.00  0.00    -0.339 OA
HETATM    7  C   UNL     1     -44.609  58.165 -60.341  1.00  0.00     0.077 A 
HETATM    8  C   UNL     1     -44.557  56.787 -60.108  1.00  0.00     0.001 A 
HETATM    9  C   UNL     1     -45.825  58.832 -60.466  1.00  0.00     0.037 A 
HETATM   10  C   UNL     1     -45.761  56.083 -59.967  1.00  0.00     0.012 A 
HETATM   11  C   UNL     1     -43.235  56.087 -60.013  1.00  0.00     0.276 C 
HETATM   12  C   UNL     1     -46.984  56.752 -60.066  1.00  0.00     0.001 A 
HETATM   13  C   UNL     1     -47.015  58.123 -60.317  1.00  0.00     0.003 A 
HETATM   14  H   UNL     1     -41.610  55.859 -58.811  1.00  0.00     0.280 HD
BRANCH   5  15
HETATM   15  C   UNL     1     -42.000  60.379 -59.303  1.00  0.00    -0.020 A 
HETATM   16  C   UNL     1     -41.725  61.105 -60.450  1.00  0.00     0.059 A 
HETATM   17  S   UNL     1     -40.884  62.560 -60.134  1.00  0.00    -0.113 SA
HETATM   18  C   UNL     1     -40.844  62.236 -58.458  1.00  0.00     0.050 A 
HETATM   19  C   UNL     1     -41.471  61.050 -58.148  1.00  0.00     0.017 A 
ENDBRANCH   5  15
ENDBRANCH   2   3
ENDBRANCH   1   2
BRANCH   1  20
HETATM   20  N   UNL     1     -41.949  55.559 -55.427  1.00  0.00    -0.357 N 
HETATM   21  C   UNL     1     -42.263  54.981 -54.206  1.00  0.00     0.253 C 
HETATM   22  O   UNL     1     -43.244  54.248 -54.093  1.00  0.00    -0.271 OA
HETATM   23  H   UNL     1     -41.017  55.956 -55.545  1.00  0.00     0.162 HD
BRANCH  21  24
HETATM   24  C   UNL     1     -41.347  55.361 -52.992  1.00  0.00     0.314 C 
BRANCH  24  25
HETATM   25  N   UNL     1     -41.902  56.468 -52.070  1.00  0.00    -0.050 N 
HETATM   26  H   UNL     1     -41.943  56.056 -51.129  1.00  0.00     0.281 HD
HETATM   27  C   UNL     1     -40.980  57.683 -51.979  1.00  0.00     0.262 C 
HETATM   28  C   UNL     1     -41.543  58.687 -50.968  1.00  0.00     0.195 C 
HETATM   29  O   UNL     1     -42.867  59.082 -51.337  1.00  0.00    -0.388 OA
HETATM   30  C   UNL     1     -43.772  57.973 -51.349  1.00  0.00     0.195 C 
HETATM   31  C   UNL     1     -43.334  56.923 -52.379  1.00  0.00     0.262 C 
ENDBRANCH  24  25
BRANCH  24  32
HETATM   32  C   UNL     1     -40.877  54.159 -52.208  1.00  0.00    -0.001 A 
HETATM   33  C   UNL     1     -40.293  53.056 -52.827  1.00  0.00     0.126 A 
HETATM   34  N   UNL     1     -39.878  51.958 -52.167  1.00  0.00    -0.272 NA
HETATM   35  C   UNL     1     -40.054  51.927 -50.829  1.00  0.00     0.116 A 
HETATM   36  C   UNL     1     -40.633  52.962 -50.118  1.00  0.00     0.020 A 
HETATM   37  C   UNL     1     -41.052  54.092 -50.818  1.00  0.00     0.012 A 
ENDBRANCH  24  32
ENDBRANCH  21  24
ENDBRANCH   1  20
TORSDOF 7
ENDMDL
MODEL 8
REMARK VINA RESULT:      -7.5      2.771      8.315
REMARK  7 active torsions:
REMARK  status: ('A' for Active; 'I' for Inactive)
REMARK    1  A    between atoms: C_6  and  C_7 
REMARK    2  A    between atoms: N_13  and  C_15 
REMARK    3  A    between atoms: C_15  and  C_16 
REMARK    4  A    between atoms: C_16  and  N_17 
REMARK       I    between atoms: N_17  and  C_18 
REMARK    5  A    between atoms: C_18  and  C_19 
REMARK    6  A    between atoms: C_19  and  N_20 
REMARK    7  A    between atoms: C_19  and  C_27 
ROOT
HETATM    1  C   UNL     1     -42.876  55.123 -56.568  1.00  0.00     0.150 C 
ENDROOT
BRANCH   1   2
HETATM    2  C   UNL     1     -43.161  56.427 -57.348  1.00  0.00     0.255 C 
BRANCH   2   3
HETATM    3  N   UNL     1     -42.382  56.535 -58.648  1.00  0.00    -0.063 N 
HETATM    4  C   UNL     1     -41.728  57.891 -58.937  1.00  0.00     0.272 C 
HETATM    5  C   UNL     1     -42.724  59.052 -59.205  1.00  0.00     0.188 C 
HETATM    6  O   UNL     1     -43.410  58.827 -60.451  1.00  0.00    -0.339 OA
HETATM    7  C   UNL     1     -44.564  58.119 -60.274  1.00  0.00     0.077 A 
HETATM    8  C   UNL     1     -44.523  56.751 -59.990  1.00  0.00     0.001 A 
HETATM    9  C   UNL     1     -45.774  58.785 -60.448  1.00  0.00     0.037 A 
HETATM   10  C   UNL     1     -45.732  56.057 -59.849  1.00  0.00     0.012 A 
HETATM   11  C   UNL     1     -43.205  56.051 -59.842  1.00  0.00     0.276 C 
HETATM   12  C   UNL     1     -46.950  56.725 -59.996  1.00  0.00     0.001 A 
HETATM   13  C   UNL     1     -46.970  58.087 -60.297  1.00  0.00     0.003 A 
HETATM   14  H   UNL     1     -41.607  55.860 -58.599  1.00  0.00     0.280 HD
BRANCH   5  15
HETATM   15  C   UNL     1     -41.968  60.361 -59.262  1.00  0.00    -0.020 A 
HETATM   16  C   UNL     1     -41.761  61.099 -60.416  1.00  0.00     0.059 A 
HETATM   17  S   UNL     1     -40.892  62.546 -60.136  1.00  0.00    -0.113 SA
HETATM   18  C   UNL     1     -40.750  62.202 -58.470  1.00  0.00     0.050 A 
HETATM   19  C   UNL     1     -41.363  61.016 -58.135  1.00  0.00     0.017 A 
ENDBRANCH   5  15
ENDBRANCH   2   3
ENDBRANCH   1   2
BRANCH   1  20
HETATM   20  N   UNL     1     -42.878  55.278 -55.109  1.00  0.00    -0.357 N 
HETATM   21  C   UNL     1     -41.702  55.469 -54.400  1.00  0.00     0.253 C 
HETATM   22  O   UNL     1     -40.610  55.357 -54.952  1.00  0.00    -0.271 OA
HETATM   23  H   UNL     1     -43.748  55.607 -54.694  1.00  0.00     0.162 HD
BRANCH  21  24
HETATM   24  C   UNL     1     -41.847  55.769 -52.867  1.00  0.00     0.314 C 
BRANCH  24  25
HETATM   25  N   UNL     1     -40.905  54.962 -51.947  1.00  0.00    -0.050 N 
HETATM   26  H   UNL     1     -39.952  55.270 -52.181  1.00  0.00     0.281 HD
HETATM   27  C   UNL     1     -41.115  55.270 -50.465  1.00  0.00     0.262 C 
HETATM   28  C   UNL     1     -40.077  54.516 -49.627  1.00  0.00     0.195 C 
HETATM   29  O   UNL     1     -40.162  53.110 -49.869  1.00  0.00    -0.388 OA
HETATM   30  C   UNL     1     -39.886  52.786 -51.236  1.00  0.00     0.195 C 
HETATM   31  C   UNL     1     -40.910  53.445 -52.170  1.00  0.00     0.262 C 
ENDBRANCH  24  25
BRANCH  24  32
HETATM   32  C   UNL     1     -41.817  57.244 -52.549  1.00  0.00    -0.001 A 
HETATM   33  C   UNL     1     -40.737  58.053 -52.895  1.00  0.00     0.126 A 
HETATM   34  N   UNL     1     -40.663  59.367 -52.614  1.00  0.00    -0.272 NA
HETATM   35  C   UNL     1     -41.695  59.924 -51.945  1.00  0.00     0.116 A 
HETATM   36  C   UNL     1     -42.810  59.210 -51.545  1.00  0.00     0.020 A 
HETATM   37  C   UNL     1     -42.870  57.852 -51.849  1.00  0.00     0.012 A 
ENDBRANCH  24  32
ENDBRANCH  21  24
ENDBRANCH   1  20
TORSDOF 7
ENDMDL
MODEL 9
REMARK VINA RESULT:      -7.4      3.438      5.270
REMARK  7 active torsions:
REMARK  status: ('A' for Active; 'I' for Inactive)
REMARK    1  A    between atoms: C_6  and  C_7 
REMARK    2  A    between atoms: N_13  and  C_15 
REMARK    3  A    between atoms: C_15  and  C_16 
REMARK    4  A    between atoms: C_16  and  N_17 
REMARK       I    between atoms: N_17  and  C_18 
REMARK    5  A    between atoms: C_18  and  C_19 
REMARK    6  A    between atoms: C_19  and  N_20 
REMARK    7  A    between atoms: C_19  and  C_27 
ROOT
HETATM    1  C   UNL     1     -42.562  57.596 -56.163  1.00  0.00     0.150 C 
ENDROOT
BRANCH   1   2
HETATM    2  C   UNL     1     -42.272  56.268 -55.427  1.00  0.00     0.255 C 
BRANCH   2   3
HETATM    3  N   UNL     1     -40.942  56.261 -54.694  1.00  0.00    -0.063 N 
HETATM    4  C   UNL     1     -40.332  54.885 -54.407  1.00  0.00     0.272 C 
HETATM    5  C   UNL     1     -41.123  54.019 -53.389  1.00  0.00     0.188 C 
HETATM    6  O   UNL     1     -41.044  54.612 -52.080  1.00  0.00    -0.339 OA
HETATM    7  C   UNL     1     -42.068  55.487 -51.857  1.00  0.00     0.077 A 
HETATM    8  C   UNL     1     -42.083  56.739 -52.480  1.00  0.00     0.001 A 
HETATM    9  C   UNL     1     -43.056  55.122 -50.947  1.00  0.00     0.037 A 
HETATM   10  C   UNL     1     -43.136  57.619 -52.197  1.00  0.00     0.012 A 
HETATM   11  C   UNL     1     -40.988  57.121 -53.431  1.00  0.00     0.276 C 
HETATM   12  C   UNL     1     -44.144  57.247 -51.304  1.00  0.00     0.001 A 
HETATM   13  C   UNL     1     -44.103  56.002 -50.679  1.00  0.00     0.003 A 
HETATM   14  H   UNL     1     -40.259  56.745 -55.292  1.00  0.00     0.280 HD
BRANCH   5  15
HETATM   15  C   UNL     1     -40.543  52.622 -53.358  1.00  0.00    -0.020 A 
HETATM   16  C   UNL     1     -40.612  51.718 -54.405  1.00  0.00     0.059 A 
HETATM   17  S   UNL     1     -39.834  50.235 -54.060  1.00  0.00    -0.113 SA
HETATM   18  C   UNL     1     -39.413  50.758 -52.491  1.00  0.00     0.050 A 
HETATM   19  C   UNL     1     -39.846  52.042 -52.242  1.00  0.00     0.017 A 
ENDBRANCH   5  15
ENDBRANCH   2   3
ENDBRANCH   1   2
BRANCH   1  20
HETATM   20  N   UNL     1     -42.753  57.458 -57.610  1.00  0.00    -0.357 N 
HETATM   21  C   UNL     1     -43.247  58.502 -58.379  1.00  0.00     0.253 C 
HETATM   22  O   UNL     1     -43.688  59.518 -57.847  1.00  0.00    -0.271 OA
HETATM   23  H   UNL     1     -42.185  56.749 -58.072  1.00  0.00     0.162 HD
BRANCH  21  24
HETATM   24  C   UNL     1     -43.265  58.282 -59.931  1.00  0.00     0.314 C 
BRANCH  24  25
HETATM   25  N   UNL     1     -44.446  57.441 -60.463  1.00  0.00    -0.050 N 
HETATM   26  H   UNL     1     -44.647  57.801 -61.404  1.00  0.00     0.281 HD
HETATM   27  C   UNL     1     -44.096  55.962 -60.624  1.00  0.00     0.262 C 
HETATM   28  C   UNL     1     -45.276  55.215 -61.253  1.00  0.00     0.195 C 
HETATM   29  O   UNL     1     -46.453  55.374 -60.456  1.00  0.00    -0.388 OA
HETATM   30  C   UNL     1     -46.851  56.745 -60.358  1.00  0.00     0.195 C 
HETATM   31  C   UNL     1     -45.758  57.583 -59.681  1.00  0.00     0.262 C 
ENDBRANCH  24  25
BRANCH  24  32
HETATM   32  C   UNL     1     -43.092  59.564 -60.710  1.00  0.00    -0.001 A 
HETATM   33  C   UNL     1     -44.158  60.183 -61.360  1.00  0.00     0.126 A 
HETATM   34  N   UNL     1     -44.043  61.315 -62.079  1.00  0.00    -0.272 NA
HETATM   35  C   UNL     1     -42.816  61.870 -62.183  1.00  0.00     0.116 A 
HETATM   36  C   UNL     1     -41.690  61.332 -61.587  1.00  0.00     0.020 A 
HETATM   37  C   UNL     1     -41.830  60.162 -60.843  1.00  0.00     0.012 A 
ENDBRANCH  24  32
ENDBRANCH  21  24
ENDBRANCH   1  20
TORSDOF 7
ENDMDL
MODEL 10
REMARK VINA RESULT:      -7.4      3.113      7.955
REMARK  7 active torsions:
REMARK  status: ('A' for Active; 'I' for Inactive)
REMARK    1  A    between atoms: C_6  and  C_7 
REMARK    2  A    between atoms: N_13  and  C_15 
REMARK    3  A    between atoms: C_15  and  C_16 
REMARK    4  A    between atoms: C_16  and  N_17 
REMARK       I    between atoms: N_17  and  C_18 
REMARK    5  A    between atoms: C_18  and  C_19 
REMARK    6  A    between atoms: C_19  and  N_20 
REMARK    7  A    between atoms: C_19  and  C_27 
ROOT
HETATM    1  C   UNL     1     -42.856  54.531 -55.521  1.00  0.00     0.150 C 
ENDROOT
BRANCH   1   2
HETATM    2  C   UNL     1     -42.639  56.048 -55.719  1.00  0.00     0.255 C 
BRANCH   2   3
HETATM    3  N   UNL     1     -43.848  56.762 -56.299  1.00  0.00    -0.063 N 
HETATM    4  C   UNL     1     -43.593  57.645 -57.525  1.00  0.00     0.272 C 
HETATM    5  C   UNL     1     -42.730  58.907 -57.251  1.00  0.00     0.188 C 
HETATM    6  O   UNL     1     -43.463  59.827 -56.421  1.00  0.00    -0.339 OA
HETATM    7  C   UNL     1     -43.233  59.605 -55.093  1.00  0.00     0.077 A 
HETATM    8  C   UNL     1     -43.794  58.497 -54.451  1.00  0.00     0.001 A 
HETATM    9  C   UNL     1     -42.482  60.544 -54.391  1.00  0.00     0.037 A 
HETATM   10  C   UNL     1     -43.559  58.325 -53.079  1.00  0.00     0.012 A 
HETATM   11  C   UNL     1     -44.627  57.518 -55.222  1.00  0.00     0.276 C 
HETATM   12  C   UNL     1     -42.785  59.251 -52.375  1.00  0.00     0.001 A 
HETATM   13  C   UNL     1     -42.250  60.359 -53.030  1.00  0.00     0.003 A 
HETATM   14  H   UNL     1     -44.509  56.039 -56.613  1.00  0.00     0.280 HD
BRANCH   5  15
HETATM   15  C   UNL     1     -42.376  59.570 -58.565  1.00  0.00    -0.020 A 
HETATM   16  C   UNL     1     -42.479  58.962 -59.805  1.00  0.00     0.059 A 
HETATM   17  S   UNL     1     -42.027  59.991 -61.093  1.00  0.00    -0.113 SA
HETATM   18  C   UNL     1     -41.656  61.264 -60.018  1.00  0.00     0.050 A 
HETATM   19  C   UNL     1     -41.885  60.913 -58.706  1.00  0.00     0.017 A 
ENDBRANCH   5  15
ENDBRANCH   2   3
ENDBRANCH   1   2
BRANCH   1  20
HETATM   20  N   UNL     1     -42.173  53.968 -54.351  1.00  0.00    -0.357 N 
HETATM   21  C   UNL     1     -40.798  54.066 -54.198  1.00  0.00     0.253 C 
HETATM   22  O   UNL     1     -40.094  54.487 -55.113  1.00  0.00    -0.271 OA
HETATM   23  H   UNL     1     -42.743  53.849 -53.514  1.00  0.00     0.162 HD
BRANCH  21  24
HETATM   24  C   UNL     1     -40.205  53.558 -52.838  1.00  0.00     0.314 C 
BRANCH  24  25
HETATM   25  N   UNL     1     -40.930  54.069 -51.574  1.00  0.00    -0.050 N 
HETATM   26  H   UNL     1     -41.686  53.397 -51.392  1.00  0.00     0.281 HD
HETATM   27  C   UNL     1     -40.034  54.069 -50.335  1.00  0.00     0.262 C 
HETATM   28  C   UNL     1     -40.849  54.484 -49.106  1.00  0.00     0.195 C 
HETATM   29  O   UNL     1     -41.438  55.771 -49.306  1.00  0.00    -0.388 OA
HETATM   30  C   UNL     1     -42.347  55.777 -50.411  1.00  0.00     0.195 C 
HETATM   31  C   UNL     1     -41.620  55.431 -51.717  1.00  0.00     0.262 C 
ENDBRANCH  24  25
BRANCH  24  32
HETATM   32  C   UNL     1     -40.002  52.063 -52.805  1.00  0.00    -0.001 A 
HETATM   33  C   UNL     1     -39.678  51.387 -51.630  1.00  0.00     0.126 A 
HETATM   34  N   UNL     1     -39.471  50.059 -51.561  1.00  0.00    -0.272 NA
HETATM   35  C   UNL     1     -39.572  49.349 -52.705  1.00  0.00     0.116 A 
HETATM   36  C   UNL     1     -39.876  49.921 -53.926  1.00  0.00     0.020 A 
HETATM   37  C   UNL     1     -40.092  51.296 -53.976  1.00  0.00     0.012 A 
ENDBRANCH  24  32
ENDBRANCH  21  24
ENDBRANCH   1  20
TORSDOF 7
ENDMDL
