MODEL 1
REMARK VINA RESULT:      -7.7      0.000      0.000
REMARK  7 active torsions:
REMARK  status: ('A' for Active; 'I' for Inactive)
REMARK    1  A    between atoms: N_3  and  C_4 
REMARK    2  A    between atoms: C_12  and  C_13 
REMARK       I    between atoms: C_13  and  N_14 
REMARK    3  A    between atoms: N_14  and  C_15 
REMARK    4  A    between atoms: C_15  and  C_16 
REMARK    5  A    between atoms: C_16  and  O_17 
REMARK    6  A    between atoms: C_16  and  C_18 
REMARK    7  A    between atoms: C_21  and  O_22 
ROOT
HETATM    1  C   UNL     1     -41.588  56.826 -53.822  1.00  0.00     0.255 C 
HETATM    2  N   UNL     1     -42.300  57.341 -54.882  1.00  0.00    -0.350 N 
HETATM    3  O   UNL     1     -41.449  57.427 -52.762  1.00  0.00    -0.268 OA
HETATM    4  H   UNL     1     -42.608  56.684 -55.587  1.00  0.00     0.163 HD
ENDROOT
BRANCH   2   5
HETATM    5  C   UNL     1     -43.032  58.608 -54.813  1.00  0.00     0.114 C 
HETATM    6  C   UNL     1     -44.469  58.399 -54.319  1.00  0.00     0.035 C 
BRANCH   5   7
HETATM    7  C   UNL     1     -42.974  59.424 -56.140  1.00  0.00     0.173 C 
BRANCH   7   8
HETATM    8  O   UNL     1     -41.704  60.068 -56.286  1.00  0.00    -0.389 OA
HETATM    9  H   UNL     1     -41.885  61.020 -56.367  1.00  0.00     0.210 HD
ENDBRANCH   7   8
BRANCH   7  10
HETATM   10  C   UNL     1     -43.202  58.535 -57.351  1.00  0.00    -0.028 A 
HETATM   11  C   UNL     1     -42.130  58.192 -58.188  1.00  0.00     0.012 A 
HETATM   12  C   UNL     1     -42.334  57.384 -59.310  1.00  0.00     0.037 A 
HETATM   13  C   UNL     1     -43.603  56.885 -59.602  1.00  0.00     0.068 A 
HETATM   14  C   UNL     1     -44.682  57.240 -58.795  1.00  0.00     0.037 A 
HETATM   15  C   UNL     1     -44.482  58.060 -57.679  1.00  0.00     0.012 A 
BRANCH  13  16
HETATM   16  O   UNL     1     -43.679  56.086 -60.710  1.00  0.00    -0.356 OA
HETATM   17  C   UNL     1     -44.738  55.133 -60.699  1.00  0.00     0.210 C 
ENDBRANCH  13  16
ENDBRANCH   7  10
ENDBRANCH   5   7
ENDBRANCH   2   5
BRANCH   1  18
HETATM   18  C   UNL     1     -41.084  55.473 -53.996  1.00  0.00     0.075 C 
HETATM   19  C   UNL     1     -41.311  54.307 -53.271  1.00  0.00     0.051 C 
HETATM   20  C   UNL     1     -42.244  54.020 -52.147  1.00  0.00     0.071 C 
HETATM   21  N   UNL     1     -40.472  53.334 -53.824  1.00  0.00    -0.220 N 
HETATM   22  N   UNL     1     -39.887  53.785 -54.970  1.00  0.00    -0.177 NA
HETATM   23  C   UNL     1     -40.243  55.063 -55.050  1.00  0.00     0.158 C 
BRANCH  21  24
HETATM   24  C   UNL     1     -40.170  52.021 -53.325  1.00  0.00     0.150 A 
HETATM   25  N   UNL     1     -39.815  51.872 -52.020  1.00  0.00    -0.241 NA
HETATM   26  C   UNL     1     -39.500  50.627 -51.598  1.00  0.00     0.119 A 
HETATM   27  C   UNL     1     -39.521  49.507 -52.411  1.00  0.00     0.019 A 
HETATM   28  C   UNL     1     -39.887  49.671 -53.741  1.00  0.00     0.005 A 
HETATM   29  C   UNL     1     -40.215  50.942 -54.209  1.00  0.00     0.052 A 
ENDBRANCH  21  24
ENDBRANCH   1  18
TORSDOF 7
ENDMDL
MODEL 2
REMARK VINA RESULT:      -7.7      4.565      9.010
REMARK  7 active torsions:
REMARK  status: ('A' for Active; 'I' for Inactive)
REMARK    1  A    between atoms: N_3  and  C_4 
REMARK    2  A    between atoms: C_12  and  C_13 
REMARK       I    between atoms: C_13  and  N_14 
REMARK    3  A    between atoms: N_14  and  C_15 
REMARK    4  A    between atoms: C_15  and  C_16 
REMARK    5  A    between atoms: C_16  and  O_17 
REMARK    6  A    between atoms: C_16  and  C_18 
REMARK    7  A    between atoms: C_21  and  O_22 
ROOT
HETATM    1  C   UNL     1     -43.290  57.615 -52.120  1.00  0.00     0.255 C 
HETATM    2  N   UNL     1     -43.851  56.974 -53.202  1.00  0.00    -0.350 N 
HETATM    3  O   UNL     1     -42.097  57.538 -51.848  1.00  0.00    -0.268 OA
HETATM    4  H   UNL     1     -44.749  57.313 -53.519  1.00  0.00     0.163 HD
ENDROOT
BRANCH   2   5
HETATM    5  C   UNL     1     -43.063  56.217 -54.178  1.00  0.00     0.114 C 
HETATM    6  C   UNL     1     -43.161  56.836 -55.577  1.00  0.00     0.035 C 
BRANCH   5   7
HETATM    7  C   UNL     1     -43.389  54.692 -54.180  1.00  0.00     0.173 C 
BRANCH   7   8
HETATM    8  O   UNL     1     -43.672  54.234 -55.507  1.00  0.00    -0.389 OA
HETATM    9  H   UNL     1     -43.910  55.022 -56.026  1.00  0.00     0.210 HD
ENDBRANCH   7   8
BRANCH   7  10
HETATM   10  C   UNL     1     -42.234  53.874 -53.628  1.00  0.00    -0.028 A 
HETATM   11  C   UNL     1     -41.909  53.941 -52.265  1.00  0.00     0.012 A 
HETATM   12  C   UNL     1     -40.841  53.200 -51.752  1.00  0.00     0.037 A 
HETATM   13  C   UNL     1     -40.095  52.363 -52.583  1.00  0.00     0.068 A 
HETATM   14  C   UNL     1     -40.389  52.309 -53.944  1.00  0.00     0.037 A 
HETATM   15  C   UNL     1     -41.450  53.060 -54.461  1.00  0.00     0.012 A 
BRANCH  13  16
HETATM   16  O   UNL     1     -39.090  51.669 -51.967  1.00  0.00    -0.356 OA
HETATM   17  C   UNL     1     -39.491  50.461 -51.326  1.00  0.00     0.210 C 
ENDBRANCH  13  16
ENDBRANCH   7  10
ENDBRANCH   5   7
ENDBRANCH   2   5
BRANCH   1  18
HETATM   18  C   UNL     1     -44.185  58.477 -51.363  1.00  0.00     0.075 C 
HETATM   19  C   UNL     1     -44.060  59.803 -50.959  1.00  0.00     0.051 C 
HETATM   20  C   UNL     1     -43.026  60.828 -51.273  1.00  0.00     0.071 C 
HETATM   21  N   UNL     1     -45.174  60.074 -50.159  1.00  0.00    -0.220 N 
HETATM   22  N   UNL     1     -46.073  59.050 -50.207  1.00  0.00    -0.177 NA
HETATM   23  C   UNL     1     -45.464  58.100 -50.909  1.00  0.00     0.158 C 
BRANCH  21  24
HETATM   24  C   UNL     1     -45.428  61.223 -49.334  1.00  0.00     0.150 A 
HETATM   25  N   UNL     1     -46.196  62.235 -49.823  1.00  0.00    -0.241 NA
HETATM   26  C   UNL     1     -46.380  63.315 -49.033  1.00  0.00     0.119 A 
HETATM   27  C   UNL     1     -45.839  63.447 -47.766  1.00  0.00     0.019 A 
HETATM   28  C   UNL     1     -45.059  62.407 -47.276  1.00  0.00     0.005 A 
HETATM   29  C   UNL     1     -44.847  61.280 -48.067  1.00  0.00     0.052 A 
ENDBRANCH  21  24
ENDBRANCH   1  18
TORSDOF 7
ENDMDL
MODEL 3
REMARK VINA RESULT:      -7.6      3.050      7.635
REMARK  7 active torsions:
REMARK  status: ('A' for Active; 'I' for Inactive)
REMARK    1  A    between atoms: N_3  and  C_4 
REMARK    2  A    between atoms: C_12  and  C_13 
REMARK       I    between atoms: C_13  and  N_14 
REMARK    3  A    between atoms: N_14  and  C_15 
REMARK    4  A    between atoms: C_15  and  C_16 
REMARK    5  A    between atoms: C_16  and  O_17 
REMARK    6  A    between atoms: C_16  and  C_18 
REMARK    7  A    between atoms: C_21  and  O_22 
ROOT
HETATM    1  C   UNL     1     -43.916  57.107 -52.739  1.00  0.00     0.255 C 
HETATM    2  N   UNL     1     -42.708  56.566 -52.360  1.00  0.00    -0.350 N 
HETATM    3  O   UNL     1     -44.843  57.275 -51.954  1.00  0.00    -0.268 OA
HETATM    4  H   UNL     1     -41.922  56.728 -52.975  1.00  0.00     0.163 HD
ENDROOT
BRANCH   2   5
HETATM    5  C   UNL     1     -42.385  56.225 -50.972  1.00  0.00     0.114 C 
HETATM    6  C   UNL     1     -40.971  56.684 -50.598  1.00  0.00     0.035 C 
BRANCH   5   7
HETATM    7  C   UNL     1     -42.630  54.723 -50.636  1.00  0.00     0.173 C 
BRANCH   7   8
HETATM    8  O   UNL     1     -43.991  54.359 -50.896  1.00  0.00    -0.389 OA
HETATM    9  H   UNL     1     -44.314  54.972 -51.578  1.00  0.00     0.210 HD
ENDBRANCH   7   8
BRANCH   7  10
HETATM   10  C   UNL     1     -41.727  53.814 -51.454  1.00  0.00    -0.028 A 
HETATM   11  C   UNL     1     -40.681  53.115 -50.834  1.00  0.00     0.012 A 
HETATM   12  C   UNL     1     -39.840  52.286 -51.581  1.00  0.00     0.037 A 
HETATM   13  C   UNL     1     -40.042  52.122 -52.951  1.00  0.00     0.068 A 
HETATM   14  C   UNL     1     -41.060  52.832 -53.585  1.00  0.00     0.037 A 
HETATM   15  C   UNL     1     -41.895  53.672 -52.840  1.00  0.00     0.012 A 
BRANCH  13  16
HETATM   16  O   UNL     1     -39.173  51.268 -53.575  1.00  0.00    -0.356 OA
HETATM   17  C   UNL     1     -39.782  50.181 -54.266  1.00  0.00     0.210 C 
ENDBRANCH  13  16
ENDBRANCH   7  10
ENDBRANCH   5   7
ENDBRANCH   2   5
BRANCH   1  18
HETATM   18  C   UNL     1     -44.000  57.563 -54.118  1.00  0.00     0.075 C 
HETATM   19  C   UNL     1     -43.672  56.934 -55.315  1.00  0.00     0.051 C 
HETATM   20  C   UNL     1     -43.244  55.537 -55.602  1.00  0.00     0.071 C 
HETATM   21  N   UNL     1     -43.849  57.891 -56.320  1.00  0.00    -0.220 N 
HETATM   22  N   UNL     1     -44.452  59.011 -55.829  1.00  0.00    -0.177 NA
HETATM   23  C   UNL     1     -44.517  58.811 -54.517  1.00  0.00     0.158 C 
BRANCH  21  24
HETATM   24  C   UNL     1     -43.462  57.823 -57.702  1.00  0.00     0.150 A 
HETATM   25  N   UNL     1     -44.343  57.333 -58.615  1.00  0.00    -0.241 NA
HETATM   26  C   UNL     1     -43.928  57.248 -59.899  1.00  0.00     0.119 A 
HETATM   27  C   UNL     1     -42.670  57.632 -60.331  1.00  0.00     0.019 A 
HETATM   28  C   UNL     1     -41.780  58.133 -59.390  1.00  0.00     0.005 A 
HETATM   29  C   UNL     1     -42.175  58.230 -58.058  1.00  0.00     0.052 A 
ENDBRANCH  21  24
ENDBRANCH   1  18
TORSDOF 7
ENDMDL
MODEL 4
REMARK VINA RESULT:      -7.6      4.936      9.477
REMARK  7 active torsions:
REMARK  status: ('A' for Active; 'I' for Inactive)
REMARK    1  A    between atoms: N_3  and  C_4 
REMARK    2  A    between atoms: C_12  and  C_13 
REMARK       I    between atoms: C_13  and  N_14 
REMARK    3  A    between atoms: N_14  and  C_15 
REMARK    4  A    between atoms: C_15  and  C_16 
REMARK    5  A    between atoms: C_16  and  O_17 
REMARK    6  A    between atoms: C_16  and  C_18 
REMARK    7  A    between atoms: C_21  and  O_22 
ROOT
HETATM    1  C   UNL     1     -43.485  57.980 -51.661  1.00  0.00     0.255 C 
HETATM    2  N   UNL     1     -43.405  56.817 -50.928  1.00  0.00    -0.350 N 
HETATM    3  O   UNL     1     -43.035  58.079 -52.798  1.00  0.00    -0.268 OA
HETATM    4  H   UNL     1     -44.038  56.727 -50.144  1.00  0.00     0.163 HD
ENDROOT
BRANCH   2   5
HETATM    5  C   UNL     1     -42.861  55.567 -51.468  1.00  0.00     0.114 C 
HETATM    6  C   UNL     1     -43.559  54.344 -50.860  1.00  0.00     0.035 C 
BRANCH   5   7
HETATM    7  C   UNL     1     -41.308  55.478 -51.362  1.00  0.00     0.173 C 
BRANCH   7   8
HETATM    8  O   UNL     1     -40.885  55.565 -49.997  1.00  0.00    -0.389 OA
HETATM    9  H   UNL     1     -41.616  55.212 -49.459  1.00  0.00     0.210 HD
ENDBRANCH   7   8
BRANCH   7  10
HETATM   10  C   UNL     1     -40.784  54.176 -51.944  1.00  0.00    -0.028 A 
HETATM   11  C   UNL     1     -40.141  53.242 -51.119  1.00  0.00     0.012 A 
HETATM   12  C   UNL     1     -39.646  52.047 -51.649  1.00  0.00     0.037 A 
HETATM   13  C   UNL     1     -39.805  51.754 -53.003  1.00  0.00     0.068 A 
HETATM   14  C   UNL     1     -40.416  52.686 -53.840  1.00  0.00     0.037 A 
HETATM   15  C   UNL     1     -40.901  53.888 -53.313  1.00  0.00     0.012 A 
BRANCH  13  16
HETATM   16  O   UNL     1     -39.302  50.547 -53.405  1.00  0.00    -0.356 OA
HETATM   17  C   UNL     1     -39.985  49.939 -54.498  1.00  0.00     0.210 C 
ENDBRANCH  13  16
ENDBRANCH   7  10
ENDBRANCH   5   7
ENDBRANCH   2   5
BRANCH   1  18
HETATM   18  C   UNL     1     -44.224  59.068 -51.041  1.00  0.00     0.075 C 
HETATM   19  C   UNL     1     -43.805  60.299 -50.545  1.00  0.00     0.051 C 
HETATM   20  C   UNL     1     -42.478  60.973 -50.594  1.00  0.00     0.071 C 
HETATM   21  N   UNL     1     -44.930  60.887 -49.959  1.00  0.00    -0.220 N 
HETATM   22  N   UNL     1     -46.058  60.173 -50.237  1.00  0.00    -0.177 NA
HETATM   23  C   UNL     1     -45.621  59.085 -50.864  1.00  0.00     0.158 C 
BRANCH  21  24
HETATM   24  C   UNL     1     -45.001  62.062 -49.134  1.00  0.00     0.150 A 
HETATM   25  N   UNL     1     -45.070  63.285 -49.724  1.00  0.00    -0.241 NA
HETATM   26  C   UNL     1     -45.096  64.368 -48.915  1.00  0.00     0.119 A 
HETATM   27  C   UNL     1     -45.060  64.300 -47.533  1.00  0.00     0.019 A 
HETATM   28  C   UNL     1     -44.993  63.045 -46.941  1.00  0.00     0.005 A 
HETATM   29  C   UNL     1     -44.961  61.909 -47.747  1.00  0.00     0.052 A 
ENDBRANCH  21  24
ENDBRANCH   1  18
TORSDOF 7
ENDMDL
MODEL 5
REMARK VINA RESULT:      -7.5      2.872      8.187
REMARK  7 active torsions:
REMARK  status: ('A' for Active; 'I' for Inactive)
REMARK    1  A    between atoms: N_3  and  C_4 
REMARK    2  A    between atoms: C_12  and  C_13 
REMARK       I    between atoms: C_13  and  N_14 
REMARK    3  A    between atoms: N_14  and  C_15 
REMARK    4  A    between atoms: C_15  and  C_16 
REMARK    5  A    between atoms: C_16  and  O_17 
REMARK    6  A    between atoms: C_16  and  C_18 
REMARK    7  A    between atoms: C_21  and  O_22 
ROOT
HETATM    1  C   UNL     1     -43.550  55.937 -54.331  1.00  0.00     0.255 C 
HETATM    2  N   UNL     1     -42.887  56.396 -53.214  1.00  0.00    -0.350 N 
HETATM    3  O   UNL     1     -43.978  54.792 -54.425  1.00  0.00    -0.268 OA
HETATM    4  H   UNL     1     -42.829  57.399 -53.096  1.00  0.00     0.163 HD
ENDROOT
BRANCH   2   5
HETATM    5  C   UNL     1     -42.712  55.590 -52.002  1.00  0.00     0.114 C 
HETATM    6  C   UNL     1     -43.524  56.157 -50.831  1.00  0.00     0.035 C 
BRANCH   5   7
HETATM    7  C   UNL     1     -41.215  55.360 -51.630  1.00  0.00     0.173 C 
BRANCH   7   8
HETATM    8  O   UNL     1     -41.026  55.433 -50.212  1.00  0.00    -0.389 OA
HETATM    9  H   UNL     1     -40.849  56.367 -50.006  1.00  0.00     0.210 HD
ENDBRANCH   7   8
BRANCH   7  10
HETATM   10  C   UNL     1     -40.724  54.004 -52.109  1.00  0.00    -0.028 A 
HETATM   11  C   UNL     1     -40.207  53.076 -51.193  1.00  0.00     0.012 A 
HETATM   12  C   UNL     1     -39.743  51.832 -51.628  1.00  0.00     0.037 A 
HETATM   13  C   UNL     1     -39.809  51.483 -52.977  1.00  0.00     0.068 A 
HETATM   14  C   UNL     1     -40.294  52.406 -53.901  1.00  0.00     0.037 A 
HETATM   15  C   UNL     1     -40.747  53.657 -53.469  1.00  0.00     0.012 A 
BRANCH  13  16
HETATM   16  O   UNL     1     -39.349  50.231 -53.283  1.00  0.00    -0.356 OA
HETATM   17  C   UNL     1     -39.684  49.763 -54.586  1.00  0.00     0.210 C 
ENDBRANCH  13  16
ENDBRANCH   7  10
ENDBRANCH   5   7
ENDBRANCH   2   5
BRANCH   1  18
HETATM   18  C   UNL     1     -43.801  56.926 -55.367  1.00  0.00     0.075 C 
HETATM   19  C   UNL     1     -43.512  56.925 -56.728  1.00  0.00     0.051 C 
HETATM   20  C   UNL     1     -42.961  55.860 -57.611  1.00  0.00     0.071 C 
HETATM   21  N   UNL     1     -43.878  58.188 -57.206  1.00  0.00    -0.220 N 
HETATM   22  N   UNL     1     -44.554  58.895 -56.256  1.00  0.00    -0.177 NA
HETATM   23  C   UNL     1     -44.483  58.142 -55.163  1.00  0.00     0.158 C 
BRANCH  21  24
HETATM   24  C   UNL     1     -43.606  58.775 -58.489  1.00  0.00     0.150 A 
HETATM   25  N   UNL     1     -44.549  58.699 -59.467  1.00  0.00    -0.241 NA
HETATM   26  C   UNL     1     -44.241  59.228 -60.672  1.00  0.00     0.119 A 
HETATM   27  C   UNL     1     -43.034  59.840 -60.961  1.00  0.00     0.019 A 
HETATM   28  C   UNL     1     -42.080  59.915 -59.955  1.00  0.00     0.005 A 
HETATM   29  C   UNL     1     -42.364  59.375 -58.702  1.00  0.00     0.052 A 
ENDBRANCH  21  24
ENDBRANCH   1  18
TORSDOF 7
ENDMDL
MODEL 6
REMARK VINA RESULT:      -7.5      3.145      8.458
REMARK  7 active torsions:
REMARK  status: ('A' for Active; 'I' for Inactive)
REMARK    1  A    between atoms: N_3  and  C_4 
REMARK    2  A    between atoms: C_12  and  C_13 
REMARK       I    between atoms: C_13  and  N_14 
REMARK    3  A    between atoms: N_14  and  C_15 
REMARK    4  A    between atoms: C_15  and  C_16 
REMARK    5  A    between atoms: C_16  and  O_17 
REMARK    6  A    between atoms: C_16  and  C_18 
REMARK    7  A    between atoms: C_21  and  O_22 
ROOT
HETATM    1  C   UNL     1     -42.891  55.659 -56.572  1.00  0.00     0.255 C 
HETATM    2  N   UNL     1     -42.594  56.474 -55.503  1.00  0.00    -0.350 N 
HETATM    3  O   UNL     1     -43.206  54.481 -56.440  1.00  0.00    -0.268 OA
HETATM    4  H   UNL     1     -42.631  57.472 -55.665  1.00  0.00     0.163 HD
ENDROOT
BRANCH   2   5
HETATM    5  C   UNL     1     -42.714  56.040 -54.108  1.00  0.00     0.114 C 
HETATM    6  C   UNL     1     -43.746  56.880 -53.347  1.00  0.00     0.035 C 
BRANCH   5   7
HETATM    7  C   UNL     1     -41.344  55.968 -53.368  1.00  0.00     0.173 C 
BRANCH   7   8
HETATM    8  O   UNL     1     -41.444  56.534 -52.057  1.00  0.00    -0.389 OA
HETATM    9  H   UNL     1     -41.867  57.404 -52.164  1.00  0.00     0.210 HD
ENDBRANCH   7   8
BRANCH   7  10
HETATM   10  C   UNL     1     -40.856  54.535 -53.234  1.00  0.00    -0.028 A 
HETATM   11  C   UNL     1     -40.564  53.779 -54.379  1.00  0.00     0.012 A 
HETATM   12  C   UNL     1     -40.126  52.457 -54.265  1.00  0.00     0.037 A 
HETATM   13  C   UNL     1     -39.949  51.875 -53.009  1.00  0.00     0.068 A 
HETATM   14  C   UNL     1     -40.263  52.606 -51.864  1.00  0.00     0.037 A 
HETATM   15  C   UNL     1     -40.714  53.925 -51.978  1.00  0.00     0.012 A 
BRANCH  13  16
HETATM   16  O   UNL     1     -39.494  50.585 -53.019  1.00  0.00    -0.356 OA
HETATM   17  C   UNL     1     -39.553  49.930 -54.283  1.00  0.00     0.210 C 
ENDBRANCH  13  16
ENDBRANCH   7  10
ENDBRANCH   5   7
ENDBRANCH   2   5
BRANCH   1  18
HETATM   18  C   UNL     1     -42.904  56.304 -57.875  1.00  0.00     0.075 C 
HETATM   19  C   UNL     1     -42.724  57.634 -58.244  1.00  0.00     0.051 C 
HETATM   20  C   UNL     1     -42.333  58.828 -57.443  1.00  0.00     0.071 C 
HETATM   21  N   UNL     1     -42.959  57.693 -59.621  1.00  0.00    -0.220 N 
HETATM   22  N   UNL     1     -43.081  56.442 -60.151  1.00  0.00    -0.177 NA
HETATM   23  C   UNL     1     -43.067  55.628 -59.100  1.00  0.00     0.158 C 
BRANCH  21  24
HETATM   24  C   UNL     1     -43.100  58.852 -60.459  1.00  0.00     0.150 A 
HETATM   25  N   UNL     1     -44.347  59.295 -60.774  1.00  0.00    -0.241 NA
HETATM   26  C   UNL     1     -44.440  60.364 -61.596  1.00  0.00     0.119 A 
HETATM   27  C   UNL     1     -43.347  61.026 -62.128  1.00  0.00     0.019 A 
HETATM   28  C   UNL     1     -42.079  60.566 -61.798  1.00  0.00     0.005 A 
HETATM   29  C   UNL     1     -41.948  59.464 -60.955  1.00  0.00     0.052 A 
ENDBRANCH  21  24
ENDBRANCH   1  18
TORSDOF 7
ENDMDL
MODEL 7
REMARK VINA RESULT:      -7.5      3.160      8.807
REMARK  7 active torsions:
REMARK  status: ('A' for Active; 'I' for Inactive)
REMARK    1  A    between atoms: N_3  and  C_4 
REMARK    2  A    between atoms: C_12  and  C_13 
REMARK       I    between atoms: C_13  and  N_14 
REMARK    3  A    between atoms: N_14  and  C_15 
REMARK    4  A    between atoms: C_15  and  C_16 
REMARK    5  A    between atoms: C_16  and  O_17 
REMARK    6  A    between atoms: C_16  and  C_18 
REMARK    7  A    between atoms: C_21  and  O_22 
ROOT
HETATM    1  C   UNL     1     -43.055  56.484 -56.193  1.00  0.00     0.255 C 
HETATM    2  N   UNL     1     -43.386  55.293 -55.585  1.00  0.00    -0.350 N 
HETATM    3  O   UNL     1     -42.271  57.286 -55.697  1.00  0.00    -0.268 OA
HETATM    4  H   UNL     1     -43.793  54.578 -56.173  1.00  0.00     0.163 HD
ENDROOT
BRANCH   2   5
HETATM    5  C   UNL     1     -42.768  54.833 -54.338  1.00  0.00     0.114 C 
HETATM    6  C   UNL     1     -43.282  55.628 -53.132  1.00  0.00     0.035 C 
BRANCH   5   7
HETATM    7  C   UNL     1     -41.211  54.795 -54.403  1.00  0.00     0.173 C 
BRANCH   7   8
HETATM    8  O   UNL     1     -40.647  55.956 -53.784  1.00  0.00    -0.389 OA
HETATM    9  H   UNL     1     -41.264  56.220 -53.080  1.00  0.00     0.210 HD
ENDBRANCH   7   8
BRANCH   7  10
HETATM   10  C   UNL     1     -40.654  53.563 -53.708  1.00  0.00    -0.028 A 
HETATM   11  C   UNL     1     -40.399  53.586 -52.329  1.00  0.00     0.012 A 
HETATM   12  C   UNL     1     -39.877  52.461 -51.685  1.00  0.00     0.037 A 
HETATM   13  C   UNL     1     -39.623  51.290 -52.398  1.00  0.00     0.068 A 
HETATM   14  C   UNL     1     -39.846  51.263 -53.774  1.00  0.00     0.037 A 
HETATM   15  C   UNL     1     -40.357  52.392 -54.423  1.00  0.00     0.012 A 
BRANCH  13  16
HETATM   16  O   UNL     1     -39.136  50.246 -51.660  1.00  0.00    -0.356 OA
HETATM   17  C   UNL     1     -39.894  49.919 -50.498  1.00  0.00     0.210 C 
ENDBRANCH  13  16
ENDBRANCH   7  10
ENDBRANCH   5   7
ENDBRANCH   2   5
BRANCH   1  18
HETATM   18  C   UNL     1     -43.618  56.696 -57.517  1.00  0.00     0.075 C 
HETATM   19  C   UNL     1     -44.756  57.381 -57.932  1.00  0.00     0.051 C 
HETATM   20  C   UNL     1     -45.714  58.236 -57.178  1.00  0.00     0.071 C 
HETATM   21  N   UNL     1     -44.868  57.154 -59.307  1.00  0.00    -0.220 N 
HETATM   22  N   UNL     1     -43.758  56.529 -59.793  1.00  0.00    -0.177 NA
HETATM   23  C   UNL     1     -43.033  56.245 -58.716  1.00  0.00     0.158 C 
BRANCH  21  24
HETATM   24  C   UNL     1     -45.965  57.465 -60.182  1.00  0.00     0.150 A 
HETATM   25  N   UNL     1     -46.218  58.764 -60.495  1.00  0.00    -0.241 NA
HETATM   26  C   UNL     1     -47.282  59.019 -61.289  1.00  0.00     0.119 A 
HETATM   27  C   UNL     1     -48.118  58.041 -61.798  1.00  0.00     0.019 A 
HETATM   28  C   UNL     1     -47.849  56.717 -61.474  1.00  0.00     0.005 A 
HETATM   29  C   UNL     1     -46.762  56.420 -60.655  1.00  0.00     0.052 A 
ENDBRANCH  21  24
ENDBRANCH   1  18
TORSDOF 7
ENDMDL
MODEL 8
REMARK VINA RESULT:      -7.5      3.240      9.120
REMARK  7 active torsions:
REMARK  status: ('A' for Active; 'I' for Inactive)
REMARK    1  A    between atoms: N_3  and  C_4 
REMARK    2  A    between atoms: C_12  and  C_13 
REMARK       I    between atoms: C_13  and  N_14 
REMARK    3  A    between atoms: N_14  and  C_15 
REMARK    4  A    between atoms: C_15  and  C_16 
REMARK    5  A    between atoms: C_16  and  O_17 
REMARK    6  A    between atoms: C_16  and  C_18 
REMARK    7  A    between atoms: C_21  and  O_22 
ROOT
HETATM    1  C   UNL     1     -42.729  56.268 -57.213  1.00  0.00     0.255 C 
HETATM    2  N   UNL     1     -42.059  56.239 -56.010  1.00  0.00    -0.350 N 
HETATM    3  O   UNL     1     -43.275  55.279 -57.692  1.00  0.00    -0.268 OA
HETATM    4  H   UNL     1     -41.898  57.128 -55.556  1.00  0.00     0.163 HD
ENDROOT
BRANCH   2   5
HETATM    5  C   UNL     1     -42.013  55.054 -55.149  1.00  0.00     0.114 C 
HETATM    6  C   UNL     1     -43.354  54.821 -54.444  1.00  0.00     0.035 C 
BRANCH   5   7
HETATM    7  C   UNL     1     -40.813  55.066 -54.154  1.00  0.00     0.173 C 
BRANCH   7   8
HETATM    8  O   UNL     1     -41.112  55.867 -53.006  1.00  0.00    -0.389 OA
HETATM    9  H   UNL     1     -40.532  56.646 -53.055  1.00  0.00     0.210 HD
ENDBRANCH   7   8
BRANCH   7  10
HETATM   10  C   UNL     1     -40.467  53.663 -53.682  1.00  0.00    -0.028 A 
HETATM   11  C   UNL     1     -40.305  53.399 -52.313  1.00  0.00     0.012 A 
HETATM   12  C   UNL     1     -39.976  52.114 -51.872  1.00  0.00     0.037 A 
HETATM   13  C   UNL     1     -39.826  51.069 -52.784  1.00  0.00     0.068 A 
HETATM   14  C   UNL     1     -39.956  51.324 -54.148  1.00  0.00     0.037 A 
HETATM   15  C   UNL     1     -40.273  52.612 -54.592  1.00  0.00     0.012 A 
BRANCH  13  16
HETATM   16  O   UNL     1     -39.527  49.851 -52.236  1.00  0.00    -0.356 OA
HETATM   17  C   UNL     1     -39.573  49.798 -50.813  1.00  0.00     0.210 C 
ENDBRANCH  13  16
ENDBRANCH   7  10
ENDBRANCH   5   7
ENDBRANCH   2   5
BRANCH   1  18
HETATM   18  C   UNL     1     -42.838  57.573 -57.845  1.00  0.00     0.075 C 
HETATM   19  C   UNL     1     -42.344  58.053 -59.054  1.00  0.00     0.051 C 
HETATM   20  C   UNL     1     -41.644  57.358 -60.170  1.00  0.00     0.071 C 
HETATM   21  N   UNL     1     -42.656  59.415 -59.091  1.00  0.00    -0.220 N 
HETATM   22  N   UNL     1     -43.483  59.757 -58.061  1.00  0.00    -0.177 NA
HETATM   23  C   UNL     1     -43.566  58.658 -57.318  1.00  0.00     0.158 C 
BRANCH  21  24
HETATM   24  C   UNL     1     -42.202  60.416 -60.017  1.00  0.00     0.150 A 
HETATM   25  N   UNL     1     -41.288  61.336 -59.606  1.00  0.00    -0.241 NA
HETATM   26  C   UNL     1     -40.916  62.284 -60.494  1.00  0.00     0.119 A 
HETATM   27  C   UNL     1     -41.406  62.368 -61.786  1.00  0.00     0.019 A 
HETATM   28  C   UNL     1     -42.336  61.422 -62.196  1.00  0.00     0.005 A 
HETATM   29  C   UNL     1     -42.745  60.433 -61.303  1.00  0.00     0.052 A 
ENDBRANCH  21  24
ENDBRANCH   1  18
TORSDOF 7
ENDMDL
MODEL 9
REMARK VINA RESULT:      -7.3      4.450      8.908
REMARK  7 active torsions:
REMARK  status: ('A' for Active; 'I' for Inactive)
REMARK    1  A    between atoms: N_3  and  C_4 
REMARK    2  A    between atoms: C_12  and  C_13 
REMARK       I    between atoms: C_13  and  N_14 
REMARK    3  A    between atoms: N_14  and  C_15 
REMARK    4  A    between atoms: C_15  and  C_16 
REMARK    5  A    between atoms: C_16  and  O_17 
REMARK    6  A    between atoms: C_16  and  C_18 
REMARK    7  A    between atoms: C_21  and  O_22 
ROOT
HETATM    1  C   UNL     1     -42.014  58.969 -53.480  1.00  0.00     0.255 C 
HETATM    2  N   UNL     1     -42.972  57.986 -53.591  1.00  0.00    -0.350 N 
HETATM    3  O   UNL     1     -40.879  58.843 -53.929  1.00  0.00    -0.268 OA
HETATM    4  H   UNL     1     -43.934  58.270 -53.463  1.00  0.00     0.163 HD
ENDROOT
BRANCH   2   5
HETATM    5  C   UNL     1     -42.757  56.740 -54.332  1.00  0.00     0.114 C 
HETATM    6  C   UNL     1     -43.246  56.858 -55.780  1.00  0.00     0.035 C 
BRANCH   5   7
HETATM    7  C   UNL     1     -43.340  55.488 -53.609  1.00  0.00     0.173 C 
BRANCH   7   8
HETATM    8  O   UNL     1     -44.375  54.884 -54.392  1.00  0.00    -0.389 OA
HETATM    9  H   UNL     1     -43.932  54.422 -55.125  1.00  0.00     0.210 HD
ENDBRANCH   7   8
BRANCH   7  10
HETATM   10  C   UNL     1     -42.266  54.444 -53.349  1.00  0.00    -0.028 A 
HETATM   11  C   UNL     1     -41.855  53.583 -54.377  1.00  0.00     0.012 A 
HETATM   12  C   UNL     1     -40.876  52.613 -54.142  1.00  0.00     0.037 A 
HETATM   13  C   UNL     1     -40.275  52.502 -52.889  1.00  0.00     0.068 A 
HETATM   14  C   UNL     1     -40.694  53.333 -51.851  1.00  0.00     0.037 A 
HETATM   15  C   UNL     1     -41.683  54.295 -52.080  1.00  0.00     0.012 A 
BRANCH  13  16
HETATM   16  O   UNL     1     -39.314  51.534 -52.782  1.00  0.00    -0.356 OA
HETATM   17  C   UNL     1     -39.446  50.669 -51.658  1.00  0.00     0.210 C 
ENDBRANCH  13  16
ENDBRANCH   7  10
ENDBRANCH   5   7
ENDBRANCH   2   5
BRANCH   1  18
HETATM   18  C   UNL     1     -42.455  60.217 -52.878  1.00  0.00     0.075 C 
HETATM   19  C   UNL     1     -42.402  60.673 -51.564  1.00  0.00     0.051 C 
HETATM   20  C   UNL     1     -41.763  60.092 -50.352  1.00  0.00     0.071 C 
HETATM   21  N   UNL     1     -43.080  61.896 -51.548  1.00  0.00    -0.220 N 
HETATM   22  N   UNL     1     -43.377  62.309 -52.813  1.00  0.00    -0.177 NA
HETATM   23  C   UNL     1     -43.018  61.293 -53.592  1.00  0.00     0.158 C 
BRANCH  21  24
HETATM   24  C   UNL     1     -43.486  62.682 -50.416  1.00  0.00     0.150 A 
HETATM   25  N   UNL     1     -44.595  62.316 -49.716  1.00  0.00    -0.241 NA
HETATM   26  C   UNL     1     -44.967  63.103 -48.682  1.00  0.00     0.119 A 
HETATM   27  C   UNL     1     -44.289  64.246 -48.298  1.00  0.00     0.019 A 
HETATM   28  C   UNL     1     -43.157  64.609 -49.017  1.00  0.00     0.005 A 
HETATM   29  C   UNL     1     -42.748  63.821 -50.092  1.00  0.00     0.052 A 
ENDBRANCH  21  24
ENDBRANCH   1  18
TORSDOF 7
ENDMDL
MODEL 10
REMARK VINA RESULT:      -7.2      5.061      7.647
REMARK  7 active torsions:
REMARK  status: ('A' for Active; 'I' for Inactive)
REMARK    1  A    between atoms: N_3  and  C_4 
REMARK    2  A    between atoms: C_12  and  C_13 
REMARK       I    between atoms: C_13  and  N_14 
REMARK    3  A    between atoms: N_14  and  C_15 
REMARK    4  A    between atoms: C_15  and  C_16 
REMARK    5  A    between atoms: C_16  and  O_17 
REMARK    6  A    between atoms: C_16  and  C_18 
REMARK    7  A    between atoms: C_21  and  O_22 
ROOT
HETATM    1  C   UNL     1     -43.695  57.348 -51.232  1.00  0.00     0.255 C 
HETATM    2  N   UNL     1     -43.347  58.680 -51.258  1.00  0.00    -0.350 N 
HETATM    3  O   UNL     1     -44.735  56.944 -50.723  1.00  0.00    -0.268 OA
HETATM    4  H   UNL     1     -42.645  58.956 -51.931  1.00  0.00     0.163 HD
ENDROOT
BRANCH   2   5
HETATM    5  C   UNL     1     -44.225  59.745 -50.764  1.00  0.00     0.114 C 
HETATM    6  C   UNL     1     -45.048  60.363 -51.901  1.00  0.00     0.035 C 
BRANCH   5   7
HETATM    7  C   UNL     1     -43.471  60.820 -49.924  1.00  0.00     0.173 C 
BRANCH   7   8
HETATM    8  O   UNL     1     -42.690  61.672 -50.770  1.00  0.00    -0.389 OA
HETATM    9  H   UNL     1     -43.321  62.224 -51.263  1.00  0.00     0.210 HD
ENDBRANCH   7   8
BRANCH   7  10
HETATM   10  C   UNL     1     -44.437  61.687 -49.133  1.00  0.00    -0.028 A 
HETATM   11  C   UNL     1     -45.362  61.098 -48.259  1.00  0.00     0.012 A 
HETATM   12  C   UNL     1     -46.261  61.888 -47.537  1.00  0.00     0.037 A 
HETATM   13  C   UNL     1     -46.236  63.277 -47.656  1.00  0.00     0.068 A 
HETATM   14  C   UNL     1     -45.342  63.874 -48.542  1.00  0.00     0.037 A 
HETATM   15  C   UNL     1     -44.450  63.084 -49.275  1.00  0.00     0.012 A 
BRANCH  13  16
HETATM   16  O   UNL     1     -47.145  63.948 -46.884  1.00  0.00    -0.356 OA
HETATM   17  C   UNL     1     -47.292  63.457 -45.555  1.00  0.00     0.210 C 
ENDBRANCH  13  16
ENDBRANCH   7  10
ENDBRANCH   5   7
ENDBRANCH   2   5
BRANCH   1  18
HETATM   18  C   UNL     1     -42.796  56.446 -51.934  1.00  0.00     0.075 C 
HETATM   19  C   UNL     1     -42.710  55.057 -51.944  1.00  0.00     0.051 C 
HETATM   20  C   UNL     1     -43.589  54.018 -51.339  1.00  0.00     0.071 C 
HETATM   21  N   UNL     1     -41.581  54.740 -52.706  1.00  0.00    -0.220 N 
HETATM   22  N   UNL     1     -41.081  55.848 -53.324  1.00  0.00    -0.177 NA
HETATM   23  C   UNL     1     -41.800  56.857 -52.841  1.00  0.00     0.158 C 
BRANCH  21  24
HETATM   24  C   UNL     1     -40.933  53.468 -52.864  1.00  0.00     0.150 A 
HETATM   25  N   UNL     1     -40.182  52.974 -51.842  1.00  0.00    -0.241 NA
HETATM   26  C   UNL     1     -39.555  51.793 -52.043  1.00  0.00     0.119 A 
HETATM   27  C   UNL     1     -39.637  51.065 -53.218  1.00  0.00     0.019 A 
HETATM   28  C   UNL     1     -40.409  51.578 -54.253  1.00  0.00     0.005 A 
HETATM   29  C   UNL     1     -41.065  52.795 -54.079  1.00  0.00     0.052 A 
ENDBRANCH  21  24
ENDBRANCH   1  18
TORSDOF 7
ENDMDL
