MODEL 1
REMARK VINA RESULT:      -9.4      0.000      0.000
REMARK  6 active torsions:
REMARK  status: ('A' for Active; 'I' for Inactive)
REMARK    1  A    between atoms: C_2  and  O_3 
REMARK    2  A    between atoms: C_2  and  C_4 
REMARK    3  A    between atoms: C_6  and  N_7 
REMARK       I    between atoms: N_7  and  C_8 
REMARK    4  A    between atoms: C_8  and  C_9 
REMARK    5  A    between atoms: C_12  and  C_13 
REMARK    6  A    between atoms: C_18  and  C_19 
ROOT
HETATM    1  C   UNL     1     -42.012  56.169 -52.301  1.00  0.00     0.096 C 
HETATM    2  C   UNL     1     -41.297  55.014 -52.039  1.00  0.00     0.138 C 
HETATM    3  N   UNL     1     -40.824  55.147 -50.753  1.00  0.00    -0.240 N 
HETATM    4  C   UNL     1     -39.968  54.181 -50.089  1.00  0.00     0.221 C 
HETATM    5  C   UNL     1     -40.018  52.828 -50.822  1.00  0.00     0.068 C 
HETATM    6  C   UNL     1     -39.911  53.032 -52.337  1.00  0.00     0.143 C 
HETATM    7  N   UNL     1     -41.011  53.908 -52.783  1.00  0.00    -0.363 N 
HETATM    8  N   UNL     1     -41.042  56.364 -50.231  1.00  0.00    -0.181 NA
HETATM    9  C   UNL     1     -41.790  56.970 -51.156  1.00  0.00     0.160 C 
HETATM   10  H   UNL     1     -40.988  54.021 -53.800  1.00  0.00     0.162 HD
ENDROOT
BRANCH   1  11
HETATM   11  C   UNL     1     -42.778  56.540 -53.481  1.00  0.00     0.261 C 
HETATM   12  N   UNL     1     -41.989  56.812 -54.582  1.00  0.00    -0.323 N 
HETATM   13  H   UNL     1     -41.003  56.604 -54.470  1.00  0.00     0.169 HD
HETATM   14  O   UNL     1     -44.002  56.563 -53.445  1.00  0.00    -0.267 OA
BRANCH  12  15
HETATM   15  C   UNL     1     -42.396  57.276 -55.848  1.00  0.00     0.035 A 
HETATM   16  C   UNL     1     -42.399  56.489 -57.002  1.00  0.00     0.039 A 
HETATM   17  C   UNL     1     -42.838  57.006 -58.236  1.00  0.00    -0.028 A 
HETATM   18  C   UNL     1     -43.287  58.331 -58.290  1.00  0.00     0.010 A 
HETATM   19  C   UNL     1     -43.285  59.125 -57.145  1.00  0.00     0.003 A 
HETATM   20  C   UNL     1     -42.843  58.600 -55.930  1.00  0.00     0.029 A 
BRANCH  17  21
HETATM   21  C   UNL     1     -42.849  56.108 -59.455  1.00  0.00     0.147 C 
HETATM   22  C   UNL     1     -44.089  56.344 -60.309  1.00  0.00     0.044 C 
BRANCH  21  23
HETATM   23  O   UNL     1     -41.689  56.333 -60.255  1.00  0.00    -0.391 OA
HETATM   24  H   UNL     1     -40.923  56.074 -59.718  1.00  0.00     0.210 HD
ENDBRANCH  21  23
ENDBRANCH  17  21
ENDBRANCH  12  15
ENDBRANCH   1  11
BRANCH   4  25
HETATM   25  C   UNL     1     -40.351  53.987 -48.639  1.00  0.00     0.409 C 
HETATM   26  F   UNL     1     -41.374  54.789 -48.266  1.00  0.00    -0.169 F 
HETATM   27  F   UNL     1     -40.775  52.707 -48.449  1.00  0.00    -0.169 F 
HETATM   28  F   UNL     1     -39.330  54.172 -47.778  1.00  0.00    -0.169 F 
ENDBRANCH   4  25
BRANCH   6  29
HETATM   29  C   UNL     1     -39.906  51.708 -53.031  1.00  0.00     0.075 A 
HETATM   30  O   UNL     1     -39.563  50.626 -52.273  1.00  0.00    -0.325 OA
HETATM   31  C   UNL     1     -39.630  49.537 -53.081  1.00  0.00     0.142 A 
HETATM   32  C   UNL     1     -40.014  49.903 -54.350  1.00  0.00     0.027 A 
HETATM   33  C   UNL     1     -40.193  51.306 -54.320  1.00  0.00     0.037 A 
ENDBRANCH   6  29
TORSDOF 6
ENDMDL
MODEL 2
REMARK VINA RESULT:      -9.4      1.761      2.260
REMARK  6 active torsions:
REMARK  status: ('A' for Active; 'I' for Inactive)
REMARK    1  A    between atoms: C_2  and  O_3 
REMARK    2  A    between atoms: C_2  and  C_4 
REMARK    3  A    between atoms: C_6  and  N_7 
REMARK       I    between atoms: N_7  and  C_8 
REMARK    4  A    between atoms: C_8  and  C_9 
REMARK    5  A    between atoms: C_12  and  C_13 
REMARK    6  A    between atoms: C_18  and  C_19 
ROOT
HETATM    1  C   UNL     1     -42.261  55.570 -54.358  1.00  0.00     0.096 C 
HETATM    2  C   UNL     1     -41.607  54.730 -53.475  1.00  0.00     0.138 C 
HETATM    3  N   UNL     1     -41.525  55.422 -52.288  1.00  0.00    -0.240 N 
HETATM    4  C   UNL     1     -40.857  54.930 -51.096  1.00  0.00     0.221 C 
HETATM    5  C   UNL     1     -40.645  53.409 -51.189  1.00  0.00     0.068 C 
HETATM    6  C   UNL     1     -40.119  53.023 -52.576  1.00  0.00     0.143 C 
HETATM    7  N   UNL     1     -41.079  53.479 -53.599  1.00  0.00    -0.363 N 
HETATM    8  N   UNL     1     -41.929  56.697 -52.388  1.00  0.00    -0.181 NA
HETATM    9  C   UNL     1     -42.406  56.776 -53.633  1.00  0.00     0.160 C 
HETATM   10  H   UNL     1     -40.771  53.191 -54.531  1.00  0.00     0.162 HD
ENDROOT
BRANCH   1  11
HETATM   11  C   UNL     1     -42.673  55.333 -55.734  1.00  0.00     0.261 C 
HETATM   12  N   UNL     1     -42.486  56.426 -56.556  1.00  0.00    -0.323 N 
HETATM   13  H   UNL     1     -41.983  57.202 -56.139  1.00  0.00     0.169 HD
HETATM   14  O   UNL     1     -43.108  54.239 -56.072  1.00  0.00    -0.267 OA
BRANCH  12  15
HETATM   15  C   UNL     1     -42.851  56.566 -57.910  1.00  0.00     0.035 A 
HETATM   16  C   UNL     1     -43.836  55.797 -58.535  1.00  0.00     0.039 A 
HETATM   17  C   UNL     1     -44.170  55.999 -59.887  1.00  0.00    -0.028 A 
HETATM   18  C   UNL     1     -43.502  57.000 -60.604  1.00  0.00     0.010 A 
HETATM   19  C   UNL     1     -42.516  57.770 -59.991  1.00  0.00     0.003 A 
HETATM   20  C   UNL     1     -42.193  57.555 -58.650  1.00  0.00     0.029 A 
BRANCH  17  21
HETATM   21  C   UNL     1     -45.263  55.160 -60.515  1.00  0.00     0.147 C 
HETATM   22  C   UNL     1     -46.542  55.966 -60.709  1.00  0.00     0.044 C 
BRANCH  21  23
HETATM   23  O   UNL     1     -44.841  54.653 -61.781  1.00  0.00    -0.391 OA
HETATM   24  H   UNL     1     -45.479  54.972 -62.439  1.00  0.00     0.210 HD
ENDBRANCH  21  23
ENDBRANCH  17  21
ENDBRANCH  12  15
ENDBRANCH   1  11
BRANCH   4  25
HETATM   25  C   UNL     1     -41.630  55.259 -49.838  1.00  0.00     0.409 C 
HETATM   26  F   UNL     1     -42.964  55.108 -49.999  1.00  0.00    -0.169 F 
HETATM   27  F   UNL     1     -41.263  54.403 -48.844  1.00  0.00    -0.169 F 
HETATM   28  F   UNL     1     -41.396  56.500 -49.365  1.00  0.00    -0.169 F 
ENDBRANCH   4  25
BRANCH   6  29
HETATM   29  C   UNL     1     -39.866  51.550 -52.633  1.00  0.00     0.075 A 
HETATM   30  O   UNL     1     -39.727  50.911 -51.436  1.00  0.00    -0.325 OA
HETATM   31  C   UNL     1     -39.516  49.598 -51.709  1.00  0.00     0.142 A 
HETATM   32  C   UNL     1     -39.520  49.382 -53.068  1.00  0.00     0.027 A 
HETATM   33  C   UNL     1     -39.746  50.644 -53.667  1.00  0.00     0.037 A 
ENDBRANCH   6  29
TORSDOF 6
ENDMDL
MODEL 3
REMARK VINA RESULT:      -8.9      1.453      2.001
REMARK  6 active torsions:
REMARK  status: ('A' for Active; 'I' for Inactive)
REMARK    1  A    between atoms: C_2  and  O_3 
REMARK    2  A    between atoms: C_2  and  C_4 
REMARK    3  A    between atoms: C_6  and  N_7 
REMARK       I    between atoms: N_7  and  C_8 
REMARK    4  A    between atoms: C_8  and  C_9 
REMARK    5  A    between atoms: C_12  and  C_13 
REMARK    6  A    between atoms: C_18  and  C_19 
ROOT
HETATM    1  C   UNL     1     -42.742  56.241 -53.447  1.00  0.00     0.096 C 
HETATM    2  C   UNL     1     -41.977  55.199 -52.953  1.00  0.00     0.138 C 
HETATM    3  N   UNL     1     -41.685  55.532 -51.649  1.00  0.00    -0.240 N 
HETATM    4  C   UNL     1     -40.848  54.739 -50.768  1.00  0.00     0.221 C 
HETATM    5  C   UNL     1     -40.697  53.309 -51.316  1.00  0.00     0.068 C 
HETATM    6  C   UNL     1     -40.413  53.336 -52.821  1.00  0.00     0.143 C 
HETATM    7  N   UNL     1     -41.512  54.043 -53.505  1.00  0.00    -0.363 N 
HETATM    8  N   UNL     1     -42.064  56.777 -51.322  1.00  0.00    -0.181 NA
HETATM    9  C   UNL     1     -42.733  57.193 -52.400  1.00  0.00     0.160 C 
HETATM   10  H   UNL     1     -41.367  54.033 -54.518  1.00  0.00     0.162 HD
ENDROOT
BRANCH   1  11
HETATM   11  C   UNL     1     -43.377  56.391 -54.748  1.00  0.00     0.261 C 
HETATM   12  N   UNL     1     -42.477  56.442 -55.793  1.00  0.00    -0.323 N 
HETATM   13  H   UNL     1     -41.513  56.248 -55.545  1.00  0.00     0.169 HD
HETATM   14  O   UNL     1     -44.598  56.434 -54.841  1.00  0.00    -0.267 OA
BRANCH  12  15
HETATM   15  C   UNL     1     -42.744  56.663 -57.158  1.00  0.00     0.035 A 
HETATM   16  C   UNL     1     -42.702  57.920 -57.767  1.00  0.00     0.039 A 
HETATM   17  C   UNL     1     -42.960  58.074 -59.142  1.00  0.00    -0.028 A 
HETATM   18  C   UNL     1     -43.252  56.936 -59.904  1.00  0.00     0.010 A 
HETATM   19  C   UNL     1     -43.300  55.678 -59.306  1.00  0.00     0.003 A 
HETATM   20  C   UNL     1     -43.046  55.543 -57.941  1.00  0.00     0.029 A 
BRANCH  17  21
HETATM   21  C   UNL     1     -42.876  59.452 -59.763  1.00  0.00     0.147 C 
HETATM   22  C   UNL     1     -41.906  59.475 -60.939  1.00  0.00     0.044 C 
BRANCH  21  23
HETATM   23  O   UNL     1     -44.161  59.877 -60.217  1.00  0.00    -0.391 OA
HETATM   24  H   UNL     1     -44.256  60.809 -59.960  1.00  0.00     0.210 HD
ENDBRANCH  21  23
ENDBRANCH  17  21
ENDBRANCH  12  15
ENDBRANCH   1  11
BRANCH   4  25
HETATM   25  C   UNL     1     -41.397  54.688 -49.359  1.00  0.00     0.409 C 
HETATM   26  F   UNL     1     -42.716  54.392 -49.332  1.00  0.00    -0.169 F 
HETATM   27  F   UNL     1     -40.766  53.701 -48.663  1.00  0.00    -0.169 F 
HETATM   28  F   UNL     1     -41.200  55.822 -48.658  1.00  0.00    -0.169 F 
ENDBRANCH   4  25
BRANCH   6  29
HETATM   29  C   UNL     1     -40.214  51.944 -53.329  1.00  0.00     0.075 A 
HETATM   30  O   UNL     1     -39.687  51.046 -52.446  1.00  0.00    -0.325 OA
HETATM   31  C   UNL     1     -39.599  49.856 -53.095  1.00  0.00     0.142 A 
HETATM   32  C   UNL     1     -40.064  49.976 -54.384  1.00  0.00     0.027 A 
HETATM   33  C   UNL     1     -40.462  51.325 -54.537  1.00  0.00     0.037 A 
ENDBRANCH   6  29
TORSDOF 6
ENDMDL
MODEL 4
REMARK VINA RESULT:      -8.8      2.032      2.647
REMARK  6 active torsions:
REMARK  status: ('A' for Active; 'I' for Inactive)
REMARK    1  A    between atoms: C_2  and  O_3 
REMARK    2  A    between atoms: C_2  and  C_4 
REMARK    3  A    between atoms: C_6  and  N_7 
REMARK       I    between atoms: N_7  and  C_8 
REMARK    4  A    between atoms: C_8  and  C_9 
REMARK    5  A    between atoms: C_12  and  C_13 
REMARK    6  A    between atoms: C_18  and  C_19 
ROOT
HETATM    1  C   UNL     1     -42.442  55.955 -54.520  1.00  0.00     0.096 C 
HETATM    2  C   UNL     1     -41.803  55.008 -53.741  1.00  0.00     0.138 C 
HETATM    3  N   UNL     1     -41.773  55.527 -52.466  1.00  0.00    -0.240 N 
HETATM    4  C   UNL     1     -41.136  54.881 -51.332  1.00  0.00     0.221 C 
HETATM    5  C   UNL     1     -40.895  53.391 -51.630  1.00  0.00     0.068 C 
HETATM    6  C   UNL     1     -40.317  53.210 -53.038  1.00  0.00     0.143 C 
HETATM    7  N   UNL     1     -41.250  53.794 -54.019  1.00  0.00    -0.363 N 
HETATM    8  N   UNL     1     -42.195  56.798 -52.401  1.00  0.00    -0.181 NA
HETATM    9  C   UNL     1     -42.632  57.046 -53.638  1.00  0.00     0.160 C 
HETATM   10  H   UNL     1     -40.906  53.643 -54.972  1.00  0.00     0.162 HD
ENDROOT
BRANCH   1  11
HETATM   11  C   UNL     1     -42.804  55.909 -55.929  1.00  0.00     0.261 C 
HETATM   12  N   UNL     1     -42.866  57.156 -56.518  1.00  0.00    -0.323 N 
HETATM   13  H   UNL     1     -42.539  57.925 -55.943  1.00  0.00     0.169 HD
HETATM   14  O   UNL     1     -42.994  54.835 -56.486  1.00  0.00    -0.267 OA
BRANCH  12  15
HETATM   15  C   UNL     1     -43.264  57.476 -57.831  1.00  0.00     0.035 A 
HETATM   16  C   UNL     1     -44.596  57.591 -58.236  1.00  0.00     0.039 A 
HETATM   17  C   UNL     1     -44.930  57.934 -59.560  1.00  0.00    -0.028 A 
HETATM   18  C   UNL     1     -43.896  58.171 -60.475  1.00  0.00     0.010 A 
HETATM   19  C   UNL     1     -42.564  58.056 -60.082  1.00  0.00     0.003 A 
HETATM   20  C   UNL     1     -42.250  57.711 -58.767  1.00  0.00     0.029 A 
BRANCH  17  21
HETATM   21  C   UNL     1     -46.387  58.075 -59.946  1.00  0.00     0.147 C 
HETATM   22  C   UNL     1     -47.154  58.911 -58.929  1.00  0.00     0.044 C 
BRANCH  21  23
HETATM   23  O   UNL     1     -46.509  58.684 -61.230  1.00  0.00    -0.391 OA
HETATM   24  H   UNL     1     -45.610  58.785 -61.581  1.00  0.00     0.210 HD
ENDBRANCH  21  23
ENDBRANCH  17  21
ENDBRANCH  12  15
ENDBRANCH   1  11
BRANCH   4  25
HETATM   25  C   UNL     1     -41.955  55.021 -50.068  1.00  0.00     0.409 C 
HETATM   26  F   UNL     1     -41.641  54.083 -49.146  1.00  0.00    -0.169 F 
HETATM   27  F   UNL     1     -41.698  56.229 -49.493  1.00  0.00    -0.169 F 
HETATM   28  F   UNL     1     -43.287  54.983 -50.276  1.00  0.00    -0.169 F 
ENDBRANCH   4  25
BRANCH   6  29
HETATM   29  C   UNL     1     -40.036  51.764 -53.292  1.00  0.00     0.075 A 
HETATM   30  O   UNL     1     -39.792  50.990 -52.194  1.00  0.00    -0.325 OA
HETATM   31  C   UNL     1     -39.574  49.726 -52.639  1.00  0.00     0.142 A 
HETATM   32  C   UNL     1     -39.676  49.674 -54.010  1.00  0.00     0.027 A 
HETATM   33  C   UNL     1     -39.975  50.991 -54.434  1.00  0.00     0.037 A 
ENDBRANCH   6  29
TORSDOF 6
ENDMDL
MODEL 5
REMARK VINA RESULT:      -8.8      4.031      8.461
REMARK  6 active torsions:
REMARK  status: ('A' for Active; 'I' for Inactive)
REMARK    1  A    between atoms: C_2  and  O_3 
REMARK    2  A    between atoms: C_2  and  C_4 
REMARK    3  A    between atoms: C_6  and  N_7 
REMARK       I    between atoms: N_7  and  C_8 
REMARK    4  A    between atoms: C_8  and  C_9 
REMARK    5  A    between atoms: C_12  and  C_13 
REMARK    6  A    between atoms: C_18  and  C_19 
ROOT
HETATM    1  C   UNL     1     -42.509  56.898 -54.947  1.00  0.00     0.096 C 
HETATM    2  C   UNL     1     -43.025  57.227 -56.188  1.00  0.00     0.138 C 
HETATM    3  N   UNL     1     -42.806  58.577 -56.341  1.00  0.00    -0.240 N 
HETATM    4  C   UNL     1     -43.245  59.355 -57.486  1.00  0.00     0.221 C 
HETATM    5  C   UNL     1     -43.583  58.427 -58.666  1.00  0.00     0.068 C 
HETATM    6  C   UNL     1     -44.413  57.230 -58.189  1.00  0.00     0.143 C 
HETATM    7  N   UNL     1     -43.657  56.502 -57.153  1.00  0.00    -0.363 N 
HETATM    8  N   UNL     1     -42.339  59.169 -55.231  1.00  0.00    -0.181 NA
HETATM    9  C   UNL     1     -42.127  58.146 -54.399  1.00  0.00     0.160 C 
HETATM   10  H   UNL     1     -44.173  55.671 -56.853  1.00  0.00     0.162 HD
ENDROOT
BRANCH   1  11
HETATM   11  C   UNL     1     -42.411  55.601 -54.295  1.00  0.00     0.261 C 
HETATM   12  N   UNL     1     -41.247  55.440 -53.569  1.00  0.00    -0.323 N 
HETATM   13  H   UNL     1     -40.673  56.271 -53.480  1.00  0.00     0.169 HD
HETATM   14  O   UNL     1     -43.320  54.786 -54.395  1.00  0.00    -0.267 OA
BRANCH  12  15
HETATM   15  C   UNL     1     -40.800  54.289 -52.892  1.00  0.00     0.035 A 
HETATM   16  C   UNL     1     -40.458  53.093 -53.528  1.00  0.00     0.039 A 
HETATM   17  C   UNL     1     -39.997  51.983 -52.796  1.00  0.00    -0.028 A 
HETATM   18  C   UNL     1     -39.875  52.097 -51.405  1.00  0.00     0.010 A 
HETATM   19  C   UNL     1     -40.217  53.284 -50.761  1.00  0.00     0.003 A 
HETATM   20  C   UNL     1     -40.676  54.374 -51.500  1.00  0.00     0.029 A 
BRANCH  17  21
HETATM   21  C   UNL     1     -39.611  50.717 -53.532  1.00  0.00     0.147 C 
HETATM   22  C   UNL     1     -39.587  49.514 -52.596  1.00  0.00     0.044 C 
BRANCH  21  23
HETATM   23  O   UNL     1     -40.527  50.456 -54.595  1.00  0.00    -0.391 OA
HETATM   24  H   UNL     1     -40.399  49.530 -54.856  1.00  0.00     0.210 HD
ENDBRANCH  21  23
ENDBRANCH  17  21
ENDBRANCH  12  15
ENDBRANCH   1  11
BRANCH   4  25
HETATM   25  C   UNL     1     -42.205  60.366 -57.916  1.00  0.00     0.409 C 
HETATM   26  F   UNL     1     -40.948  59.872 -57.846  1.00  0.00    -0.169 F 
HETATM   27  F   UNL     1     -42.414  60.703 -59.220  1.00  0.00    -0.169 F 
HETATM   28  F   UNL     1     -42.249  61.520 -57.221  1.00  0.00    -0.169 F 
ENDBRANCH   4  25
BRANCH   6  29
HETATM   29  C   UNL     1     -44.781  56.368 -59.354  1.00  0.00     0.075 A 
HETATM   30  O   UNL     1     -46.021  56.565 -59.888  1.00  0.00    -0.325 OA
HETATM   31  C   UNL     1     -46.148  55.700 -60.927  1.00  0.00     0.142 A 
HETATM   32  C   UNL     1     -45.005  54.948 -61.070  1.00  0.00     0.027 A 
HETATM   33  C   UNL     1     -44.120  55.379 -60.054  1.00  0.00     0.037 A 
ENDBRANCH   6  29
TORSDOF 6
ENDMDL
MODEL 6
REMARK VINA RESULT:      -8.5      3.180      7.768
REMARK  6 active torsions:
REMARK  status: ('A' for Active; 'I' for Inactive)
REMARK    1  A    between atoms: C_2  and  O_3 
REMARK    2  A    between atoms: C_2  and  C_4 
REMARK    3  A    between atoms: C_6  and  N_7 
REMARK       I    between atoms: N_7  and  C_8 
REMARK    4  A    between atoms: C_8  and  C_9 
REMARK    5  A    between atoms: C_12  and  C_13 
REMARK    6  A    between atoms: C_18  and  C_19 
ROOT
HETATM    1  C   UNL     1     -42.842  56.127 -52.907  1.00  0.00     0.096 C 
HETATM    2  C   UNL     1     -42.966  56.857 -54.075  1.00  0.00     0.138 C 
HETATM    3  N   UNL     1     -43.195  58.157 -53.685  1.00  0.00    -0.240 N 
HETATM    4  C   UNL     1     -43.444  59.256 -54.600  1.00  0.00     0.221 C 
HETATM    5  C   UNL     1     -42.996  58.881 -56.024  1.00  0.00     0.068 C 
HETATM    6  C   UNL     1     -43.466  57.466 -56.381  1.00  0.00     0.143 C 
HETATM    7  N   UNL     1     -42.921  56.515 -55.394  1.00  0.00    -0.363 N 
HETATM    8  N   UNL     1     -43.389  58.288 -52.364  1.00  0.00    -0.181 NA
HETATM    9  C   UNL     1     -43.141  57.065 -51.890  1.00  0.00     0.160 C 
HETATM   10  H   UNL     1     -43.183  55.557 -55.639  1.00  0.00     0.162 HD
ENDROOT
BRANCH   1  11
HETATM   11  C   UNL     1     -42.533  54.717 -52.719  1.00  0.00     0.261 C 
HETATM   12  N   UNL     1     -41.272  54.371 -53.160  1.00  0.00    -0.323 N 
HETATM   13  H   UNL     1     -40.681  55.146 -53.440  1.00  0.00     0.169 HD
HETATM   14  O   UNL     1     -43.346  53.969 -52.190  1.00  0.00    -0.267 OA
BRANCH  12  15
HETATM   15  C   UNL     1     -40.690  53.088 -53.205  1.00  0.00     0.035 A 
HETATM   16  C   UNL     1     -40.338  52.352 -52.071  1.00  0.00     0.039 A 
HETATM   17  C   UNL     1     -39.779  51.065 -52.181  1.00  0.00    -0.028 A 
HETATM   18  C   UNL     1     -39.587  50.521 -53.458  1.00  0.00     0.010 A 
HETATM   19  C   UNL     1     -39.932  51.248 -54.595  1.00  0.00     0.003 A 
HETATM   20  C   UNL     1     -40.482  52.525 -54.469  1.00  0.00     0.029 A 
BRANCH  17  21
HETATM   21  C   UNL     1     -39.439  50.293 -50.924  1.00  0.00     0.147 C 
HETATM   22  C   UNL     1     -40.336  50.700 -49.761  1.00  0.00     0.044 C 
BRANCH  21  23
HETATM   23  O   UNL     1     -39.577  48.890 -51.144  1.00  0.00    -0.391 OA
HETATM   24  H   UNL     1     -39.209  48.445 -50.364  1.00  0.00     0.210 HD
ENDBRANCH  21  23
ENDBRANCH  17  21
ENDBRANCH  12  15
ENDBRANCH   1  11
BRANCH   4  25
HETATM   25  C   UNL     1     -42.744  60.525 -54.165  1.00  0.00     0.409 C 
HETATM   26  F   UNL     1     -41.506  60.286 -53.675  1.00  0.00    -0.169 F 
HETATM   27  F   UNL     1     -42.581  61.344 -55.242  1.00  0.00    -0.169 F 
HETATM   28  F   UNL     1     -43.432  61.240 -53.254  1.00  0.00    -0.169 F 
ENDBRANCH   4  25
BRANCH   6  29
HETATM   29  C   UNL     1     -43.071  57.137 -57.785  1.00  0.00     0.075 A 
HETATM   30  O   UNL     1     -43.495  55.933 -58.267  1.00  0.00    -0.325 OA
HETATM   31  C   UNL     1     -43.045  55.836 -59.544  1.00  0.00     0.142 A 
HETATM   32  C   UNL     1     -42.336  56.963 -59.892  1.00  0.00     0.027 A 
HETATM   33  C   UNL     1     -42.353  57.805 -58.755  1.00  0.00     0.037 A 
ENDBRANCH   6  29
TORSDOF 6
ENDMDL
MODEL 7
REMARK VINA RESULT:      -8.4      4.250      8.869
REMARK  6 active torsions:
REMARK  status: ('A' for Active; 'I' for Inactive)
REMARK    1  A    between atoms: C_2  and  O_3 
REMARK    2  A    between atoms: C_2  and  C_4 
REMARK    3  A    between atoms: C_6  and  N_7 
REMARK       I    between atoms: N_7  and  C_8 
REMARK    4  A    between atoms: C_8  and  C_9 
REMARK    5  A    between atoms: C_12  and  C_13 
REMARK    6  A    between atoms: C_18  and  C_19 
ROOT
HETATM    1  C   UNL     1     -42.471  57.031 -55.222  1.00  0.00     0.096 C 
HETATM    2  C   UNL     1     -43.153  57.482 -56.338  1.00  0.00     0.138 C 
HETATM    3  N   UNL     1     -42.848  58.819 -56.452  1.00  0.00    -0.240 N 
HETATM    4  C   UNL     1     -43.401  59.704 -57.462  1.00  0.00     0.221 C 
HETATM    5  C   UNL     1     -44.005  58.886 -58.618  1.00  0.00     0.068 C 
HETATM    6  C   UNL     1     -44.845  57.726 -58.074  1.00  0.00     0.143 C 
HETATM    7  N   UNL     1     -43.994  56.874 -57.222  1.00  0.00    -0.363 N 
HETATM    8  N   UNL     1     -42.157  59.297 -55.406  1.00  0.00    -0.181 NA
HETATM    9  C   UNL     1     -41.900  58.207 -54.678  1.00  0.00     0.160 C 
HETATM   10  H   UNL     1     -44.523  56.065 -56.886  1.00  0.00     0.162 HD
ENDROOT
BRANCH   1  11
HETATM   11  C   UNL     1     -42.379  55.689 -54.668  1.00  0.00     0.261 C 
HETATM   12  N   UNL     1     -41.118  55.375 -54.202  1.00  0.00    -0.323 N 
HETATM   13  H   UNL     1     -40.456  56.144 -54.189  1.00  0.00     0.169 HD
HETATM   14  O   UNL     1     -43.367  54.966 -54.624  1.00  0.00    -0.267 OA
BRANCH  12  15
HETATM   15  C   UNL     1     -40.665  54.145 -53.686  1.00  0.00     0.035 A 
HETATM   16  C   UNL     1     -40.521  53.878 -52.322  1.00  0.00     0.039 A 
HETATM   17  C   UNL     1     -40.082  52.619 -51.868  1.00  0.00    -0.028 A 
HETATM   18  C   UNL     1     -39.798  51.624 -52.811  1.00  0.00     0.010 A 
HETATM   19  C   UNL     1     -39.936  51.882 -54.174  1.00  0.00     0.003 A 
HETATM   20  C   UNL     1     -40.367  53.136 -54.608  1.00  0.00     0.029 A 
BRANCH  17  21
HETATM   21  C   UNL     1     -39.968  52.366 -50.379  1.00  0.00     0.147 C 
HETATM   22  C   UNL     1     -40.742  53.406 -49.577  1.00  0.00     0.044 C 
BRANCH  21  23
HETATM   23  O   UNL     1     -40.463  51.069 -50.052  1.00  0.00    -0.391 OA
HETATM   24  H   UNL     1     -39.832  50.426 -50.415  1.00  0.00     0.210 HD
ENDBRANCH  21  23
ENDBRANCH  17  21
ENDBRANCH  12  15
ENDBRANCH   1  11
BRANCH   4  25
HETATM   25  C   UNL     1     -42.363  60.661 -58.005  1.00  0.00     0.409 C 
HETATM   26  F   UNL     1     -42.690  61.133 -59.229  1.00  0.00    -0.169 F 
HETATM   27  F   UNL     1     -42.274  61.746 -57.185  1.00  0.00    -0.169 F 
HETATM   28  F   UNL     1     -41.122  60.139 -58.068  1.00  0.00    -0.169 F 
ENDBRANCH   4  25
BRANCH   6  29
HETATM   29  C   UNL     1     -45.470  56.974 -59.206  1.00  0.00     0.075 A 
HETATM   30  O   UNL     1     -46.825  57.080 -59.330  1.00  0.00    -0.325 OA
HETATM   31  C   UNL     1     -47.184  56.341 -60.411  1.00  0.00     0.142 A 
HETATM   32  C   UNL     1     -46.077  55.761 -60.986  1.00  0.00     0.027 A 
HETATM   33  C   UNL     1     -44.968  56.170 -60.208  1.00  0.00     0.037 A 
ENDBRANCH   6  29
TORSDOF 6
ENDMDL
MODEL 8
REMARK VINA RESULT:      -8.4      2.828      4.661
REMARK  6 active torsions:
REMARK  status: ('A' for Active; 'I' for Inactive)
REMARK    1  A    between atoms: C_2  and  O_3 
REMARK    2  A    between atoms: C_2  and  C_4 
REMARK    3  A    between atoms: C_6  and  N_7 
REMARK       I    between atoms: N_7  and  C_8 
REMARK    4  A    between atoms: C_8  and  C_9 
REMARK    5  A    between atoms: C_12  and  C_13 
REMARK    6  A    between atoms: C_18  and  C_19 
ROOT
HETATM    1  C   UNL     1     -42.492  58.346 -56.205  1.00  0.00     0.096 C 
HETATM    2  C   UNL     1     -41.963  57.573 -55.186  1.00  0.00     0.138 C 
HETATM    3  N   UNL     1     -41.870  58.405 -54.093  1.00  0.00    -0.240 N 
HETATM    4  C   UNL     1     -41.308  58.015 -52.812  1.00  0.00     0.221 C 
HETATM    5  C   UNL     1     -41.241  56.481 -52.700  1.00  0.00     0.068 C 
HETATM    6  C   UNL     1     -40.692  55.871 -53.994  1.00  0.00     0.143 C 
HETATM    7  N   UNL     1     -41.554  56.275 -55.120  1.00  0.00    -0.363 N 
HETATM    8  N   UNL     1     -42.143  59.687 -54.376  1.00  0.00    -0.181 NA
HETATM    9  C   UNL     1     -42.552  59.645 -55.647  1.00  0.00     0.160 C 
HETATM   10  H   UNL     1     -41.234  55.840 -55.989  1.00  0.00     0.162 HD
ENDROOT
BRANCH   1  11
HETATM   11  C   UNL     1     -42.861  57.969 -57.561  1.00  0.00     0.261 C 
HETATM   12  N   UNL     1     -43.955  57.128 -57.616  1.00  0.00    -0.323 N 
HETATM   13  H   UNL     1     -44.432  56.979 -56.734  1.00  0.00     0.169 HD
HETATM   14  O   UNL     1     -42.239  58.411 -58.519  1.00  0.00    -0.267 OA
BRANCH  12  15
HETATM   15  C   UNL     1     -44.519  56.513 -58.751  1.00  0.00     0.035 A 
HETATM   16  C   UNL     1     -45.707  56.932 -59.355  1.00  0.00     0.039 A 
HETATM   17  C   UNL     1     -46.210  56.287 -60.501  1.00  0.00    -0.028 A 
HETATM   18  C   UNL     1     -45.490  55.214 -61.040  1.00  0.00     0.010 A 
HETATM   19  C   UNL     1     -44.305  54.786 -60.443  1.00  0.00     0.003 A 
HETATM   20  C   UNL     1     -43.822  55.433 -59.305  1.00  0.00     0.029 A 
BRANCH  17  21
HETATM   21  C   UNL     1     -47.487  56.794 -61.138  1.00  0.00     0.147 C 
HETATM   22  C   UNL     1     -47.580  58.313 -61.066  1.00  0.00     0.044 C 
BRANCH  21  23
HETATM   23  O   UNL     1     -47.559  56.391 -62.505  1.00  0.00    -0.391 OA
HETATM   24  H   UNL     1     -47.412  57.187 -63.041  1.00  0.00     0.210 HD
ENDBRANCH  21  23
ENDBRANCH  17  21
ENDBRANCH  12  15
ENDBRANCH   1  11
BRANCH   4  25
HETATM   25  C   UNL     1     -42.102  58.575 -51.652  1.00  0.00     0.409 C 
HETATM   26  F   UNL     1     -41.943  57.848 -50.522  1.00  0.00    -0.169 F 
HETATM   27  F   UNL     1     -41.662  59.832 -51.367  1.00  0.00    -0.169 F 
HETATM   28  F   UNL     1     -43.422  58.690 -51.902  1.00  0.00    -0.169 F 
ENDBRANCH   4  25
BRANCH   6  29
HETATM   29  C   UNL     1     -40.580  54.387 -53.850  1.00  0.00     0.075 A 
HETATM   30  O   UNL     1     -40.417  53.910 -52.582  1.00  0.00    -0.325 OA
HETATM   31  C   UNL     1     -40.349  52.557 -52.673  1.00  0.00     0.142 A 
HETATM   32  C   UNL     1     -40.468  52.155 -53.983  1.00  0.00     0.027 A 
HETATM   33  C   UNL     1     -40.617  53.338 -54.746  1.00  0.00     0.037 A 
ENDBRANCH   6  29
TORSDOF 6
ENDMDL
MODEL 9
REMARK VINA RESULT:      -8.3      2.144      4.591
REMARK  6 active torsions:
REMARK  status: ('A' for Active; 'I' for Inactive)
REMARK    1  A    between atoms: C_2  and  O_3 
REMARK    2  A    between atoms: C_2  and  C_4 
REMARK    3  A    between atoms: C_6  and  N_7 
REMARK       I    between atoms: N_7  and  C_8 
REMARK    4  A    between atoms: C_8  and  C_9 
REMARK    5  A    between atoms: C_12  and  C_13 
REMARK    6  A    between atoms: C_18  and  C_19 
ROOT
HETATM    1  C   UNL     1     -41.207  54.366 -53.676  1.00  0.00     0.096 C 
HETATM    2  C   UNL     1     -41.393  55.142 -52.545  1.00  0.00     0.138 C 
HETATM    3  N   UNL     1     -41.226  54.294 -51.474  1.00  0.00    -0.240 N 
HETATM    4  C   UNL     1     -41.392  54.683 -50.086  1.00  0.00     0.221 C 
HETATM    5  C   UNL     1     -41.344  56.216 -49.949  1.00  0.00     0.068 C 
HETATM    6  C   UNL     1     -42.195  56.879 -51.037  1.00  0.00     0.143 C 
HETATM    7  N   UNL     1     -41.698  56.458 -52.360  1.00  0.00    -0.363 N 
HETATM    8  N   UNL     1     -41.110  53.006 -51.831  1.00  0.00    -0.181 NA
HETATM    9  C   UNL     1     -41.065  53.054 -53.164  1.00  0.00     0.160 C 
HETATM   10  H   UNL     1     -42.222  56.926 -53.104  1.00  0.00     0.162 HD
ENDROOT
BRANCH   1  11
HETATM   11  C   UNL     1     -41.206  54.753 -55.078  1.00  0.00     0.261 C 
HETATM   12  N   UNL     1     -42.164  55.699 -55.385  1.00  0.00    -0.323 N 
HETATM   13  H   UNL     1     -42.657  56.091 -54.590  1.00  0.00     0.169 HD
HETATM   14  O   UNL     1     -40.391  54.270 -55.855  1.00  0.00    -0.267 OA
BRANCH  12  15
HETATM   15  C   UNL     1     -42.488  56.227 -56.650  1.00  0.00     0.035 A 
HETATM   16  C   UNL     1     -42.934  55.454 -57.726  1.00  0.00     0.039 A 
HETATM   17  C   UNL     1     -43.262  56.043 -58.961  1.00  0.00    -0.028 A 
HETATM   18  C   UNL     1     -43.145  57.432 -59.097  1.00  0.00     0.010 A 
HETATM   19  C   UNL     1     -42.698  58.211 -58.032  1.00  0.00     0.003 A 
HETATM   20  C   UNL     1     -42.373  57.612 -56.815  1.00  0.00     0.029 A 
BRANCH  17  21
HETATM   21  C   UNL     1     -43.768  55.169 -60.090  1.00  0.00     0.147 C 
HETATM   22  C   UNL     1     -44.759  54.127 -59.586  1.00  0.00     0.044 C 
BRANCH  21  23
HETATM   23  O   UNL     1     -44.402  55.962 -61.093  1.00  0.00    -0.391 OA
HETATM   24  H   UNL     1     -44.659  55.358 -61.808  1.00  0.00     0.210 HD
ENDBRANCH  21  23
ENDBRANCH  17  21
ENDBRANCH  12  15
ENDBRANCH   1  11
BRANCH   4  25
HETATM   25  C   UNL     1     -40.340  54.061 -49.194  1.00  0.00     0.409 C 
HETATM   26  F   UNL     1     -40.466  52.717 -49.111  1.00  0.00    -0.169 F 
HETATM   27  F   UNL     1     -39.104  54.301 -49.715  1.00  0.00    -0.169 F 
HETATM   28  F   UNL     1     -40.321  54.564 -47.944  1.00  0.00    -0.169 F 
ENDBRANCH   4  25
BRANCH   6  29
HETATM   29  C   UNL     1     -42.183  58.364 -50.859  1.00  0.00     0.075 A 
HETATM   30  O   UNL     1     -41.052  58.902 -50.317  1.00  0.00    -0.325 OA
HETATM   31  C   UNL     1     -41.242  60.244 -50.252  1.00  0.00     0.142 A 
HETATM   32  C   UNL     1     -42.482  60.579 -50.746  1.00  0.00     0.027 A 
HETATM   33  C   UNL     1     -43.092  59.364 -51.138  1.00  0.00     0.037 A 
ENDBRANCH   6  29
TORSDOF 6
ENDMDL
MODEL 10
REMARK VINA RESULT:      -8.0      3.187      5.693
REMARK  6 active torsions:
REMARK  status: ('A' for Active; 'I' for Inactive)
REMARK    1  A    between atoms: C_2  and  O_3 
REMARK    2  A    between atoms: C_2  and  C_4 
REMARK    3  A    between atoms: C_6  and  N_7 
REMARK       I    between atoms: N_7  and  C_8 
REMARK    4  A    between atoms: C_8  and  C_9 
REMARK    5  A    between atoms: C_12  and  C_13 
REMARK    6  A    between atoms: C_18  and  C_19 
ROOT
HETATM    1  C   UNL     1     -42.793  56.282 -56.108  1.00  0.00     0.096 C 
HETATM    2  C   UNL     1     -42.400  56.289 -54.782  1.00  0.00     0.138 C 
HETATM    3  N   UNL     1     -42.183  54.972 -54.446  1.00  0.00    -0.240 N 
HETATM    4  C   UNL     1     -41.810  54.514 -53.120  1.00  0.00     0.221 C 
HETATM    5  C   UNL     1     -41.274  55.687 -52.279  1.00  0.00     0.068 C 
HETATM    6  C   UNL     1     -42.172  56.918 -52.439  1.00  0.00     0.143 C 
HETATM    7  N   UNL     1     -42.235  57.285 -53.866  1.00  0.00    -0.363 N 
HETATM    8  N   UNL     1     -42.563  54.111 -55.402  1.00  0.00    -0.181 NA
HETATM    9  C   UNL     1     -42.901  54.905 -56.421  1.00  0.00     0.160 C 
HETATM   10  H   UNL     1     -42.792  58.135 -53.992  1.00  0.00     0.162 HD
ENDROOT
BRANCH   1  11
HETATM   11  C   UNL     1     -43.091  57.396 -56.995  1.00  0.00     0.261 C 
HETATM   12  N   UNL     1     -42.054  57.705 -57.852  1.00  0.00    -0.323 N 
HETATM   13  H   UNL     1     -41.276  57.055 -57.844  1.00  0.00     0.169 HD
HETATM   14  O   UNL     1     -44.185  57.945 -56.956  1.00  0.00    -0.267 OA
BRANCH  12  15
HETATM   15  C   UNL     1     -41.977  58.769 -58.773  1.00  0.00     0.035 A 
HETATM   16  C   UNL     1     -41.695  60.090 -58.416  1.00  0.00     0.039 A 
HETATM   17  C   UNL     1     -41.611  61.106 -59.387  1.00  0.00    -0.028 A 
HETATM   18  C   UNL     1     -41.806  60.769 -60.732  1.00  0.00     0.010 A 
HETATM   19  C   UNL     1     -42.091  59.455 -61.098  1.00  0.00     0.003 A 
HETATM   20  C   UNL     1     -42.175  58.460 -60.124  1.00  0.00     0.029 A 
BRANCH  17  21
HETATM   21  C   UNL     1     -41.276  62.518 -58.956  1.00  0.00     0.147 C 
HETATM   22  C   UNL     1     -42.534  63.362 -58.787  1.00  0.00     0.044 C 
BRANCH  21  23
HETATM   23  O   UNL     1     -40.557  62.509 -57.723  1.00  0.00    -0.391 OA
HETATM   24  H   UNL     1     -41.144  62.117 -57.057  1.00  0.00     0.210 HD
ENDBRANCH  21  23
ENDBRANCH  17  21
ENDBRANCH  12  15
ENDBRANCH   1  11
BRANCH   4  25
HETATM   25  C   UNL     1     -40.775  53.412 -53.171  1.00  0.00     0.409 C 
HETATM   26  F   UNL     1     -39.814  53.652 -54.091  1.00  0.00    -0.169 F 
HETATM   27  F   UNL     1     -40.144  53.327 -51.967  1.00  0.00    -0.169 F 
HETATM   28  F   UNL     1     -41.294  52.190 -53.407  1.00  0.00    -0.169 F 
ENDBRANCH   4  25
BRANCH   6  29
HETATM   29  C   UNL     1     -41.671  58.031 -51.575  1.00  0.00     0.075 A 
HETATM   30  O   UNL     1     -42.516  59.087 -51.395  1.00  0.00    -0.325 OA
HETATM   31  C   UNL     1     -41.880  59.970 -50.582  1.00  0.00     0.142 A 
HETATM   32  C   UNL     1     -40.637  59.495 -50.234  1.00  0.00     0.027 A 
HETATM   33  C   UNL     1     -40.500  58.241 -50.876  1.00  0.00     0.037 A 
ENDBRANCH   6  29
TORSDOF 6
ENDMDL
