MODEL 1
REMARK VINA RESULT:      -8.0      0.000      0.000
REMARK  8 active torsions:
REMARK  status: ('A' for Active; 'I' for Inactive)
REMARK    1  A    between atoms: C_2  and  C_3 
REMARK    2  A    between atoms: C_3  and  C_4 
REMARK       I    between atoms: C_4  and  N_5 
REMARK    3  A    between atoms: N_8  and  C_9 
REMARK    4  A    between atoms: C_13  and  N_14 
REMARK    5  A    between atoms: N_14  and  C_15 
REMARK    6  A    between atoms: C_15  and  N_16 
REMARK       I    between atoms: N_16  and  C_17 
REMARK    7  A    between atoms: C_17  and  C_18 
REMARK    8  A    between atoms: C_19  and  O_20 
ROOT
HETATM    1  C   UNL     1     -44.888  57.486 -58.295  1.00  0.00     0.052 A 
HETATM    2  C   UNL     1     -43.652  56.794 -58.285  1.00  0.00     0.062 A 
HETATM    3 CL   UNL     1     -43.117  55.840 -59.635  1.00  0.00    -0.082 Cl
HETATM    4  C   UNL     1     -42.835  56.754 -57.140  1.00  0.00     0.055 A 
HETATM    5  C   UNL     1     -43.267  57.337 -55.952  1.00  0.00     0.036 A 
HETATM    6  C   UNL     1     -44.452  58.067 -55.955  1.00  0.00     0.032 A 
HETATM    7  C   UNL     1     -45.240  58.146 -57.107  1.00  0.00     0.033 A 
ENDROOT
BRANCH   5   8
HETATM    8  N   UNL     1     -42.474  57.202 -54.797  1.00  0.00    -0.333 N 
HETATM    9  H   UNL     1     -41.509  57.532 -54.856  1.00  0.00     0.168 HD
BRANCH   8  10
HETATM   10  C   UNL     1     -42.737  56.455 -53.671  1.00  0.00     0.179 C 
HETATM   11  S   UNL     1     -43.603  56.903 -52.307  1.00  0.00    -0.040 SA
BRANCH  10  12
HETATM   12  N   UNL     1     -42.232  55.174 -53.678  1.00  0.00    -0.299 N 
HETATM   13  C   UNL     1     -40.974  54.733 -54.053  1.00  0.00     0.260 C 
HETATM   14  O   UNL     1     -40.273  55.336 -54.862  1.00  0.00    -0.267 OA
HETATM   15  H   UNL     1     -42.794  54.529 -53.133  1.00  0.00     0.171 HD
BRANCH  13  16
HETATM   16  C   UNL     1     -40.515  53.433 -53.455  1.00  0.00     0.065 A 
HETATM   17  C   UNL     1     -40.238  53.245 -52.086  1.00  0.00     0.084 A 
HETATM   18  C   UNL     1     -39.803  51.996 -51.623  1.00  0.00     0.038 A 
HETATM   19  C   UNL     1     -39.595  50.947 -52.516  1.00  0.00     0.003 A 
HETATM   20  C   UNL     1     -39.839  51.131 -53.874  1.00  0.00     0.001 A 
HETATM   21  C   UNL     1     -40.300  52.364 -54.341  1.00  0.00     0.020 A 
BRANCH  17  22
HETATM   22  O   UNL     1     -40.472  54.266 -51.197  1.00  0.00    -0.355 OA
HETATM   23  C   UNL     1     -39.887  54.045 -49.910  1.00  0.00     0.210 C 
ENDBRANCH  17  22
ENDBRANCH  13  16
ENDBRANCH  10  12
ENDBRANCH   8  10
ENDBRANCH   5   8
BRANCH   1  24
HETATM   24  N   UNL     1     -45.760  57.463 -59.395  1.00  0.00    -0.376 N 
HETATM   25  C   UNL     1     -46.716  58.585 -59.501  1.00  0.00     0.143 C 
HETATM   26  C   UNL     1     -47.227  58.687 -60.955  1.00  0.00     0.145 C 
HETATM   27  N   UNL     1     -47.748  57.413 -61.481  1.00  0.00    -0.349 N 
HETATM   28  C   UNL     1     -48.580  57.322 -62.595  1.00  0.00     0.219 C 
HETATM   29  C   UNL     1     -46.925  56.231 -61.193  1.00  0.00     0.145 C 
HETATM   30  O   UNL     1     -48.844  56.239 -63.120  1.00  0.00    -0.273 OA
HETATM   31  C   UNL     1     -46.394  56.177 -59.755  1.00  0.00     0.143 C 
BRANCH  28  32
HETATM   32  C   UNL     1     -49.154  58.623 -63.137  1.00  0.00     0.103 C 
BRANCH  32  33
HETATM   33  C   UNL     1     -50.635  58.779 -62.788  1.00  0.00     0.005 C 
HETATM   34  C   UNL     1     -50.849  59.818 -61.700  1.00  0.00     0.005 C 
ENDBRANCH  32  33
ENDBRANCH  28  32
ENDBRANCH   1  24
TORSDOF 8
ENDMDL
MODEL 2
REMARK VINA RESULT:      -8.0      7.492     11.387
REMARK  8 active torsions:
REMARK  status: ('A' for Active; 'I' for Inactive)
REMARK    1  A    between atoms: C_2  and  C_3 
REMARK    2  A    between atoms: C_3  and  C_4 
REMARK       I    between atoms: C_4  and  N_5 
REMARK    3  A    between atoms: N_8  and  C_9 
REMARK    4  A    between atoms: C_13  and  N_14 
REMARK    5  A    between atoms: N_14  and  C_15 
REMARK    6  A    between atoms: C_15  and  N_16 
REMARK       I    between atoms: N_16  and  C_17 
REMARK    7  A    between atoms: C_17  and  C_18 
REMARK    8  A    between atoms: C_19  and  O_20 
ROOT
HETATM    1  C   UNL     1     -42.227  58.049 -51.390  1.00  0.00     0.052 A 
HETATM    2  C   UNL     1     -41.437  59.173 -51.043  1.00  0.00     0.062 A 
HETATM    3 CL   UNL     1     -39.731  59.042 -50.738  1.00  0.00    -0.082 Cl
HETATM    4  C   UNL     1     -42.007  60.440 -50.823  1.00  0.00     0.055 A 
HETATM    5  C   UNL     1     -43.389  60.602 -50.866  1.00  0.00     0.036 A 
HETATM    6  C   UNL     1     -44.179  59.525 -51.257  1.00  0.00     0.032 A 
HETATM    7  C   UNL     1     -43.607  58.278 -51.522  1.00  0.00     0.033 A 
ENDROOT
BRANCH   5   8
HETATM    8  N   UNL     1     -43.940  61.859 -50.550  1.00  0.00    -0.333 N 
HETATM    9  H   UNL     1     -43.285  62.628 -50.404  1.00  0.00     0.168 HD
BRANCH   8  10
HETATM   10  C   UNL     1     -45.228  62.146 -50.159  1.00  0.00     0.179 C 
HETATM   11  S   UNL     1     -46.600  62.270 -51.115  1.00  0.00    -0.040 SA
BRANCH  10  12
HETATM   12  N   UNL     1     -45.408  62.342 -48.808  1.00  0.00    -0.299 N 
HETATM   13  C   UNL     1     -45.540  61.401 -47.799  1.00  0.00     0.260 C 
HETATM   14  O   UNL     1     -45.974  60.269 -48.000  1.00  0.00    -0.267 OA
HETATM   15  H   UNL     1     -45.195  63.290 -48.518  1.00  0.00     0.171 HD
BRANCH  13  16
HETATM   16  C   UNL     1     -45.169  61.850 -46.414  1.00  0.00     0.065 A 
HETATM   17  C   UNL     1     -45.393  63.149 -45.915  1.00  0.00     0.084 A 
HETATM   18  C   UNL     1     -45.001  63.477 -44.610  1.00  0.00     0.038 A 
HETATM   19  C   UNL     1     -44.345  62.539 -43.815  1.00  0.00     0.003 A 
HETATM   20  C   UNL     1     -44.093  61.262 -44.309  1.00  0.00     0.001 A 
HETATM   21  C   UNL     1     -44.505  60.918 -45.598  1.00  0.00     0.020 A 
BRANCH  17  22
HETATM   22  O   UNL     1     -46.068  64.066 -46.682  1.00  0.00    -0.355 OA
HETATM   23  C   UNL     1     -47.461  64.156 -46.369  1.00  0.00     0.210 C 
ENDBRANCH  17  22
ENDBRANCH  13  16
ENDBRANCH  10  12
ENDBRANCH   8  10
ENDBRANCH   5   8
BRANCH   1  24
HETATM   24  N   UNL     1     -41.692  56.759 -51.525  1.00  0.00    -0.376 N 
HETATM   25  C   UNL     1     -42.068  56.014 -52.744  1.00  0.00     0.143 C 
HETATM   26  C   UNL     1     -41.048  54.881 -52.988  1.00  0.00     0.145 C 
HETATM   27  N   UNL     1     -40.840  54.020 -51.809  1.00  0.00    -0.349 N 
HETATM   28  C   UNL     1     -40.273  52.750 -51.873  1.00  0.00     0.219 C 
HETATM   29  C   UNL     1     -40.687  54.730 -50.532  1.00  0.00     0.145 C 
HETATM   30  O   UNL     1     -39.940  52.136 -50.857  1.00  0.00    -0.273 OA
HETATM   31  C   UNL     1     -41.684  55.880 -50.336  1.00  0.00     0.143 C 
BRANCH  28  32
HETATM   32  C   UNL     1     -40.082  52.147 -53.257  1.00  0.00     0.103 C 
BRANCH  32  33
HETATM   33  C   UNL     1     -39.632  50.687 -53.183  1.00  0.00     0.005 C 
HETATM   34  C   UNL     1     -39.751  49.994 -54.530  1.00  0.00     0.005 C 
ENDBRANCH  32  33
ENDBRANCH  28  32
ENDBRANCH   1  24
TORSDOF 8
ENDMDL
MODEL 3
REMARK VINA RESULT:      -7.7      2.897      9.739
REMARK  8 active torsions:
REMARK  status: ('A' for Active; 'I' for Inactive)
REMARK    1  A    between atoms: C_2  and  C_3 
REMARK    2  A    between atoms: C_3  and  C_4 
REMARK       I    between atoms: C_4  and  N_5 
REMARK    3  A    between atoms: N_8  and  C_9 
REMARK    4  A    between atoms: C_13  and  N_14 
REMARK    5  A    between atoms: N_14  and  C_15 
REMARK    6  A    between atoms: C_15  and  N_16 
REMARK       I    between atoms: N_16  and  C_17 
REMARK    7  A    between atoms: C_17  and  C_18 
REMARK    8  A    between atoms: C_19  and  O_20 
ROOT
HETATM    1  C   UNL     1     -43.010  56.497 -53.950  1.00  0.00     0.052 A 
HETATM    2  C   UNL     1     -42.517  57.811 -54.144  1.00  0.00     0.062 A 
HETATM    3 CL   UNL     1     -40.913  58.275 -53.660  1.00  0.00    -0.082 Cl
HETATM    4  C   UNL     1     -43.333  58.843 -54.643  1.00  0.00     0.055 A 
HETATM    5  C   UNL     1     -44.683  58.609 -54.888  1.00  0.00     0.036 A 
HETATM    6  C   UNL     1     -45.175  57.315 -54.755  1.00  0.00     0.032 A 
HETATM    7  C   UNL     1     -44.351  56.280 -54.304  1.00  0.00     0.033 A 
ENDROOT
BRANCH   5   8
HETATM    8  N   UNL     1     -45.498  59.682 -55.298  1.00  0.00    -0.333 N 
HETATM    9  H   UNL     1     -46.056  60.141 -54.577  1.00  0.00     0.168 HD
BRANCH   8  10
HETATM   10  C   UNL     1     -45.843  60.044 -56.580  1.00  0.00     0.179 C 
HETATM   11  S   UNL     1     -46.363  61.538 -57.134  1.00  0.00    -0.040 SA
BRANCH  10  12
HETATM   12  N   UNL     1     -45.731  59.049 -57.527  1.00  0.00    -0.299 N 
HETATM   13  C   UNL     1     -44.655  58.737 -58.342  1.00  0.00     0.260 C 
HETATM   14  O   UNL     1     -43.813  59.567 -58.677  1.00  0.00    -0.267 OA
HETATM   15  H   UNL     1     -46.453  58.343 -57.439  1.00  0.00     0.171 HD
BRANCH  13  16
HETATM   16  C   UNL     1     -44.589  57.325 -58.850  1.00  0.00     0.065 A 
HETATM   17  C   UNL     1     -45.518  56.762 -59.749  1.00  0.00     0.084 A 
HETATM   18  C   UNL     1     -45.379  55.429 -60.158  1.00  0.00     0.038 A 
HETATM   19  C   UNL     1     -44.354  54.637 -59.644  1.00  0.00     0.003 A 
HETATM   20  C   UNL     1     -43.449  55.175 -58.734  1.00  0.00     0.001 A 
HETATM   21  C   UNL     1     -43.563  56.511 -58.342  1.00  0.00     0.020 A 
BRANCH  17  22
HETATM   22  O   UNL     1     -46.510  57.546 -60.284  1.00  0.00    -0.355 OA
HETATM   23  C   UNL     1     -47.475  56.808 -61.040  1.00  0.00     0.210 C 
ENDBRANCH  17  22
ENDBRANCH  13  16
ENDBRANCH  10  12
ENDBRANCH   8  10
ENDBRANCH   5   8
BRANCH   1  24
HETATM   24  N   UNL     1     -42.241  55.478 -53.370  1.00  0.00    -0.376 N 
HETATM   25  C   UNL     1     -41.810  54.385 -54.266  1.00  0.00     0.143 C 
HETATM   26  C   UNL     1     -40.607  53.649 -53.638  1.00  0.00     0.145 C 
HETATM   27  N   UNL     1     -40.850  53.214 -52.250  1.00  0.00    -0.349 N 
HETATM   28  C   UNL     1     -40.093  52.239 -51.605  1.00  0.00     0.219 C 
HETATM   29  C   UNL     1     -41.491  54.212 -51.383  1.00  0.00     0.145 C 
HETATM   30  O   UNL     1     -40.197  52.034 -50.394  1.00  0.00    -0.273 OA
HETATM   31  C   UNL     1     -42.654  54.960 -52.047  1.00  0.00     0.143 C 
BRANCH  28  32
HETATM   32  C   UNL     1     -39.129  51.433 -52.461  1.00  0.00     0.103 C 
BRANCH  32  33
HETATM   33  C   UNL     1     -39.728  50.089 -52.878  1.00  0.00     0.005 C 
HETATM   34  C   UNL     1     -39.847  49.970 -54.388  1.00  0.00     0.005 C 
ENDBRANCH  32  33
ENDBRANCH  28  32
ENDBRANCH   1  24
TORSDOF 8
ENDMDL
MODEL 4
REMARK VINA RESULT:      -7.6      1.489      1.935
REMARK  8 active torsions:
REMARK  status: ('A' for Active; 'I' for Inactive)
REMARK    1  A    between atoms: C_2  and  C_3 
REMARK    2  A    between atoms: C_3  and  C_4 
REMARK       I    between atoms: C_4  and  N_5 
REMARK    3  A    between atoms: N_8  and  C_9 
REMARK    4  A    between atoms: C_13  and  N_14 
REMARK    5  A    between atoms: N_14  and  C_15 
REMARK    6  A    between atoms: C_15  and  N_16 
REMARK       I    between atoms: N_16  and  C_17 
REMARK    7  A    between atoms: C_17  and  C_18 
REMARK    8  A    between atoms: C_19  and  O_20 
ROOT
HETATM    1  C   UNL     1     -43.959  57.957 -57.699  1.00  0.00     0.052 A 
HETATM    2  C   UNL     1     -43.159  56.802 -57.883  1.00  0.00     0.062 A 
HETATM    3 CL   UNL     1     -43.211  55.869 -59.349  1.00  0.00    -0.082 Cl
HETATM    4  C   UNL     1     -42.356  56.284 -56.851  1.00  0.00     0.055 A 
HETATM    5  C   UNL     1     -42.389  56.861 -55.584  1.00  0.00     0.036 A 
HETATM    6  C   UNL     1     -43.126  58.026 -55.396  1.00  0.00     0.032 A 
HETATM    7  C   UNL     1     -43.887  58.567 -56.436  1.00  0.00     0.033 A 
ENDROOT
BRANCH   5   8
HETATM    8  N   UNL     1     -41.648  56.267 -54.545  1.00  0.00    -0.333 N 
HETATM    9  H   UNL     1     -40.632  56.251 -54.650  1.00  0.00     0.168 HD
BRANCH   8  10
HETATM   10  C   UNL     1     -42.111  55.476 -53.518  1.00  0.00     0.179 C 
HETATM   11  S   UNL     1     -43.070  55.920 -52.217  1.00  0.00    -0.040 SA
BRANCH  10  12
HETATM   12  N   UNL     1     -41.748  54.149 -53.582  1.00  0.00    -0.299 N 
HETATM   13  C   UNL     1     -40.575  53.587 -54.060  1.00  0.00     0.260 C 
HETATM   14  O   UNL     1     -39.877  54.131 -54.912  1.00  0.00    -0.267 OA
HETATM   15  H   UNL     1     -42.332  53.555 -53.004  1.00  0.00     0.171 HD
BRANCH  13  16
HETATM   16  C   UNL     1     -40.213  52.233 -53.517  1.00  0.00     0.065 A 
HETATM   17  C   UNL     1     -39.760  52.002 -52.202  1.00  0.00     0.084 A 
HETATM   18  C   UNL     1     -39.435  50.703 -51.790  1.00  0.00     0.038 A 
HETATM   19  C   UNL     1     -39.510  49.640 -52.687  1.00  0.00     0.003 A 
HETATM   20  C   UNL     1     -39.928  49.862 -53.996  1.00  0.00     0.001 A 
HETATM   21  C   UNL     1     -40.282  51.149 -54.407  1.00  0.00     0.020 A 
BRANCH  17  22
HETATM   22  O   UNL     1     -39.715  53.041 -51.305  1.00  0.00    -0.355 OA
HETATM   23  C   UNL     1     -40.730  52.968 -50.299  1.00  0.00     0.210 C 
ENDBRANCH  17  22
ENDBRANCH  13  16
ENDBRANCH  10  12
ENDBRANCH   8  10
ENDBRANCH   5   8
BRANCH   1  24
HETATM   24  N   UNL     1     -44.836  58.437 -58.684  1.00  0.00    -0.376 N 
HETATM   25  C   UNL     1     -45.967  57.557 -59.044  1.00  0.00     0.143 C 
HETATM   26  C   UNL     1     -47.071  58.395 -59.726  1.00  0.00     0.145 C 
HETATM   27  N   UNL     1     -46.574  59.210 -60.850  1.00  0.00    -0.349 N 
HETATM   28  C   UNL     1     -47.400  59.751 -61.833  1.00  0.00     0.219 C 
HETATM   29  C   UNL     1     -45.317  59.926 -60.598  1.00  0.00     0.145 C 
HETATM   30  O   UNL     1     -46.983  60.578 -62.646  1.00  0.00    -0.273 OA
HETATM   31  C   UNL     1     -44.254  59.085 -59.879  1.00  0.00     0.143 C 
BRANCH  28  32
HETATM   32  C   UNL     1     -48.844  59.273 -61.863  1.00  0.00     0.103 C 
BRANCH  32  33
HETATM   33  C   UNL     1     -49.076  58.236 -62.962  1.00  0.00     0.005 C 
HETATM   34  C   UNL     1     -48.923  56.818 -62.438  1.00  0.00     0.005 C 
ENDBRANCH  32  33
ENDBRANCH  28  32
ENDBRANCH   1  24
TORSDOF 8
ENDMDL
MODEL 5
REMARK VINA RESULT:      -7.4      4.179      5.185
REMARK  8 active torsions:
REMARK  status: ('A' for Active; 'I' for Inactive)
REMARK    1  A    between atoms: C_2  and  C_3 
REMARK    2  A    between atoms: C_3  and  C_4 
REMARK       I    between atoms: C_4  and  N_5 
REMARK    3  A    between atoms: N_8  and  C_9 
REMARK    4  A    between atoms: C_13  and  N_14 
REMARK    5  A    between atoms: N_14  and  C_15 
REMARK    6  A    between atoms: C_15  and  N_16 
REMARK       I    between atoms: N_16  and  C_17 
REMARK    7  A    between atoms: C_17  and  C_18 
REMARK    8  A    between atoms: C_19  and  O_20 
ROOT
HETATM    1  C   UNL     1     -42.378  58.608 -58.062  1.00  0.00     0.052 A 
HETATM    2  C   UNL     1     -42.453  57.228 -58.374  1.00  0.00     0.062 A 
HETATM    3 CL   UNL     1     -42.193  56.632 -59.986  1.00  0.00    -0.082 Cl
HETATM    4  C   UNL     1     -42.846  56.272 -57.419  1.00  0.00     0.055 A 
HETATM    5  C   UNL     1     -43.248  56.677 -56.150  1.00  0.00     0.036 A 
HETATM    6  C   UNL     1     -43.132  58.020 -55.805  1.00  0.00     0.032 A 
HETATM    7  C   UNL     1     -42.696  58.963 -56.741  1.00  0.00     0.033 A 
ENDROOT
BRANCH   5   8
HETATM    8  N   UNL     1     -43.725  55.710 -55.244  1.00  0.00    -0.333 N 
HETATM    9  H   UNL     1     -44.647  55.313 -55.433  1.00  0.00     0.168 HD
BRANCH   8  10
HETATM   10  C   UNL     1     -43.234  55.402 -53.996  1.00  0.00     0.179 C 
HETATM   11  S   UNL     1     -43.325  56.312 -52.591  1.00  0.00    -0.040 SA
BRANCH  10  12
HETATM   12  N   UNL     1     -42.600  54.184 -53.892  1.00  0.00    -0.299 N 
HETATM   13  C   UNL     1     -41.357  53.803 -54.370  1.00  0.00     0.260 C 
HETATM   14  O   UNL     1     -40.828  54.334 -55.343  1.00  0.00    -0.267 OA
HETATM   15  H   UNL     1     -43.019  53.583 -53.191  1.00  0.00     0.171 HD
BRANCH  13  16
HETATM   16  C   UNL     1     -40.692  52.655 -53.664  1.00  0.00     0.065 A 
HETATM   17  C   UNL     1     -40.229  52.705 -52.333  1.00  0.00     0.084 A 
HETATM   18  C   UNL     1     -39.610  51.584 -51.763  1.00  0.00     0.038 A 
HETATM   19  C   UNL     1     -39.405  50.432 -52.520  1.00  0.00     0.003 A 
HETATM   20  C   UNL     1     -39.833  50.383 -53.843  1.00  0.00     0.001 A 
HETATM   21  C   UNL     1     -40.476  51.485 -54.411  1.00  0.00     0.020 A 
BRANCH  17  22
HETATM   22  O   UNL     1     -40.458  53.826 -51.574  1.00  0.00    -0.355 OA
HETATM   23  C   UNL     1     -40.132  53.653 -50.191  1.00  0.00     0.210 C 
ENDBRANCH  17  22
ENDBRANCH  13  16
ENDBRANCH  10  12
ENDBRANCH   8  10
ENDBRANCH   5   8
BRANCH   1  24
HETATM   24  N   UNL     1     -42.077  59.586 -59.021  1.00  0.00    -0.376 N 
HETATM   25  C   UNL     1     -41.925  60.970 -58.525  1.00  0.00     0.143 C 
HETATM   26  C   UNL     1     -41.131  61.800 -59.557  1.00  0.00     0.145 C 
HETATM   27  N   UNL     1     -41.683  61.718 -60.921  1.00  0.00    -0.349 N 
HETATM   28  C   UNL     1     -41.386  62.633 -61.928  1.00  0.00     0.219 C 
HETATM   29  C   UNL     1     -42.059  60.370 -61.366  1.00  0.00     0.145 C 
HETATM   30  O   UNL     1     -41.709  62.434 -63.101  1.00  0.00    -0.273 OA
HETATM   31  C   UNL     1     -42.808  59.550 -60.306  1.00  0.00     0.143 C 
BRANCH  28  32
HETATM   32  C   UNL     1     -40.646  63.897 -61.518  1.00  0.00     0.103 C 
BRANCH  32  33
HETATM   33  C   UNL     1     -39.275  63.994 -62.188  1.00  0.00     0.005 C 
HETATM   34  C   UNL     1     -38.154  64.081 -61.166  1.00  0.00     0.005 C 
ENDBRANCH  32  33
ENDBRANCH  28  32
ENDBRANCH   1  24
TORSDOF 8
ENDMDL
MODEL 6
REMARK VINA RESULT:      -7.3      6.060      8.906
REMARK  8 active torsions:
REMARK  status: ('A' for Active; 'I' for Inactive)
REMARK    1  A    between atoms: C_2  and  C_3 
REMARK    2  A    between atoms: C_3  and  C_4 
REMARK       I    between atoms: C_4  and  N_5 
REMARK    3  A    between atoms: N_8  and  C_9 
REMARK    4  A    between atoms: C_13  and  N_14 
REMARK    5  A    between atoms: N_14  and  C_15 
REMARK    6  A    between atoms: C_15  and  N_16 
REMARK       I    between atoms: N_16  and  C_17 
REMARK    7  A    between atoms: C_17  and  C_18 
REMARK    8  A    between atoms: C_19  and  O_20 
ROOT
HETATM    1  C   UNL     1     -43.814  59.542 -51.543  1.00  0.00     0.052 A 
HETATM    2  C   UNL     1     -42.430  59.272 -51.403  1.00  0.00     0.062 A 
HETATM    3 CL   UNL     1     -41.458  60.043 -50.186  1.00  0.00    -0.082 Cl
HETATM    4  C   UNL     1     -41.741  58.445 -52.309  1.00  0.00     0.055 A 
HETATM    5  C   UNL     1     -42.399  57.928 -53.422  1.00  0.00     0.036 A 
HETATM    6  C   UNL     1     -43.768  58.136 -53.550  1.00  0.00     0.032 A 
HETATM    7  C   UNL     1     -44.462  58.920 -52.622  1.00  0.00     0.033 A 
ENDROOT
BRANCH   5   8
HETATM    8  N   UNL     1     -41.664  57.181 -54.362  1.00  0.00    -0.333 N 
HETATM    9  H   UNL     1     -40.830  57.621 -54.754  1.00  0.00     0.168 HD
BRANCH   8  10
HETATM   10  C   UNL     1     -42.048  56.035 -55.022  1.00  0.00     0.179 C 
HETATM   11  S   UNL     1     -42.779  55.897 -56.524  1.00  0.00    -0.040 SA
BRANCH  10  12
HETATM   12  N   UNL     1     -41.782  54.855 -54.364  1.00  0.00    -0.299 N 
HETATM   13  C   UNL     1     -40.620  54.101 -54.357  1.00  0.00     0.260 C 
HETATM   14  O   UNL     1     -39.813  54.117 -55.284  1.00  0.00    -0.267 OA
HETATM   15  H   UNL     1     -42.456  54.654 -53.633  1.00  0.00     0.171 HD
BRANCH  13  16
HETATM   16  C   UNL     1     -40.407  53.209 -53.167  1.00  0.00     0.065 A 
HETATM   17  C   UNL     1     -40.654  53.594 -51.834  1.00  0.00     0.084 A 
HETATM   18  C   UNL     1     -40.415  52.694 -50.787  1.00  0.00     0.038 A 
HETATM   19  C   UNL     1     -39.887  51.431 -51.051  1.00  0.00     0.003 A 
HETATM   20  C   UNL     1     -39.614  51.052 -52.362  1.00  0.00     0.001 A 
HETATM   21  C   UNL     1     -39.875  51.932 -53.414  1.00  0.00     0.020 A 
BRANCH  17  22
HETATM   22  O   UNL     1     -41.204  54.825 -51.571  1.00  0.00    -0.355 OA
HETATM   23  C   UNL     1     -40.746  55.404 -50.346  1.00  0.00     0.210 C 
ENDBRANCH  17  22
ENDBRANCH  13  16
ENDBRANCH  10  12
ENDBRANCH   8  10
ENDBRANCH   5   8
BRANCH   1  24
HETATM   24  N   UNL     1     -44.500  60.435 -50.706  1.00  0.00    -0.376 N 
HETATM   25  C   UNL     1     -45.413  59.835 -49.709  1.00  0.00     0.143 C 
HETATM   26  C   UNL     1     -45.685  60.856 -48.583  1.00  0.00     0.145 C 
HETATM   27  N   UNL     1     -46.133  62.169 -49.082  1.00  0.00    -0.349 N 
HETATM   28  C   UNL     1     -46.779  63.114 -48.288  1.00  0.00     0.219 C 
HETATM   29  C   UNL     1     -45.382  62.695 -50.229  1.00  0.00     0.145 C 
HETATM   30  O   UNL     1     -46.970  64.267 -48.681  1.00  0.00    -0.273 OA
HETATM   31  C   UNL     1     -45.086  61.649 -51.312  1.00  0.00     0.143 C 
BRANCH  28  32
HETATM   32  C   UNL     1     -47.242  62.662 -46.912  1.00  0.00     0.103 C 
BRANCH  32  33
HETATM   33  C   UNL     1     -46.634  63.516 -45.799  1.00  0.00     0.005 C 
HETATM   34  C   UNL     1     -45.145  63.254 -45.639  1.00  0.00     0.005 C 
ENDBRANCH  32  33
ENDBRANCH  28  32
ENDBRANCH   1  24
TORSDOF 8
ENDMDL
MODEL 7
REMARK VINA RESULT:      -7.2      6.618     10.822
REMARK  8 active torsions:
REMARK  status: ('A' for Active; 'I' for Inactive)
REMARK    1  A    between atoms: C_2  and  C_3 
REMARK    2  A    between atoms: C_3  and  C_4 
REMARK       I    between atoms: C_4  and  N_5 
REMARK    3  A    between atoms: N_8  and  C_9 
REMARK    4  A    between atoms: C_13  and  N_14 
REMARK    5  A    between atoms: N_14  and  C_15 
REMARK    6  A    between atoms: C_15  and  N_16 
REMARK       I    between atoms: N_16  and  C_17 
REMARK    7  A    between atoms: C_17  and  C_18 
REMARK    8  A    between atoms: C_19  and  O_20 
ROOT
HETATM    1  C   UNL     1     -42.649  57.430 -52.689  1.00  0.00     0.052 A 
HETATM    2  C   UNL     1     -42.000  58.689 -52.699  1.00  0.00     0.062 A 
HETATM    3 CL   UNL     1     -40.284  58.845 -52.470  1.00  0.00    -0.082 Cl
HETATM    4  C   UNL     1     -42.721  59.894 -52.789  1.00  0.00     0.055 A 
HETATM    5  C   UNL     1     -44.113  59.876 -52.794  1.00  0.00     0.036 A 
HETATM    6  C   UNL     1     -44.769  58.650 -52.838  1.00  0.00     0.032 A 
HETATM    7  C   UNL     1     -44.049  57.452 -52.796  1.00  0.00     0.033 A 
ENDROOT
BRANCH   5   8
HETATM    8  N   UNL     1     -44.811  61.099 -52.790  1.00  0.00    -0.333 N 
HETATM    9  H   UNL     1     -44.351  61.897 -53.231  1.00  0.00     0.168 HD
BRANCH   8  10
HETATM   10  C   UNL     1     -45.923  61.438 -52.053  1.00  0.00     0.179 C 
HETATM   11  S   UNL     1     -47.423  61.942 -52.609  1.00  0.00    -0.040 SA
BRANCH  10  12
HETATM   12  N   UNL     1     -45.784  61.336 -50.687  1.00  0.00    -0.299 N 
HETATM   13  C   UNL     1     -44.854  61.940 -49.857  1.00  0.00     0.260 C 
HETATM   14  O   UNL     1     -43.742  62.289 -50.247  1.00  0.00    -0.267 OA
HETATM   15  H   UNL     1     -46.603  60.942 -50.238  1.00  0.00     0.171 HD
BRANCH  13  16
HETATM   16  C   UNL     1     -45.252  62.109 -48.418  1.00  0.00     0.065 A 
HETATM   17  C   UNL     1     -46.129  63.109 -47.950  1.00  0.00     0.084 A 
HETATM   18  C   UNL     1     -46.433  63.193 -46.585  1.00  0.00     0.038 A 
HETATM   19  C   UNL     1     -45.835  62.324 -45.675  1.00  0.00     0.003 A 
HETATM   20  C   UNL     1     -44.946  61.351 -46.123  1.00  0.00     0.001 A 
HETATM   21  C   UNL     1     -44.659  61.241 -47.485  1.00  0.00     0.020 A 
BRANCH  17  22
HETATM   22  O   UNL     1     -46.745  63.947 -48.847  1.00  0.00    -0.355 OA
HETATM   23  C   UNL     1     -48.151  63.712 -48.972  1.00  0.00     0.210 C 
ENDBRANCH  17  22
ENDBRANCH  13  16
ENDBRANCH  10  12
ENDBRANCH   8  10
ENDBRANCH   5   8
BRANCH   1  24
HETATM   24  N   UNL     1     -41.957  56.223 -52.508  1.00  0.00    -0.376 N 
HETATM   25  C   UNL     1     -41.851  55.341 -53.690  1.00  0.00     0.143 C 
HETATM   26  C   UNL     1     -40.685  54.349 -53.486  1.00  0.00     0.145 C 
HETATM   27  N   UNL     1     -40.758  53.619 -52.207  1.00  0.00    -0.349 N 
HETATM   28  C   UNL     1     -40.060  52.440 -51.953  1.00  0.00     0.219 C 
HETATM   29  C   UNL     1     -41.089  54.438 -51.034  1.00  0.00     0.145 C 
HETATM   30  O   UNL     1     -39.992  51.959 -50.820  1.00  0.00    -0.273 OA
HETATM   31  C   UNL     1     -42.219  55.446 -51.277  1.00  0.00     0.143 C 
BRANCH  28  32
HETATM   32  C   UNL     1     -39.384  51.768 -53.137  1.00  0.00     0.103 C 
BRANCH  32  33
HETATM   33  C   UNL     1     -39.740  50.283 -53.226  1.00  0.00     0.005 C 
HETATM   34  C   UNL     1     -39.816  49.809 -54.668  1.00  0.00     0.005 C 
ENDBRANCH  32  33
ENDBRANCH  28  32
ENDBRANCH   1  24
TORSDOF 8
ENDMDL
MODEL 8
REMARK VINA RESULT:      -7.0      5.474     10.101
REMARK  8 active torsions:
REMARK  status: ('A' for Active; 'I' for Inactive)
REMARK    1  A    between atoms: C_2  and  C_3 
REMARK    2  A    between atoms: C_3  and  C_4 
REMARK       I    between atoms: C_4  and  N_5 
REMARK    3  A    between atoms: N_8  and  C_9 
REMARK    4  A    between atoms: C_13  and  N_14 
REMARK    5  A    between atoms: N_14  and  C_15 
REMARK    6  A    between atoms: C_15  and  N_16 
REMARK       I    between atoms: N_16  and  C_17 
REMARK    7  A    between atoms: C_17  and  C_18 
REMARK    8  A    between atoms: C_19  and  O_20 
ROOT
HETATM    1  C   UNL     1     -42.996  56.669 -53.641  1.00  0.00     0.052 A 
HETATM    2  C   UNL     1     -42.527  58.006 -53.637  1.00  0.00     0.062 A 
HETATM    3 CL   UNL     1     -40.959  58.431 -53.020  1.00  0.00    -0.082 Cl
HETATM    4  C   UNL     1     -43.345  59.079 -54.034  1.00  0.00     0.055 A 
HETATM    5  C   UNL     1     -44.677  58.855 -54.371  1.00  0.00     0.036 A 
HETATM    6  C   UNL     1     -45.143  57.546 -54.433  1.00  0.00     0.032 A 
HETATM    7  C   UNL     1     -44.315  56.475 -54.084  1.00  0.00     0.033 A 
ENDROOT
BRANCH   5   8
HETATM    8  N   UNL     1     -45.499  59.958 -54.674  1.00  0.00    -0.333 N 
HETATM    9  H   UNL     1     -46.313  59.781 -55.264  1.00  0.00     0.168 HD
BRANCH   8  10
HETATM   10  C   UNL     1     -45.224  61.295 -54.495  1.00  0.00     0.179 C 
HETATM   11  S   UNL     1     -44.882  62.449 -55.662  1.00  0.00    -0.040 SA
BRANCH  10  12
HETATM   12  N   UNL     1     -45.247  61.736 -53.191  1.00  0.00    -0.299 N 
HETATM   13  C   UNL     1     -46.165  61.459 -52.191  1.00  0.00     0.260 C 
HETATM   14  O   UNL     1     -47.333  61.158 -52.427  1.00  0.00    -0.267 OA
HETATM   15  H   UNL     1     -44.360  62.128 -52.894  1.00  0.00     0.171 HD
BRANCH  13  16
HETATM   16  C   UNL     1     -45.676  61.593 -50.777  1.00  0.00     0.065 A 
HETATM   17  C   UNL     1     -45.727  60.560 -49.819  1.00  0.00     0.084 A 
HETATM   18  C   UNL     1     -45.255  60.785 -48.519  1.00  0.00     0.038 A 
HETATM   19  C   UNL     1     -44.777  62.041 -48.150  1.00  0.00     0.003 A 
HETATM   20  C   UNL     1     -44.749  63.075 -49.081  1.00  0.00     0.001 A 
HETATM   21  C   UNL     1     -45.191  62.853 -50.386  1.00  0.00     0.020 A 
BRANCH  17  22
HETATM   22  O   UNL     1     -46.166  59.312 -50.187  1.00  0.00    -0.355 OA
HETATM   23  C   UNL     1     -45.143  58.496 -50.766  1.00  0.00     0.210 C 
ENDBRANCH  17  22
ENDBRANCH  13  16
ENDBRANCH  10  12
ENDBRANCH   8  10
ENDBRANCH   5   8
BRANCH   1  24
HETATM   24  N   UNL     1     -42.229  55.595 -53.164  1.00  0.00    -0.376 N 
HETATM   25  C   UNL     1     -41.832  54.576 -54.158  1.00  0.00     0.143 C 
HETATM   26  C   UNL     1     -40.626  53.776 -53.619  1.00  0.00     0.145 C 
HETATM   27  N   UNL     1     -40.846  53.230 -52.267  1.00  0.00    -0.349 N 
HETATM   28  C   UNL     1     -40.088  52.196 -51.722  1.00  0.00     0.219 C 
HETATM   29  C   UNL     1     -41.455  54.159 -51.306  1.00  0.00     0.145 C 
HETATM   30  O   UNL     1     -40.170  51.892 -50.530  1.00  0.00    -0.273 OA
HETATM   31  C   UNL     1     -42.621  54.974 -51.881  1.00  0.00     0.143 C 
BRANCH  28  32
HETATM   32  C   UNL     1     -39.153  51.453 -52.663  1.00  0.00     0.103 C 
BRANCH  32  33
HETATM   33  C   UNL     1     -39.688  50.064 -53.016  1.00  0.00     0.005 C 
HETATM   34  C   UNL     1     -40.038  49.954 -54.491  1.00  0.00     0.005 C 
ENDBRANCH  32  33
ENDBRANCH  28  32
ENDBRANCH   1  24
TORSDOF 8
ENDMDL
MODEL 9
REMARK VINA RESULT:      -7.0      3.164     10.015
REMARK  8 active torsions:
REMARK  status: ('A' for Active; 'I' for Inactive)
REMARK    1  A    between atoms: C_2  and  C_3 
REMARK    2  A    between atoms: C_3  and  C_4 
REMARK       I    between atoms: C_4  and  N_5 
REMARK    3  A    between atoms: N_8  and  C_9 
REMARK    4  A    between atoms: C_13  and  N_14 
REMARK    5  A    between atoms: N_14  and  C_15 
REMARK    6  A    between atoms: C_15  and  N_16 
REMARK       I    between atoms: N_16  and  C_17 
REMARK    7  A    between atoms: C_17  and  C_18 
REMARK    8  A    between atoms: C_19  and  O_20 
ROOT
HETATM    1  C   UNL     1     -41.919  56.308 -53.455  1.00  0.00     0.052 A 
HETATM    2  C   UNL     1     -43.138  56.316 -54.177  1.00  0.00     0.062 A 
HETATM    3 CL   UNL     1     -44.090  54.878 -54.396  1.00  0.00    -0.082 Cl
HETATM    4  C   UNL     1     -43.596  57.466 -54.847  1.00  0.00     0.055 A 
HETATM    5  C   UNL     1     -42.810  58.614 -54.879  1.00  0.00     0.036 A 
HETATM    6  C   UNL     1     -41.636  58.646 -54.134  1.00  0.00     0.032 A 
HETATM    7  C   UNL     1     -41.206  57.518 -53.429  1.00  0.00     0.033 A 
ENDROOT
BRANCH   5   8
HETATM    8  N   UNL     1     -43.247  59.719 -55.636  1.00  0.00    -0.333 N 
HETATM    9  H   UNL     1     -44.042  60.246 -55.269  1.00  0.00     0.168 HD
BRANCH   8  10
HETATM   10  C   UNL     1     -42.917  60.043 -56.932  1.00  0.00     0.179 C 
HETATM   11  S   UNL     1     -41.906  61.268 -57.470  1.00  0.00    -0.040 SA
BRANCH  10  12
HETATM   12  N   UNL     1     -43.481  59.248 -57.904  1.00  0.00    -0.299 N 
HETATM   13  C   UNL     1     -42.904  58.224 -58.637  1.00  0.00     0.260 C 
HETATM   14  O   UNL     1     -41.698  58.167 -58.865  1.00  0.00    -0.267 OA
HETATM   15  H   UNL     1     -44.494  59.292 -57.907  1.00  0.00     0.171 HD
BRANCH  13  16
HETATM   16  C   UNL     1     -43.842  57.191 -59.194  1.00  0.00     0.065 A 
HETATM   17  C   UNL     1     -45.187  57.442 -59.536  1.00  0.00     0.084 A 
HETATM   18  C   UNL     1     -45.988  56.409 -60.039  1.00  0.00     0.038 A 
HETATM   19  C   UNL     1     -45.479  55.118 -60.161  1.00  0.00     0.003 A 
HETATM   20  C   UNL     1     -44.161  54.853 -59.800  1.00  0.00     0.001 A 
HETATM   21  C   UNL     1     -43.347  55.882 -59.324  1.00  0.00     0.020 A 
BRANCH  17  22
HETATM   22  O   UNL     1     -45.683  58.719 -59.448  1.00  0.00    -0.355 OA
HETATM   23  C   UNL     1     -45.816  59.367 -60.718  1.00  0.00     0.210 C 
ENDBRANCH  17  22
ENDBRANCH  13  16
ENDBRANCH  10  12
ENDBRANCH   8  10
ENDBRANCH   5   8
BRANCH   1  24
HETATM   24  N   UNL     1     -41.400  55.150 -52.856  1.00  0.00    -0.376 N 
HETATM   25  C   UNL     1     -40.959  54.077 -53.771  1.00  0.00     0.143 C 
HETATM   26  C   UNL     1     -39.989  53.134 -53.025  1.00  0.00     0.145 C 
HETATM   27  N   UNL     1     -40.527  52.638 -51.746  1.00  0.00    -0.349 N 
HETATM   28  C   UNL     1     -40.026  51.521 -51.081  1.00  0.00     0.219 C 
HETATM   29  C   UNL     1     -41.181  53.649 -50.905  1.00  0.00     0.145 C 
HETATM   30  O   UNL     1     -40.368  51.244 -49.930  1.00  0.00    -0.273 OA
HETATM   31  C   UNL     1     -42.103  54.600 -51.678  1.00  0.00     0.143 C 
BRANCH  28  32
HETATM   32  C   UNL     1     -39.034  50.652 -51.840  1.00  0.00     0.103 C 
BRANCH  32  33
HETATM   33  C   UNL     1     -39.733  49.520 -52.595  1.00  0.00     0.005 C 
HETATM   34  C   UNL     1     -39.740  49.765 -54.095  1.00  0.00     0.005 C 
ENDBRANCH  32  33
ENDBRANCH  28  32
ENDBRANCH   1  24
TORSDOF 8
ENDMDL
MODEL 10
REMARK VINA RESULT:      -6.9      2.688      3.418
REMARK  8 active torsions:
REMARK  status: ('A' for Active; 'I' for Inactive)
REMARK    1  A    between atoms: C_2  and  C_3 
REMARK    2  A    between atoms: C_3  and  C_4 
REMARK       I    between atoms: C_4  and  N_5 
REMARK    3  A    between atoms: N_8  and  C_9 
REMARK    4  A    between atoms: C_13  and  N_14 
REMARK    5  A    between atoms: N_14  and  C_15 
REMARK    6  A    between atoms: C_15  and  N_16 
REMARK       I    between atoms: N_16  and  C_17 
REMARK    7  A    between atoms: C_17  and  C_18 
REMARK    8  A    between atoms: C_19  and  O_20 
ROOT
HETATM    1  C   UNL     1     -44.096  58.204 -57.254  1.00  0.00     0.052 A 
HETATM    2  C   UNL     1     -43.522  56.926 -57.039  1.00  0.00     0.062 A 
HETATM    3 CL   UNL     1     -42.871  55.977 -58.342  1.00  0.00    -0.082 Cl
HETATM    4  C   UNL     1     -43.542  56.307 -55.776  1.00  0.00     0.055 A 
HETATM    5  C   UNL     1     -44.204  56.914 -54.712  1.00  0.00     0.036 A 
HETATM    6  C   UNL     1     -44.728  58.191 -54.886  1.00  0.00     0.032 A 
HETATM    7  C   UNL     1     -44.665  58.825 -56.131  1.00  0.00     0.033 A 
ENDROOT
BRANCH   5   8
HETATM    8  N   UNL     1     -44.290  56.230 -53.483  1.00  0.00    -0.333 N 
HETATM    9  H   UNL     1     -45.225  56.069 -53.107  1.00  0.00     0.168 HD
BRANCH   8  10
HETATM   10  C   UNL     1     -43.278  55.967 -52.588  1.00  0.00     0.179 C 
HETATM   11  S   UNL     1     -42.778  56.896 -51.284  1.00  0.00    -0.040 SA
BRANCH  10  12
HETATM   12  N   UNL     1     -42.605  54.782 -52.784  1.00  0.00    -0.299 N 
HETATM   13  C   UNL     1     -41.295  54.578 -53.185  1.00  0.00     0.260 C 
HETATM   14  O   UNL     1     -40.674  55.393 -53.863  1.00  0.00    -0.267 OA
HETATM   15  H   UNL     1     -43.080  53.988 -52.369  1.00  0.00     0.171 HD
BRANCH  13  16
HETATM   16  C   UNL     1     -40.670  53.270 -52.790  1.00  0.00     0.065 A 
HETATM   17  C   UNL     1     -40.461  52.863 -51.456  1.00  0.00     0.084 A 
HETATM   18  C   UNL     1     -39.859  51.627 -51.186  1.00  0.00     0.038 A 
HETATM   19  C   UNL     1     -39.420  50.814 -52.229  1.00  0.00     0.003 A 
HETATM   20  C   UNL     1     -39.596  51.220 -53.549  1.00  0.00     0.001 A 
HETATM   21  C   UNL     1     -40.221  52.437 -53.828  1.00  0.00     0.020 A 
BRANCH  17  22
HETATM   22  O   UNL     1     -40.921  53.645 -50.426  1.00  0.00    -0.355 OA
HETATM   23  C   UNL     1     -39.882  54.347 -49.735  1.00  0.00     0.210 C 
ENDBRANCH  17  22
ENDBRANCH  13  16
ENDBRANCH  10  12
ENDBRANCH   8  10
ENDBRANCH   5   8
BRANCH   1  24
HETATM   24  N   UNL     1     -44.168  58.799 -58.523  1.00  0.00    -0.376 N 
HETATM   25  C   UNL     1     -42.989  59.580 -58.952  1.00  0.00     0.143 C 
HETATM   26  C   UNL     1     -43.006  59.732 -60.489  1.00  0.00     0.145 C 
HETATM   27  N   UNL     1     -44.283  60.253 -61.009  1.00  0.00    -0.349 N 
HETATM   28  C   UNL     1     -44.427  60.814 -62.276  1.00  0.00     0.219 C 
HETATM   29  C   UNL     1     -45.491  59.649 -60.431  1.00  0.00     0.145 C 
HETATM   30  O   UNL     1     -45.536  61.065 -62.751  1.00  0.00    -0.273 OA
HETATM   31  C   UNL     1     -45.429  59.468 -58.909  1.00  0.00     0.143 C 
BRANCH  28  32
HETATM   32  C   UNL     1     -43.152  61.106 -63.052  1.00  0.00     0.103 C 
BRANCH  32  33
HETATM   33  C   UNL     1     -43.171  62.505 -63.671  1.00  0.00     0.005 C 
HETATM   34  C   UNL     1     -42.705  63.562 -62.684  1.00  0.00     0.005 C 
ENDBRANCH  32  33
ENDBRANCH  28  32
ENDBRANCH   1  24
TORSDOF 8
ENDMDL
