MODEL 1
REMARK VINA RESULT:      -7.9      0.000      0.000
REMARK  7 active torsions:
REMARK  status: ('A' for Active; 'I' for Inactive)
REMARK    1  A    between atoms: O_2  and  C_3 
REMARK    2  A    between atoms: C_5  and  C_6 
REMARK    3  A    between atoms: C_6  and  C_7 
REMARK       I    between atoms: C_7  and  N_8 
REMARK    4  A    between atoms: N_8  and  C_9 
REMARK    5  A    between atoms: C_9  and  C_10 
REMARK    6  A    between atoms: C_13  and  N_14 
REMARK       I    between atoms: N_14  and  C_15 
REMARK    7  A    between atoms: C_15  and  C_16 
ROOT
HETATM    1  C   UNL     1     -42.045  56.151 -52.793  1.00  0.00    -0.040 A 
HETATM    2  C   UNL     1     -41.078  55.760 -53.725  1.00  0.00     0.011 A 
HETATM    3  C   UNL     1     -41.436  55.461 -55.045  1.00  0.00     0.030 A 
HETATM    4  C   UNL     1     -42.766  55.558 -55.457  1.00  0.00     0.035 A 
HETATM    5  C   UNL     1     -43.737  55.932 -54.523  1.00  0.00     0.030 A 
HETATM    6  C   UNL     1     -43.382  56.227 -53.203  1.00  0.00     0.011 A 
ENDROOT
BRANCH   1   7
HETATM    7  C   UNL     1     -41.656  56.539 -51.391  1.00  0.00     0.161 C 
BRANCH   7   8
HETATM    8  N   UNL     1     -40.816  55.520 -50.804  1.00  0.00    -0.357 N 
HETATM    9  C   UNL     1     -41.368  54.438 -50.155  1.00  0.00     0.222 C 
HETATM   10  O   UNL     1     -42.577  54.297 -49.996  1.00  0.00    -0.273 OA
HETATM   11  H   UNL     1     -39.861  55.452 -51.131  1.00  0.00     0.162 HD
BRANCH   9  12
HETATM   12  C   UNL     1     -40.350  53.441 -49.635  1.00  0.00     0.141 C 
BRANCH  12  13
HETATM   13  C   UNL     1     -40.137  52.195 -50.464  1.00  0.00    -0.047 A 
HETATM   14  C   UNL     1     -39.842  52.215 -51.836  1.00  0.00     0.044 A 
HETATM   15  C   UNL     1     -39.658  51.027 -52.557  1.00  0.00     0.068 A 
HETATM   16  C   UNL     1     -39.775  49.802 -51.902  1.00  0.00     0.037 A 
HETATM   17  C   UNL     1     -40.071  49.765 -50.539  1.00  0.00     0.003 A 
HETATM   18  C   UNL     1     -40.248  50.951 -49.826  1.00  0.00     0.007 A 
BRANCH  15  19
HETATM   19  O   UNL     1     -39.370  51.203 -53.883  1.00  0.00    -0.356 OA
HETATM   20  C   UNL     1     -39.602  50.095 -54.743  1.00  0.00     0.210 C 
ENDBRANCH  15  19
ENDBRANCH  12  13
ENDBRANCH   9  12
ENDBRANCH   7   8
ENDBRANCH   1   7
BRANCH   4  21
HETATM   21  N   UNL     1     -43.200  55.333 -56.776  1.00  0.00    -0.321 N 
HETATM   22  C   UNL     1     -43.201  56.212 -57.844  1.00  0.00     0.279 C 
HETATM   23  O   UNL     1     -42.736  57.346 -57.836  1.00  0.00    -0.265 OA
HETATM   24  H   UNL     1     -43.605  54.425 -56.980  1.00  0.00     0.169 HD
BRANCH  22  25
HETATM   25  C   UNL     1     -43.838  55.651 -59.024  1.00  0.00     0.142 A 
HETATM   26  O   UNL     1     -44.346  54.375 -58.975  1.00  0.00    -0.317 OA
HETATM   27  C   UNL     1     -44.900  54.120 -60.190  1.00  0.00     0.143 A 
HETATM   28  C   UNL     1     -44.756  55.203 -61.024  1.00  0.00     0.027 A 
HETATM   29  C   UNL     1     -44.070  56.189 -60.276  1.00  0.00     0.045 A 
ENDBRANCH  22  25
ENDBRANCH   4  21
TORSDOF 7
ENDMDL
MODEL 2
REMARK VINA RESULT:      -7.8      1.425      2.091
REMARK  7 active torsions:
REMARK  status: ('A' for Active; 'I' for Inactive)
REMARK    1  A    between atoms: O_2  and  C_3 
REMARK    2  A    between atoms: C_5  and  C_6 
REMARK    3  A    between atoms: C_6  and  C_7 
REMARK       I    between atoms: C_7  and  N_8 
REMARK    4  A    between atoms: N_8  and  C_9 
REMARK    5  A    between atoms: C_9  and  C_10 
REMARK    6  A    between atoms: C_13  and  N_14 
REMARK       I    between atoms: N_14  and  C_15 
REMARK    7  A    between atoms: C_15  and  C_16 
ROOT
HETATM    1  C   UNL     1     -41.936  56.904 -51.860  1.00  0.00    -0.040 A 
HETATM    2  C   UNL     1     -43.218  56.471 -52.217  1.00  0.00     0.011 A 
HETATM    3  C   UNL     1     -43.656  56.549 -53.545  1.00  0.00     0.030 A 
HETATM    4  C   UNL     1     -42.816  57.055 -54.538  1.00  0.00     0.035 A 
HETATM    5  C   UNL     1     -41.541  57.505 -54.181  1.00  0.00     0.030 A 
HETATM    6  C   UNL     1     -41.103  57.431 -52.855  1.00  0.00     0.011 A 
ENDROOT
BRANCH   1   7
HETATM    7  C   UNL     1     -41.436  56.759 -50.448  1.00  0.00     0.161 C 
BRANCH   7   8
HETATM    8  N   UNL     1     -40.652  55.552 -50.317  1.00  0.00    -0.357 N 
HETATM    9  C   UNL     1     -41.233  54.373 -49.905  1.00  0.00     0.222 C 
HETATM   10  O   UNL     1     -42.415  54.286 -49.584  1.00  0.00    -0.273 OA
HETATM   11  H   UNL     1     -39.769  55.508 -50.809  1.00  0.00     0.162 HD
BRANCH   9  12
HETATM   12  C   UNL     1     -40.281  53.193 -49.861  1.00  0.00     0.141 C 
BRANCH  12  13
HETATM   13  C   UNL     1     -40.114  52.410 -51.143  1.00  0.00    -0.047 A 
HETATM   14  C   UNL     1     -40.342  52.949 -52.419  1.00  0.00     0.044 A 
HETATM   15  C   UNL     1     -40.175  52.174 -53.575  1.00  0.00     0.068 A 
HETATM   16  C   UNL     1     -39.780  50.842 -53.457  1.00  0.00     0.037 A 
HETATM   17  C   UNL     1     -39.552  50.291 -52.196  1.00  0.00     0.003 A 
HETATM   18  C   UNL     1     -39.716  51.068 -51.050  1.00  0.00     0.007 A 
BRANCH  15  19
HETATM   19  O   UNL     1     -40.426  52.835 -54.746  1.00  0.00    -0.356 OA
HETATM   20  C   UNL     1     -40.073  54.212 -54.796  1.00  0.00     0.210 C 
ENDBRANCH  15  19
ENDBRANCH  12  13
ENDBRANCH   9  12
ENDBRANCH   7   8
ENDBRANCH   1   7
BRANCH   4  21
HETATM   21  N   UNL     1     -43.157  57.114 -55.902  1.00  0.00    -0.321 N 
HETATM   22  C   UNL     1     -43.138  56.097 -56.840  1.00  0.00     0.279 C 
HETATM   23  O   UNL     1     -42.887  54.919 -56.610  1.00  0.00    -0.265 OA
HETATM   24  H   UNL     1     -43.415  58.022 -56.274  1.00  0.00     0.169 HD
BRANCH  22  25
HETATM   25  C   UNL     1     -43.446  56.571 -58.179  1.00  0.00     0.142 A 
HETATM   26  O   UNL     1     -44.167  57.729 -58.336  1.00  0.00    -0.317 OA
HETATM   27  C   UNL     1     -44.284  57.947 -59.673  1.00  0.00     0.143 A 
HETATM   28  C   UNL     1     -43.657  56.951 -60.382  1.00  0.00     0.027 A 
HETATM   29  C   UNL     1     -43.118  56.062 -59.422  1.00  0.00     0.045 A 
ENDBRANCH  22  25
ENDBRANCH   4  21
TORSDOF 7
ENDMDL
MODEL 3
REMARK VINA RESULT:      -7.7      1.550      2.352
REMARK  7 active torsions:
REMARK  status: ('A' for Active; 'I' for Inactive)
REMARK    1  A    between atoms: O_2  and  C_3 
REMARK    2  A    between atoms: C_5  and  C_6 
REMARK    3  A    between atoms: C_6  and  C_7 
REMARK       I    between atoms: C_7  and  N_8 
REMARK    4  A    between atoms: N_8  and  C_9 
REMARK    5  A    between atoms: C_9  and  C_10 
REMARK    6  A    between atoms: C_13  and  N_14 
REMARK       I    between atoms: N_14  and  C_15 
REMARK    7  A    between atoms: C_15  and  C_16 
ROOT
HETATM    1  C   UNL     1     -42.667  57.606 -53.246  1.00  0.00    -0.040 A 
HETATM    2  C   UNL     1     -44.041  57.591 -53.511  1.00  0.00     0.011 A 
HETATM    3  C   UNL     1     -44.520  57.260 -54.784  1.00  0.00     0.030 A 
HETATM    4  C   UNL     1     -43.634  56.931 -55.811  1.00  0.00     0.035 A 
HETATM    5  C   UNL     1     -42.260  56.962 -55.553  1.00  0.00     0.030 A 
HETATM    6  C   UNL     1     -41.779  57.296 -54.283  1.00  0.00     0.011 A 
ENDROOT
BRANCH   1   7
HETATM    7  C   UNL     1     -42.150  57.894 -51.862  1.00  0.00     0.161 C 
BRANCH   7   8
HETATM    8  N   UNL     1     -41.277  56.829 -51.422  1.00  0.00    -0.357 N 
HETATM    9  C   UNL     1     -41.789  55.695 -50.833  1.00  0.00     0.222 C 
HETATM   10  O   UNL     1     -42.986  55.539 -50.606  1.00  0.00    -0.273 OA
HETATM   11  H   UNL     1     -40.346  56.790 -51.817  1.00  0.00     0.162 HD
BRANCH   9  12
HETATM   12  C   UNL     1     -40.743  54.658 -50.470  1.00  0.00     0.141 C 
BRANCH  12  13
HETATM   13  C   UNL     1     -40.429  53.616 -51.520  1.00  0.00    -0.047 A 
HETATM   14  C   UNL     1     -39.944  52.334 -51.223  1.00  0.00     0.044 A 
HETATM   15  C   UNL     1     -39.665  51.409 -52.239  1.00  0.00     0.068 A 
HETATM   16  C   UNL     1     -39.868  51.771 -53.570  1.00  0.00     0.037 A 
HETATM   17  C   UNL     1     -40.346  53.043 -53.882  1.00  0.00     0.003 A 
HETATM   18  C   UNL     1     -40.626  53.957 -52.867  1.00  0.00     0.007 A 
BRANCH  15  19
HETATM   19  O   UNL     1     -39.206  50.198 -51.798  1.00  0.00    -0.356 OA
HETATM   20  C   UNL     1     -39.740  49.716 -50.571  1.00  0.00     0.210 C 
ENDBRANCH  15  19
ENDBRANCH  12  13
ENDBRANCH   9  12
ENDBRANCH   7   8
ENDBRANCH   1   7
BRANCH   4  21
HETATM   21  N   UNL     1     -44.035  56.531 -57.099  1.00  0.00    -0.321 N 
HETATM   22  C   UNL     1     -44.258  57.320 -58.214  1.00  0.00     0.279 C 
HETATM   23  O   UNL     1     -44.062  58.528 -58.285  1.00  0.00    -0.265 OA
HETATM   24  H   UNL     1     -44.227  55.545 -57.237  1.00  0.00     0.169 HD
BRANCH  22  25
HETATM   25  C   UNL     1     -44.777  56.557 -59.337  1.00  0.00     0.142 A 
HETATM   26  O   UNL     1     -46.103  56.671 -59.677  1.00  0.00    -0.317 OA
HETATM   27  C   UNL     1     -46.306  55.881 -60.764  1.00  0.00     0.143 A 
HETATM   28  C   UNL     1     -45.139  55.254 -61.130  1.00  0.00     0.027 A 
HETATM   29  C   UNL     1     -44.153  55.686 -60.211  1.00  0.00     0.045 A 
ENDBRANCH  22  25
ENDBRANCH   4  21
TORSDOF 7
ENDMDL
MODEL 4
REMARK VINA RESULT:      -7.7      2.282      8.440
REMARK  7 active torsions:
REMARK  status: ('A' for Active; 'I' for Inactive)
REMARK    1  A    between atoms: O_2  and  C_3 
REMARK    2  A    between atoms: C_5  and  C_6 
REMARK    3  A    between atoms: C_6  and  C_7 
REMARK       I    between atoms: C_7  and  N_8 
REMARK    4  A    between atoms: N_8  and  C_9 
REMARK    5  A    between atoms: C_9  and  C_10 
REMARK    6  A    between atoms: C_13  and  N_14 
REMARK       I    between atoms: N_14  and  C_15 
REMARK    7  A    between atoms: C_15  and  C_16 
ROOT
HETATM    1  C   UNL     1     -44.215  56.916 -54.438  1.00  0.00    -0.040 A 
HETATM    2  C   UNL     1     -43.917  56.036 -55.485  1.00  0.00     0.011 A 
HETATM    3  C   UNL     1     -43.111  54.911 -55.267  1.00  0.00     0.030 A 
HETATM    4  C   UNL     1     -42.598  54.643 -53.998  1.00  0.00     0.035 A 
HETATM    5  C   UNL     1     -42.880  55.530 -52.954  1.00  0.00     0.030 A 
HETATM    6  C   UNL     1     -43.681  56.656 -53.170  1.00  0.00     0.011 A 
ENDROOT
BRANCH   1   7
HETATM    7  C   UNL     1     -45.135  58.087 -54.650  1.00  0.00     0.161 C 
BRANCH   7   8
HETATM    8  N   UNL     1     -45.858  57.938 -55.892  1.00  0.00    -0.357 N 
HETATM    9  C   UNL     1     -45.715  58.857 -56.908  1.00  0.00     0.222 C 
HETATM   10  O   UNL     1     -45.019  59.864 -56.807  1.00  0.00    -0.273 OA
HETATM   11  H   UNL     1     -46.219  57.020 -56.120  1.00  0.00     0.162 HD
BRANCH   9  12
HETATM   12  C   UNL     1     -46.510  58.531 -58.158  1.00  0.00     0.141 C 
BRANCH  12  13
HETATM   13  C   UNL     1     -45.919  57.490 -59.083  1.00  0.00    -0.047 A 
HETATM   14  C   UNL     1     -44.542  57.333 -59.299  1.00  0.00     0.044 A 
HETATM   15  C   UNL     1     -44.051  56.353 -60.171  1.00  0.00     0.068 A 
HETATM   16  C   UNL     1     -44.946  55.520 -60.842  1.00  0.00     0.037 A 
HETATM   17  C   UNL     1     -46.318  55.665 -60.640  1.00  0.00     0.003 A 
HETATM   18  C   UNL     1     -46.801  56.640 -59.768  1.00  0.00     0.007 A 
BRANCH  15  19
HETATM   19  O   UNL     1     -42.687  56.313 -60.276  1.00  0.00    -0.356 OA
HETATM   20  C   UNL     1     -41.993  57.542 -60.096  1.00  0.00     0.210 C 
ENDBRANCH  15  19
ENDBRANCH  12  13
ENDBRANCH   9  12
ENDBRANCH   7   8
ENDBRANCH   1   7
BRANCH   4  21
HETATM   21  N   UNL     1     -41.831  53.507 -53.682  1.00  0.00    -0.321 N 
HETATM   22  C   UNL     1     -40.591  53.141 -54.176  1.00  0.00     0.279 C 
HETATM   23  O   UNL     1     -39.900  53.809 -54.937  1.00  0.00    -0.265 OA
HETATM   24  H   UNL     1     -42.241  52.836 -53.040  1.00  0.00     0.169 HD
BRANCH  22  25
HETATM   25  C   UNL     1     -40.168  51.834 -53.700  1.00  0.00     0.142 A 
HETATM   26  O   UNL     1     -39.827  51.675 -52.379  1.00  0.00    -0.317 OA
HETATM   27  C   UNL     1     -39.501  50.367 -52.206  1.00  0.00     0.143 A 
HETATM   28  C   UNL     1     -39.621  49.679 -53.390  1.00  0.00     0.027 A 
HETATM   29  C   UNL     1     -40.048  50.622 -54.354  1.00  0.00     0.045 A 
ENDBRANCH  22  25
ENDBRANCH   4  21
TORSDOF 7
ENDMDL
MODEL 5
REMARK VINA RESULT:      -7.7      4.418      7.837
REMARK  7 active torsions:
REMARK  status: ('A' for Active; 'I' for Inactive)
REMARK    1  A    between atoms: O_2  and  C_3 
REMARK    2  A    between atoms: C_5  and  C_6 
REMARK    3  A    between atoms: C_6  and  C_7 
REMARK       I    between atoms: C_7  and  N_8 
REMARK    4  A    between atoms: N_8  and  C_9 
REMARK    5  A    between atoms: C_9  and  C_10 
REMARK    6  A    between atoms: C_13  and  N_14 
REMARK       I    between atoms: N_14  and  C_15 
REMARK    7  A    between atoms: C_15  and  C_16 
ROOT
HETATM    1  C   UNL     1     -44.670  58.082 -53.783  1.00  0.00    -0.040 A 
HETATM    2  C   UNL     1     -44.333  57.340 -52.645  1.00  0.00     0.011 A 
HETATM    3  C   UNL     1     -44.536  57.865 -51.363  1.00  0.00     0.030 A 
HETATM    4  C   UNL     1     -45.089  59.135 -51.197  1.00  0.00     0.035 A 
HETATM    5  C   UNL     1     -45.411  59.885 -52.333  1.00  0.00     0.030 A 
HETATM    6  C   UNL     1     -45.205  59.365 -53.614  1.00  0.00     0.011 A 
ENDROOT
BRANCH   1   7
HETATM    7  C   UNL     1     -44.518  57.496 -55.161  1.00  0.00     0.161 C 
BRANCH   7   8
HETATM    8  N   UNL     1     -44.259  56.077 -55.077  1.00  0.00    -0.357 N 
HETATM    9  C   UNL     1     -43.008  55.571 -55.352  1.00  0.00     0.222 C 
HETATM   10  O   UNL     1     -42.069  56.269 -55.724  1.00  0.00    -0.273 OA
HETATM   11  H   UNL     1     -44.899  55.513 -54.533  1.00  0.00     0.162 HD
BRANCH   9  12
HETATM   12  C   UNL     1     -42.894  54.069 -55.175  1.00  0.00     0.141 C 
BRANCH  12  13
HETATM   13  C   UNL     1     -41.920  53.582 -54.125  1.00  0.00    -0.047 A 
HETATM   14  C   UNL     1     -40.978  52.567 -54.349  1.00  0.00     0.044 A 
HETATM   15  C   UNL     1     -40.102  52.153 -53.336  1.00  0.00     0.068 A 
HETATM   16  C   UNL     1     -40.170  52.757 -52.081  1.00  0.00     0.037 A 
HETATM   17  C   UNL     1     -41.103  53.766 -51.842  1.00  0.00     0.003 A 
HETATM   18  C   UNL     1     -41.969  54.176 -52.855  1.00  0.00     0.007 A 
BRANCH  15  19
HETATM   19  O   UNL     1     -39.236  51.160 -53.702  1.00  0.00    -0.356 OA
HETATM   20  C   UNL     1     -39.801  50.005 -54.310  1.00  0.00     0.210 C 
ENDBRANCH  15  19
ENDBRANCH  12  13
ENDBRANCH   9  12
ENDBRANCH   7   8
ENDBRANCH   1   7
BRANCH   4  21
HETATM   21  N   UNL     1     -45.378  59.711 -49.947  1.00  0.00    -0.321 N 
HETATM   22  C   UNL     1     -44.835  60.848 -49.376  1.00  0.00     0.279 C 
HETATM   23  O   UNL     1     -44.042  61.610 -49.917  1.00  0.00    -0.265 OA
HETATM   24  H   UNL     1     -46.041  59.221 -49.355  1.00  0.00     0.169 HD
BRANCH  22  25
HETATM   25  C   UNL     1     -45.302  61.063 -48.015  1.00  0.00     0.142 A 
HETATM   26  O   UNL     1     -46.139  60.142 -47.435  1.00  0.00    -0.317 OA
HETATM   27  C   UNL     1     -46.392  60.573 -46.172  1.00  0.00     0.143 A 
HETATM   28  C   UNL     1     -45.739  61.758 -45.925  1.00  0.00     0.027 A 
HETATM   29  C   UNL     1     -45.038  62.076 -47.113  1.00  0.00     0.045 A 
ENDBRANCH  22  25
ENDBRANCH   4  21
TORSDOF 7
ENDMDL
MODEL 6
REMARK VINA RESULT:      -7.6      3.974      7.354
REMARK  7 active torsions:
REMARK  status: ('A' for Active; 'I' for Inactive)
REMARK    1  A    between atoms: O_2  and  C_3 
REMARK    2  A    between atoms: C_5  and  C_6 
REMARK    3  A    between atoms: C_6  and  C_7 
REMARK       I    between atoms: C_7  and  N_8 
REMARK    4  A    between atoms: N_8  and  C_9 
REMARK    5  A    between atoms: C_9  and  C_10 
REMARK    6  A    between atoms: C_13  and  N_14 
REMARK       I    between atoms: N_14  and  C_15 
REMARK    7  A    between atoms: C_15  and  C_16 
ROOT
HETATM    1  C   UNL     1     -43.109  57.472 -54.064  1.00  0.00    -0.040 A 
HETATM    2  C   UNL     1     -43.492  56.740 -52.935  1.00  0.00     0.011 A 
HETATM    3  C   UNL     1     -43.822  57.389 -51.738  1.00  0.00     0.030 A 
HETATM    4  C   UNL     1     -43.782  58.782 -51.655  1.00  0.00     0.035 A 
HETATM    5  C   UNL     1     -43.383  59.515 -52.778  1.00  0.00     0.030 A 
HETATM    6  C   UNL     1     -43.050  58.868 -53.972  1.00  0.00     0.011 A 
ENDROOT
BRANCH   1   7
HETATM    7  C   UNL     1     -42.821  56.783 -55.371  1.00  0.00     0.161 C 
BRANCH   7   8
HETATM    8  N   UNL     1     -41.700  55.883 -55.226  1.00  0.00    -0.357 N 
HETATM    9  C   UNL     1     -41.881  54.518 -55.266  1.00  0.00     0.222 C 
HETATM   10  O   UNL     1     -42.984  53.991 -55.376  1.00  0.00    -0.273 OA
HETATM   11  H   UNL     1     -40.774  56.252 -55.399  1.00  0.00     0.162 HD
BRANCH   9  12
HETATM   12  C   UNL     1     -40.598  53.717 -55.142  1.00  0.00     0.141 C 
BRANCH  12  13
HETATM   13  C   UNL     1     -40.343  53.050 -53.809  1.00  0.00    -0.047 A 
HETATM   14  C   UNL     1     -40.647  53.640 -52.573  1.00  0.00     0.044 A 
HETATM   15  C   UNL     1     -40.385  52.976 -51.367  1.00  0.00     0.068 A 
HETATM   16  C   UNL     1     -39.806  51.708 -51.394  1.00  0.00     0.037 A 
HETATM   17  C   UNL     1     -39.495  51.109 -52.614  1.00  0.00     0.003 A 
HETATM   18  C   UNL     1     -39.762  51.773 -53.811  1.00  0.00     0.007 A 
BRANCH  15  19
HETATM   19  O   UNL     1     -40.741  53.671 -50.244  1.00  0.00    -0.356 OA
HETATM   20  C   UNL     1     -40.852  55.084 -50.370  1.00  0.00     0.210 C 
ENDBRANCH  15  19
ENDBRANCH  12  13
ENDBRANCH   9  12
ENDBRANCH   7   8
ENDBRANCH   1   7
BRANCH   4  21
HETATM   21  N   UNL     1     -44.153  59.513 -50.512  1.00  0.00    -0.321 N 
HETATM   22  C   UNL     1     -45.413  59.673 -49.963  1.00  0.00     0.279 C 
HETATM   23  O   UNL     1     -46.436  59.120 -50.351  1.00  0.00    -0.265 OA
HETATM   24  H   UNL     1     -43.420  60.030 -50.037  1.00  0.00     0.169 HD
BRANCH  22  25
HETATM   25  C   UNL     1     -45.416  60.600 -48.843  1.00  0.00     0.142 A 
HETATM   26  O   UNL     1     -46.056  60.250 -47.679  1.00  0.00    -0.317 OA
HETATM   27  C   UNL     1     -45.881  61.276 -46.804  1.00  0.00     0.143 A 
HETATM   28  C   UNL     1     -45.145  62.283 -47.382  1.00  0.00     0.027 A 
HETATM   29  C   UNL     1     -44.846  61.850 -48.696  1.00  0.00     0.045 A 
ENDBRANCH  22  25
ENDBRANCH   4  21
TORSDOF 7
ENDMDL
MODEL 7
REMARK VINA RESULT:      -7.0      2.247      8.822
REMARK  7 active torsions:
REMARK  status: ('A' for Active; 'I' for Inactive)
REMARK    1  A    between atoms: O_2  and  C_3 
REMARK    2  A    between atoms: C_5  and  C_6 
REMARK    3  A    between atoms: C_6  and  C_7 
REMARK       I    between atoms: C_7  and  N_8 
REMARK    4  A    between atoms: N_8  and  C_9 
REMARK    5  A    between atoms: C_9  and  C_10 
REMARK    6  A    between atoms: C_13  and  N_14 
REMARK       I    between atoms: N_14  and  C_15 
REMARK    7  A    between atoms: C_15  and  C_16 
ROOT
HETATM    1  C   UNL     1     -42.721  58.158 -55.493  1.00  0.00    -0.040 A 
HETATM    2  C   UNL     1     -43.127  56.867 -55.848  1.00  0.00     0.011 A 
HETATM    3  C   UNL     1     -42.617  55.748 -55.178  1.00  0.00     0.030 A 
HETATM    4  C   UNL     1     -41.700  55.902 -54.137  1.00  0.00     0.035 A 
HETATM    5  C   UNL     1     -41.280  57.191 -53.793  1.00  0.00     0.030 A 
HETATM    6  C   UNL     1     -41.785  58.310 -54.463  1.00  0.00     0.011 A 
ENDROOT
BRANCH   1   7
HETATM    7  C   UNL     1     -43.317  59.367 -56.163  1.00  0.00     0.161 C 
BRANCH   7   8
HETATM    8  N   UNL     1     -43.719  59.046 -57.513  1.00  0.00    -0.357 N 
HETATM    9  C   UNL     1     -42.853  59.226 -58.569  1.00  0.00     0.222 C 
HETATM   10  O   UNL     1     -41.730  59.705 -58.441  1.00  0.00    -0.273 OA
HETATM   11  H   UNL     1     -44.504  58.418 -57.633  1.00  0.00     0.162 HD
BRANCH   9  12
HETATM   12  C   UNL     1     -43.416  58.799 -59.912  1.00  0.00     0.141 C 
BRANCH  12  13
HETATM   13  C   UNL     1     -44.095  57.449 -59.964  1.00  0.00    -0.047 A 
HETATM   14  C   UNL     1     -45.471  57.279 -60.175  1.00  0.00     0.044 A 
HETATM   15  C   UNL     1     -46.048  56.002 -60.210  1.00  0.00     0.068 A 
HETATM   16  C   UNL     1     -45.242  54.879 -60.026  1.00  0.00     0.037 A 
HETATM   17  C   UNL     1     -43.872  55.032 -59.812  1.00  0.00     0.003 A 
HETATM   18  C   UNL     1     -43.303  56.305 -59.783  1.00  0.00     0.007 A 
BRANCH  15  19
HETATM   19  O   UNL     1     -47.398  55.991 -60.431  1.00  0.00    -0.356 OA
HETATM   20  C   UNL     1     -47.861  56.631 -61.614  1.00  0.00     0.210 C 
ENDBRANCH  15  19
ENDBRANCH  12  13
ENDBRANCH   9  12
ENDBRANCH   7   8
ENDBRANCH   1   7
BRANCH   4  21
HETATM   21  N   UNL     1     -41.185  54.836 -53.377  1.00  0.00    -0.321 N 
HETATM   22  C   UNL     1     -40.466  53.737 -53.812  1.00  0.00     0.279 C 
HETATM   23  O   UNL     1     -40.079  53.546 -54.959  1.00  0.00    -0.265 OA
HETATM   24  H   UNL     1     -41.392  54.836 -52.384  1.00  0.00     0.169 HD
BRANCH  22  25
HETATM   25  C   UNL     1     -40.206  52.786 -52.743  1.00  0.00     0.142 A 
HETATM   26  O   UNL     1     -40.578  53.096 -51.458  1.00  0.00    -0.317 OA
HETATM   27  C   UNL     1     -40.245  52.033 -50.679  1.00  0.00     0.143 A 
HETATM   28  C   UNL     1     -39.662  51.044 -51.435  1.00  0.00     0.027 A 
HETATM   29  C   UNL     1     -39.634  51.528 -52.765  1.00  0.00     0.045 A 
ENDBRANCH  22  25
ENDBRANCH   4  21
TORSDOF 7
ENDMDL
MODEL 8
REMARK VINA RESULT:      -7.0      4.618      7.885
REMARK  7 active torsions:
REMARK  status: ('A' for Active; 'I' for Inactive)
REMARK    1  A    between atoms: O_2  and  C_3 
REMARK    2  A    between atoms: C_5  and  C_6 
REMARK    3  A    between atoms: C_6  and  C_7 
REMARK       I    between atoms: C_7  and  N_8 
REMARK    4  A    between atoms: N_8  and  C_9 
REMARK    5  A    between atoms: C_9  and  C_10 
REMARK    6  A    between atoms: C_13  and  N_14 
REMARK       I    between atoms: N_14  and  C_15 
REMARK    7  A    between atoms: C_15  and  C_16 
ROOT
HETATM    1  C   UNL     1     -41.431  58.414 -52.632  1.00  0.00    -0.040 A 
HETATM    2  C   UNL     1     -40.685  59.141 -51.698  1.00  0.00     0.011 A 
HETATM    3  C   UNL     1     -41.321  59.890 -50.701  1.00  0.00     0.030 A 
HETATM    4  C   UNL     1     -42.713  59.916 -50.614  1.00  0.00     0.035 A 
HETATM    5  C   UNL     1     -43.462  59.204 -51.557  1.00  0.00     0.030 A 
HETATM    6  C   UNL     1     -42.829  58.458 -52.556  1.00  0.00     0.011 A 
ENDROOT
BRANCH   1   7
HETATM    7  C   UNL     1     -40.753  57.553 -53.663  1.00  0.00     0.161 C 
BRANCH   7   8
HETATM    8  N   UNL     1     -41.229  56.192 -53.571  1.00  0.00    -0.357 N 
HETATM    9  C   UNL     1     -41.716  55.538 -54.681  1.00  0.00     0.222 C 
HETATM   10  O   UNL     1     -41.819  56.071 -55.782  1.00  0.00    -0.273 OA
HETATM   11  H   UNL     1     -40.925  55.639 -52.780  1.00  0.00     0.162 HD
BRANCH   9  12
HETATM   12  C   UNL     1     -42.134  54.102 -54.423  1.00  0.00     0.141 C 
BRANCH  12  13
HETATM   13  C   UNL     1     -41.193  53.262 -53.590  1.00  0.00    -0.047 A 
HETATM   14  C   UNL     1     -41.059  53.392 -52.199  1.00  0.00     0.044 A 
HETATM   15  C   UNL     1     -40.166  52.588 -51.477  1.00  0.00     0.068 A 
HETATM   16  C   UNL     1     -39.393  51.645 -52.152  1.00  0.00     0.037 A 
HETATM   17  C   UNL     1     -39.512  51.505 -53.535  1.00  0.00     0.003 A 
HETATM   18  C   UNL     1     -40.405  52.305 -54.247  1.00  0.00     0.007 A 
BRANCH  15  19
HETATM   19  O   UNL     1     -40.149  52.823 -50.129  1.00  0.00    -0.356 OA
HETATM   20  C   UNL     1     -39.770  54.128 -49.709  1.00  0.00     0.210 C 
ENDBRANCH  15  19
ENDBRANCH  12  13
ENDBRANCH   9  12
ENDBRANCH   7   8
ENDBRANCH   1   7
BRANCH   4  21
HETATM   21  N   UNL     1     -43.427  60.595 -49.610  1.00  0.00    -0.321 N 
HETATM   22  C   UNL     1     -44.009  61.849 -49.665  1.00  0.00     0.279 C 
HETATM   23  O   UNL     1     -44.067  62.566 -50.657  1.00  0.00    -0.265 OA
HETATM   24  H   UNL     1     -43.502  60.137 -48.707  1.00  0.00     0.169 HD
BRANCH  22  25
HETATM   25  C   UNL     1     -44.562  62.260 -48.384  1.00  0.00     0.142 A 
HETATM   26  O   UNL     1     -44.727  61.328 -47.389  1.00  0.00    -0.317 OA
HETATM   27  C   UNL     1     -45.229  61.983 -46.309  1.00  0.00     0.143 A 
HETATM   28  C   UNL     1     -45.395  63.319 -46.588  1.00  0.00     0.027 A 
HETATM   29  C   UNL     1     -44.968  63.499 -47.925  1.00  0.00     0.045 A 
ENDBRANCH  22  25
ENDBRANCH   4  21
TORSDOF 7
ENDMDL
MODEL 9
REMARK VINA RESULT:      -7.0      2.236      8.071
REMARK  7 active torsions:
REMARK  status: ('A' for Active; 'I' for Inactive)
REMARK    1  A    between atoms: O_2  and  C_3 
REMARK    2  A    between atoms: C_5  and  C_6 
REMARK    3  A    between atoms: C_6  and  C_7 
REMARK       I    between atoms: C_7  and  N_8 
REMARK    4  A    between atoms: N_8  and  C_9 
REMARK    5  A    between atoms: C_9  and  C_10 
REMARK    6  A    between atoms: C_13  and  N_14 
REMARK       I    between atoms: N_14  and  C_15 
REMARK    7  A    between atoms: C_15  and  C_16 
ROOT
HETATM    1  C   UNL     1     -44.092  57.014 -53.653  1.00  0.00    -0.040 A 
HETATM    2  C   UNL     1     -43.386  56.805 -52.463  1.00  0.00     0.011 A 
HETATM    3  C   UNL     1     -42.637  55.638 -52.271  1.00  0.00     0.030 A 
HETATM    4  C   UNL     1     -42.573  54.665 -53.269  1.00  0.00     0.035 A 
HETATM    5  C   UNL     1     -43.292  54.864 -54.452  1.00  0.00     0.030 A 
HETATM    6  C   UNL     1     -44.044  56.027 -54.645  1.00  0.00     0.011 A 
ENDROOT
BRANCH   1   7
HETATM    7  C   UNL     1     -44.843  58.296 -53.893  1.00  0.00     0.161 C 
BRANCH   7   8
HETATM    8  N   UNL     1     -45.047  58.501 -55.308  1.00  0.00    -0.357 N 
HETATM    9  C   UNL     1     -44.434  59.543 -55.967  1.00  0.00     0.222 C 
HETATM   10  O   UNL     1     -43.732  60.374 -55.399  1.00  0.00    -0.273 OA
HETATM   11  H   UNL     1     -45.384  57.717 -55.853  1.00  0.00     0.162 HD
BRANCH   9  12
HETATM   12  C   UNL     1     -44.719  59.590 -57.456  1.00  0.00     0.141 C 
BRANCH  12  13
HETATM   13  C   UNL     1     -44.109  58.492 -58.297  1.00  0.00    -0.047 A 
HETATM   14  C   UNL     1     -44.807  57.345 -58.706  1.00  0.00     0.044 A 
HETATM   15  C   UNL     1     -44.189  56.356 -59.482  1.00  0.00     0.068 A 
HETATM   16  C   UNL     1     -42.853  56.510 -59.853  1.00  0.00     0.037 A 
HETATM   17  C   UNL     1     -42.144  57.642 -59.452  1.00  0.00     0.003 A 
HETATM   18  C   UNL     1     -42.766  58.625 -58.683  1.00  0.00     0.007 A 
BRANCH  15  19
HETATM   19  O   UNL     1     -44.995  55.301 -59.810  1.00  0.00    -0.356 OA
HETATM   20  C   UNL     1     -45.010  54.903 -61.176  1.00  0.00     0.210 C 
ENDBRANCH  15  19
ENDBRANCH  12  13
ENDBRANCH   9  12
ENDBRANCH   7   8
ENDBRANCH   1   7
BRANCH   4  21
HETATM   21  N   UNL     1     -41.799  53.494 -53.179  1.00  0.00    -0.321 N 
HETATM   22  C   UNL     1     -40.649  53.167 -53.875  1.00  0.00     0.279 C 
HETATM   23  O   UNL     1     -40.053  53.902 -54.655  1.00  0.00    -0.265 OA
HETATM   24  H   UNL     1     -42.134  52.766 -52.556  1.00  0.00     0.169 HD
BRANCH  22  25
HETATM   25  C   UNL     1     -40.198  51.813 -53.595  1.00  0.00     0.142 A 
HETATM   26  O   UNL     1     -39.853  51.468 -52.312  1.00  0.00    -0.317 OA
HETATM   27  C   UNL     1     -39.499  50.156 -52.333  1.00  0.00     0.143 A 
HETATM   28  C   UNL     1     -39.604  49.648 -53.605  1.00  0.00     0.027 A 
HETATM   29  C   UNL     1     -40.052  50.714 -54.421  1.00  0.00     0.045 A 
ENDBRANCH  22  25
ENDBRANCH   4  21
TORSDOF 7
ENDMDL
MODEL 10
REMARK VINA RESULT:      -6.9     13.928     15.817
REMARK  7 active torsions:
REMARK  status: ('A' for Active; 'I' for Inactive)
REMARK    1  A    between atoms: O_2  and  C_3 
REMARK    2  A    between atoms: C_5  and  C_6 
REMARK    3  A    between atoms: C_6  and  C_7 
REMARK       I    between atoms: C_7  and  N_8 
REMARK    4  A    between atoms: N_8  and  C_9 
REMARK    5  A    between atoms: C_9  and  C_10 
REMARK    6  A    between atoms: C_13  and  N_14 
REMARK       I    between atoms: N_14  and  C_15 
REMARK    7  A    between atoms: C_15  and  C_16 
ROOT
HETATM    1  C   UNL     1     -36.370  41.784 -54.689  1.00  0.00    -0.040 A 
HETATM    2  C   UNL     1     -37.593  41.188 -55.016  1.00  0.00     0.011 A 
HETATM    3  C   UNL     1     -37.790  40.602 -56.272  1.00  0.00     0.030 A 
HETATM    4  C   UNL     1     -36.765  40.593 -57.218  1.00  0.00     0.035 A 
HETATM    5  C   UNL     1     -35.547  41.203 -56.900  1.00  0.00     0.030 A 
HETATM    6  C   UNL     1     -35.349  41.793 -55.647  1.00  0.00     0.011 A 
ENDROOT
BRANCH   1   7
HETATM    7  C   UNL     1     -36.130  42.354 -53.317  1.00  0.00     0.161 C 
BRANCH   7   8
HETATM    8  N   UNL     1     -34.818  41.979 -52.841  1.00  0.00    -0.357 N 
HETATM    9  C   UNL     1     -34.670  41.225 -51.698  1.00  0.00     0.222 C 
HETATM   10  O   UNL     1     -35.617  40.873 -51.001  1.00  0.00    -0.273 OA
HETATM   11  H   UNL     1     -34.051  42.012 -53.501  1.00  0.00     0.162 HD
BRANCH   9  12
HETATM   12  C   UNL     1     -33.231  40.883 -51.362  1.00  0.00     0.141 C 
BRANCH  12  13
HETATM   13  C   UNL     1     -32.519  39.944 -52.309  1.00  0.00    -0.047 A 
HETATM   14  C   UNL     1     -32.096  40.310 -53.596  1.00  0.00     0.044 A 
HETATM   15  C   UNL     1     -31.443  39.396 -54.433  1.00  0.00     0.068 A 
HETATM   16  C   UNL     1     -31.213  38.096 -53.984  1.00  0.00     0.037 A 
HETATM   17  C   UNL     1     -31.630  37.715 -52.708  1.00  0.00     0.003 A 
HETATM   18  C   UNL     1     -32.276  38.631 -51.878  1.00  0.00     0.007 A 
BRANCH  15  19
HETATM   19  O   UNL     1     -31.083  39.897 -55.655  1.00  0.00    -0.356 OA
HETATM   20  C   UNL     1     -32.037  39.781 -56.703  1.00  0.00     0.210 C 
ENDBRANCH  15  19
ENDBRANCH  12  13
ENDBRANCH   9  12
ENDBRANCH   7   8
ENDBRANCH   1   7
BRANCH   4  21
HETATM   21  N   UNL     1     -36.861  39.976 -58.478  1.00  0.00    -0.321 N 
HETATM   22  C   UNL     1     -37.142  40.557 -59.702  1.00  0.00     0.279 C 
HETATM   23  O   UNL     1     -37.280  41.758 -59.908  1.00  0.00    -0.265 OA
HETATM   24  H   UNL     1     -36.753  38.967 -58.508  1.00  0.00     0.169 HD
BRANCH  22  25
HETATM   25  C   UNL     1     -37.272  39.574 -60.766  1.00  0.00     0.142 A 
HETATM   26  O   UNL     1     -36.152  39.158 -61.443  1.00  0.00    -0.317 OA
HETATM   27  C   UNL     1     -36.555  38.231 -62.351  1.00  0.00     0.143 A 
HETATM   28  C   UNL     1     -37.915  38.043 -62.278  1.00  0.00     0.027 A 
HETATM   29  C   UNL     1     -38.379  38.909 -61.259  1.00  0.00     0.045 A 
ENDBRANCH  22  25
ENDBRANCH   4  21
TORSDOF 7
ENDMDL
