MODEL 1
REMARK VINA RESULT:      -8.9      0.000      0.000
REMARK  6 active torsions:
REMARK  status: ('A' for Active; 'I' for Inactive)
REMARK    1  A    between atoms: O_2  and  C_3 
REMARK    2  A    between atoms: C_6  and  C_7 
REMARK    3  A    between atoms: C_9  and  N_10 
REMARK    4  A    between atoms: N_10  and  N_11 
REMARK       I    between atoms: N_10  and  C_22 
REMARK       I    between atoms: N_11  and  C_12 
REMARK       I    between atoms: C_12  and  N_13 
REMARK    5  A    between atoms: N_13  and  C_14 
REMARK       I    between atoms: C_22  and  N_23 
REMARK    6  A    between atoms: N_23  and  C_24 
ROOT
HETATM    1  N   UNL     1     -42.068  57.915 -51.216  1.00  0.00    -0.195 N 
HETATM    2  C   UNL     1     -41.805  59.201 -50.719  1.00  0.00     0.340 C 
HETATM    3  N   UNL     1     -42.561  60.234 -51.230  1.00  0.00    -0.337 N 
HETATM    4  O   UNL     1     -40.988  59.392 -49.812  1.00  0.00    -0.245 OA
HETATM    5  H   UNL     1     -43.350  59.977 -51.804  1.00  0.00     0.164 HD
ENDROOT
BRANCH   1   6
HETATM    6  C   UNL     1     -42.960  57.695 -52.256  1.00  0.00     0.193 A 
HETATM    7  N   UNL     1     -42.605  57.563 -53.513  1.00  0.00    -0.222 NA
HETATM    8  C   UNL     1     -43.717  57.258 -54.282  1.00  0.00     0.076 A 
HETATM    9  C   UNL     1     -44.920  57.296 -53.603  1.00  0.00     0.085 A 
HETATM   10  S   UNL     1     -44.641  57.644 -51.943  1.00  0.00    -0.060 SA
BRANCH   8  11
HETATM   11  C   UNL     1     -43.563  56.858 -55.673  1.00  0.00    -0.007 A 
HETATM   12  C   UNL     1     -43.012  55.599 -55.955  1.00  0.00     0.016 A 
HETATM   13  C   UNL     1     -42.862  55.155 -57.273  1.00  0.00     0.037 A 
HETATM   14  C   UNL     1     -43.253  55.972 -58.332  1.00  0.00     0.068 A 
HETATM   15  C   UNL     1     -43.805  57.226 -58.057  1.00  0.00     0.037 A 
HETATM   16  C   UNL     1     -43.959  57.672 -56.739  1.00  0.00     0.016 A 
BRANCH  14  17
HETATM   17  O   UNL     1     -43.154  55.663 -59.660  1.00  0.00    -0.356 OA
HETATM   18  C   UNL     1     -44.322  55.137 -60.280  1.00  0.00     0.210 C 
ENDBRANCH  14  17
ENDBRANCH   8  11
ENDBRANCH   1   6
BRANCH   1  19
HETATM   19  N   UNL     1     -42.064  56.869 -50.230  1.00  0.00    -0.142 NA
HETATM   20  C   UNL     1     -41.945  55.551 -50.621  1.00  0.00     0.317 C 
HETATM   21  N   UNL     1     -41.023  55.328 -51.610  1.00  0.00    -0.312 N 
HETATM   22  O   UNL     1     -42.616  54.703 -50.041  1.00  0.00    -0.252 OA
HETATM   23  H   UNL     1     -40.380  56.103 -51.759  1.00  0.00     0.170 HD
HETATM   24  H   UNL     1     -42.803  56.988 -49.539  1.00  0.00     0.158 HD
BRANCH  21  25
HETATM   25  C   UNL     1     -40.687  54.104 -52.219  1.00  0.00     0.036 A 
HETATM   26  C   UNL     1     -40.004  53.074 -51.567  1.00  0.00     0.031 A 
HETATM   27  C   UNL     1     -39.696  51.889 -52.245  1.00  0.00     0.026 A 
HETATM   28  C   UNL     1     -40.075  51.731 -53.575  1.00  0.00     0.034 A 
HETATM   29 CL   UNL     1     -39.688  50.276 -54.409  1.00  0.00    -0.084 Cl
HETATM   30  C   UNL     1     -40.766  52.744 -54.232  1.00  0.00     0.026 A 
HETATM   31  C   UNL     1     -41.074  53.926 -53.553  1.00  0.00     0.031 A 
ENDBRANCH  21  25
ENDBRANCH   1  19
BRANCH   3  32
HETATM   32  C   UNL     1     -42.697  61.504 -50.525  1.00  0.00     0.086 C 
HETATM   33  C   UNL     1     -43.087  62.622 -51.501  1.00  0.00     0.025 C 
HETATM   34  C   UNL     1     -44.517  62.482 -52.029  1.00  0.00     0.002 C 
HETATM   35  C   UNL     1     -45.534  62.332 -50.902  1.00  0.00     0.000 C 
HETATM   36  C   UNL     1     -45.159  61.210 -49.938  1.00  0.00     0.002 C 
HETATM   37  C   UNL     1     -43.737  61.384 -49.399  1.00  0.00     0.025 C 
ENDBRANCH   3  32
TORSDOF 6
ENDMDL
MODEL 2
REMARK VINA RESULT:      -8.6      3.493      7.412
REMARK  6 active torsions:
REMARK  status: ('A' for Active; 'I' for Inactive)
REMARK    1  A    between atoms: O_2  and  C_3 
REMARK    2  A    between atoms: C_6  and  C_7 
REMARK    3  A    between atoms: C_9  and  N_10 
REMARK    4  A    between atoms: N_10  and  N_11 
REMARK       I    between atoms: N_10  and  C_22 
REMARK       I    between atoms: N_11  and  C_12 
REMARK       I    between atoms: C_12  and  N_13 
REMARK    5  A    between atoms: N_13  and  C_14 
REMARK       I    between atoms: C_22  and  N_23 
REMARK    6  A    between atoms: N_23  and  C_24 
ROOT
HETATM    1  N   UNL     1     -42.696  57.451 -56.017  1.00  0.00    -0.195 N 
HETATM    2  C   UNL     1     -42.299  58.651 -55.407  1.00  0.00     0.340 C 
HETATM    3  N   UNL     1     -41.982  58.596 -54.067  1.00  0.00    -0.337 N 
HETATM    4  O   UNL     1     -42.166  59.696 -56.055  1.00  0.00    -0.245 OA
HETATM    5  H   UNL     1     -41.906  57.677 -53.657  1.00  0.00     0.164 HD
ENDROOT
BRANCH   1   6
HETATM    6  C   UNL     1     -42.879  56.282 -55.292  1.00  0.00     0.193 A 
HETATM    7  N   UNL     1     -41.913  55.444 -54.992  1.00  0.00    -0.222 NA
HETATM    8  C   UNL     1     -42.406  54.435 -54.182  1.00  0.00     0.076 A 
HETATM    9  C   UNL     1     -43.776  54.459 -53.993  1.00  0.00     0.085 A 
HETATM   10  S   UNL     1     -44.448  55.828 -54.786  1.00  0.00    -0.060 SA
BRANCH   8  11
HETATM   11  C   UNL     1     -41.498  53.495 -53.540  1.00  0.00    -0.007 A 
HETATM   12  C   UNL     1     -40.976  52.438 -54.301  1.00  0.00     0.016 A 
HETATM   13  C   UNL     1     -40.081  51.520 -53.741  1.00  0.00     0.037 A 
HETATM   14  C   UNL     1     -39.705  51.640 -52.405  1.00  0.00     0.068 A 
HETATM   15  C   UNL     1     -40.221  52.692 -51.643  1.00  0.00     0.037 A 
HETATM   16  C   UNL     1     -41.113  53.615 -52.202  1.00  0.00     0.016 A 
BRANCH  14  17
HETATM   17  O   UNL     1     -38.849  50.808 -51.737  1.00  0.00    -0.356 OA
HETATM   18  C   UNL     1     -39.443  49.812 -50.913  1.00  0.00     0.210 C 
ENDBRANCH  14  17
ENDBRANCH   8  11
ENDBRANCH   1   6
BRANCH   1  19
HETATM   19  N   UNL     1     -42.167  57.234 -57.336  1.00  0.00    -0.142 NA
HETATM   20  C   UNL     1     -42.999  56.824 -58.356  1.00  0.00     0.317 C 
HETATM   21  N   UNL     1     -44.218  57.450 -58.389  1.00  0.00    -0.312 N 
HETATM   22  O   UNL     1     -42.582  55.991 -59.156  1.00  0.00    -0.252 OA
HETATM   23  H   UNL     1     -44.263  58.294 -57.822  1.00  0.00     0.170 HD
HETATM   24  H   UNL     1     -41.302  56.696 -57.320  1.00  0.00     0.158 HD
BRANCH  21  25
HETATM   25  C   UNL     1     -45.274  57.240 -59.295  1.00  0.00     0.036 A 
HETATM   26  C   UNL     1     -45.616  55.988 -59.812  1.00  0.00     0.031 A 
HETATM   27  C   UNL     1     -46.674  55.862 -60.719  1.00  0.00     0.026 A 
HETATM   28  C   UNL     1     -47.394  56.988 -61.108  1.00  0.00     0.034 A 
HETATM   29 CL   UNL     1     -48.690  56.832 -62.229  1.00  0.00    -0.084 Cl
HETATM   30  C   UNL     1     -47.070  58.239 -60.592  1.00  0.00     0.026 A 
HETATM   31  C   UNL     1     -46.015  58.363 -59.685  1.00  0.00     0.031 A 
ENDBRANCH  21  25
ENDBRANCH   1  19
BRANCH   3  32
HETATM   32  C   UNL     1     -41.170  59.626 -53.429  1.00  0.00     0.086 C 
HETATM   33  C   UNL     1     -42.041  60.531 -52.548  1.00  0.00     0.025 C 
HETATM   34  C   UNL     1     -42.563  59.822 -51.296  1.00  0.00     0.002 C 
HETATM   35  C   UNL     1     -41.440  59.163 -50.499  1.00  0.00     0.000 C 
HETATM   36  C   UNL     1     -40.580  58.250 -51.367  1.00  0.00     0.002 C 
HETATM   37  C   UNL     1     -40.046  58.984 -52.598  1.00  0.00     0.025 C 
ENDBRANCH   3  32
TORSDOF 6
ENDMDL
MODEL 3
REMARK VINA RESULT:      -8.3      4.141      6.347
REMARK  6 active torsions:
REMARK  status: ('A' for Active; 'I' for Inactive)
REMARK    1  A    between atoms: O_2  and  C_3 
REMARK    2  A    between atoms: C_6  and  C_7 
REMARK    3  A    between atoms: C_9  and  N_10 
REMARK    4  A    between atoms: N_10  and  N_11 
REMARK       I    between atoms: N_10  and  C_22 
REMARK       I    between atoms: N_11  and  C_12 
REMARK       I    between atoms: C_12  and  N_13 
REMARK    5  A    between atoms: N_13  and  C_14 
REMARK       I    between atoms: C_22  and  N_23 
REMARK    6  A    between atoms: N_23  and  C_24 
ROOT
HETATM    1  N   UNL     1     -43.004  57.966 -56.937  1.00  0.00    -0.195 N 
HETATM    2  C   UNL     1     -42.376  59.198 -57.178  1.00  0.00     0.340 C 
HETATM    3  N   UNL     1     -42.591  59.777 -58.411  1.00  0.00    -0.337 N 
HETATM    4  O   UNL     1     -41.723  59.777 -56.303  1.00  0.00    -0.245 OA
HETATM    5  H   UNL     1     -43.302  59.357 -58.990  1.00  0.00     0.164 HD
ENDROOT
BRANCH   1   6
HETATM    6  C   UNL     1     -43.712  57.294 -57.923  1.00  0.00     0.193 A 
HETATM    7  N   UNL     1     -44.849  57.713 -58.426  1.00  0.00    -0.222 NA
HETATM    8  C   UNL     1     -45.243  56.872 -59.454  1.00  0.00     0.076 A 
HETATM    9  C   UNL     1     -44.454  55.749 -59.620  1.00  0.00     0.085 A 
HETATM   10  S   UNL     1     -43.140  55.793 -58.512  1.00  0.00    -0.060 SA
BRANCH   8  11
HETATM   11  C   UNL     1     -46.363  57.232 -60.313  1.00  0.00    -0.007 A 
HETATM   12  C   UNL     1     -46.713  58.585 -60.431  1.00  0.00     0.016 A 
HETATM   13  C   UNL     1     -47.765  58.989 -61.260  1.00  0.00     0.037 A 
HETATM   14  C   UNL     1     -48.491  58.039 -61.976  1.00  0.00     0.068 A 
HETATM   15  C   UNL     1     -48.145  56.690 -61.864  1.00  0.00     0.037 A 
HETATM   16  C   UNL     1     -47.090  56.284 -61.038  1.00  0.00     0.016 A 
BRANCH  14  17
HETATM   17  O   UNL     1     -49.542  58.299 -62.811  1.00  0.00    -0.356 OA
HETATM   18  C   UNL     1     -50.547  59.176 -62.316  1.00  0.00     0.210 C 
ENDBRANCH  14  17
ENDBRANCH   8  11
ENDBRANCH   1   6
BRANCH   1  19
HETATM   19  N   UNL     1     -43.564  57.815 -55.622  1.00  0.00    -0.142 NA
HETATM   20  C   UNL     1     -43.291  56.685 -54.879  1.00  0.00     0.317 C 
HETATM   21  N   UNL     1     -41.988  56.266 -54.932  1.00  0.00    -0.312 N 
HETATM   22  O   UNL     1     -44.194  56.187 -54.213  1.00  0.00    -0.252 OA
HETATM   23  H   UNL     1     -41.345  56.961 -55.305  1.00  0.00     0.170 HD
HETATM   24  H   UNL     1     -44.556  58.048 -55.597  1.00  0.00     0.158 HD
BRANCH  21  25
HETATM   25  C   UNL     1     -41.412  55.150 -54.296  1.00  0.00     0.036 A 
HETATM   26  C   UNL     1     -41.398  54.967 -52.911  1.00  0.00     0.031 A 
HETATM   27  C   UNL     1     -40.795  53.835 -52.352  1.00  0.00     0.026 A 
HETATM   28  C   UNL     1     -40.208  52.881 -53.179  1.00  0.00     0.034 A 
HETATM   29 CL   UNL     1     -39.460  51.493 -52.490  1.00  0.00    -0.084 Cl
HETATM   30  C   UNL     1     -40.226  53.045 -54.561  1.00  0.00     0.026 A 
HETATM   31  C   UNL     1     -40.829  54.176 -55.117  1.00  0.00     0.031 A 
ENDBRANCH  21  25
ENDBRANCH   1  19
BRANCH   3  32
HETATM   32  C   UNL     1     -42.371  61.201 -58.636  1.00  0.00     0.086 C 
HETATM   33  C   UNL     1     -41.316  61.416 -59.729  1.00  0.00     0.025 C 
HETATM   34  C   UNL     1     -41.811  61.023 -61.123  1.00  0.00     0.002 C 
HETATM   35  C   UNL     1     -43.137  61.694 -61.472  1.00  0.00     0.000 C 
HETATM   36  C   UNL     1     -44.194  61.469 -60.396  1.00  0.00     0.002 C 
HETATM   37  C   UNL     1     -43.690  61.894 -59.015  1.00  0.00     0.025 C 
ENDBRANCH   3  32
TORSDOF 6
ENDMDL
MODEL 4
REMARK VINA RESULT:      -8.0      3.699      7.926
REMARK  6 active torsions:
REMARK  status: ('A' for Active; 'I' for Inactive)
REMARK    1  A    between atoms: O_2  and  C_3 
REMARK    2  A    between atoms: C_6  and  C_7 
REMARK    3  A    between atoms: C_9  and  N_10 
REMARK    4  A    between atoms: N_10  and  N_11 
REMARK       I    between atoms: N_10  and  C_22 
REMARK       I    between atoms: N_11  and  C_12 
REMARK       I    between atoms: C_12  and  N_13 
REMARK    5  A    between atoms: N_13  and  C_14 
REMARK       I    between atoms: C_22  and  N_23 
REMARK    6  A    between atoms: N_23  and  C_24 
ROOT
HETATM    1  N   UNL     1     -43.365  57.029 -56.216  1.00  0.00    -0.195 N 
HETATM    2  C   UNL     1     -43.718  58.234 -55.591  1.00  0.00     0.340 C 
HETATM    3  N   UNL     1     -43.448  58.341 -54.243  1.00  0.00    -0.337 N 
HETATM    4  O   UNL     1     -44.179  59.186 -56.230  1.00  0.00    -0.245 OA
HETATM    5  H   UNL     1     -42.879  57.614 -53.836  1.00  0.00     0.164 HD
ENDROOT
BRANCH   1   6
HETATM    6  C   UNL     1     -42.876  55.944 -55.501  1.00  0.00     0.193 A 
HETATM    7  N   UNL     1     -42.149  56.048 -54.413  1.00  0.00    -0.222 NA
HETATM    8  C   UNL     1     -41.908  54.787 -53.890  1.00  0.00     0.076 A 
HETATM    9  C   UNL     1     -42.351  53.739 -54.676  1.00  0.00     0.085 A 
HETATM   10  S   UNL     1     -43.161  54.353 -56.063  1.00  0.00    -0.060 SA
BRANCH   8  11
HETATM   11  C   UNL     1     -41.302  54.638 -52.575  1.00  0.00    -0.007 A 
HETATM   12  C   UNL     1     -40.660  53.431 -52.262  1.00  0.00     0.016 A 
HETATM   13  C   UNL     1     -40.041  53.243 -51.022  1.00  0.00     0.037 A 
HETATM   14  C   UNL     1     -40.067  54.259 -50.069  1.00  0.00     0.068 A 
HETATM   15  C   UNL     1     -40.704  55.465 -50.377  1.00  0.00     0.037 A 
HETATM   16  C   UNL     1     -41.320  55.657 -51.618  1.00  0.00     0.016 A 
BRANCH  14  17
HETATM   17  O   UNL     1     -39.511  54.201 -48.822  1.00  0.00    -0.356 OA
HETATM   18  C   UNL     1     -40.344  53.714 -47.775  1.00  0.00     0.210 C 
ENDBRANCH  14  17
ENDBRANCH   8  11
ENDBRANCH   1   6
BRANCH   1  19
HETATM   19  N   UNL     1     -42.780  57.167 -57.522  1.00  0.00    -0.142 NA
HETATM   20  C   UNL     1     -43.545  56.946 -58.648  1.00  0.00     0.317 C 
HETATM   21  N   UNL     1     -44.811  57.468 -58.594  1.00  0.00    -0.312 N 
HETATM   22  O   UNL     1     -43.035  56.358 -59.598  1.00  0.00    -0.252 OA
HETATM   23  H   UNL     1     -44.945  58.150 -57.850  1.00  0.00     0.170 HD
HETATM   24  H   UNL     1     -41.874  56.707 -57.589  1.00  0.00     0.158 HD
BRANCH  21  25
HETATM   25  C   UNL     1     -45.818  57.397 -59.575  1.00  0.00     0.036 A 
HETATM   26  C   UNL     1     -46.287  56.199 -60.121  1.00  0.00     0.031 A 
HETATM   27  C   UNL     1     -47.285  56.211 -61.101  1.00  0.00     0.026 A 
HETATM   28  C   UNL     1     -47.818  57.421 -61.535  1.00  0.00     0.034 A 
HETATM   29 CL   UNL     1     -49.040  57.435 -62.747  1.00  0.00    -0.084 Cl
HETATM   30  C   UNL     1     -47.368  58.620 -60.991  1.00  0.00     0.026 A 
HETATM   31  C   UNL     1     -46.373  58.606 -60.010  1.00  0.00     0.031 A 
ENDBRANCH  21  25
ENDBRANCH   1  19
BRANCH   3  32
HETATM   32  C   UNL     1     -43.362  59.638 -53.580  1.00  0.00     0.086 C 
HETATM   33  C   UNL     1     -43.973  59.566 -52.175  1.00  0.00     0.025 C 
HETATM   34  C   UNL     1     -43.133  58.738 -51.200  1.00  0.00     0.002 C 
HETATM   35  C   UNL     1     -41.677  59.195 -51.164  1.00  0.00     0.000 C 
HETATM   36  C   UNL     1     -41.060  59.252 -52.558  1.00  0.00     0.002 C 
HETATM   37  C   UNL     1     -41.899  60.108 -53.510  1.00  0.00     0.025 C 
ENDBRANCH   3  32
TORSDOF 6
ENDMDL
MODEL 5
REMARK VINA RESULT:      -7.9      3.562      7.167
REMARK  6 active torsions:
REMARK  status: ('A' for Active; 'I' for Inactive)
REMARK    1  A    between atoms: O_2  and  C_3 
REMARK    2  A    between atoms: C_6  and  C_7 
REMARK    3  A    between atoms: C_9  and  N_10 
REMARK    4  A    between atoms: N_10  and  N_11 
REMARK       I    between atoms: N_10  and  C_22 
REMARK       I    between atoms: N_11  and  C_12 
REMARK       I    between atoms: C_12  and  N_13 
REMARK    5  A    between atoms: N_13  and  C_14 
REMARK       I    between atoms: C_22  and  N_23 
REMARK    6  A    between atoms: N_23  and  C_24 
ROOT
HETATM    1  N   UNL     1     -43.533  58.667 -52.419  1.00  0.00    -0.195 N 
HETATM    2  C   UNL     1     -43.142  57.411 -51.931  1.00  0.00     0.340 C 
HETATM    3  N   UNL     1     -43.175  56.358 -52.821  1.00  0.00    -0.337 N 
HETATM    4  O   UNL     1     -42.717  57.264 -50.780  1.00  0.00    -0.245 OA
HETATM    5  H   UNL     1     -43.324  56.590 -53.791  1.00  0.00     0.164 HD
ENDROOT
BRANCH   1   6
HETATM    6  C   UNL     1     -44.042  58.835 -53.699  1.00  0.00     0.193 A 
HETATM    7  N   UNL     1     -43.608  58.184 -54.753  1.00  0.00    -0.222 NA
HETATM    8  C   UNL     1     -44.387  58.506 -55.854  1.00  0.00     0.076 A 
HETATM    9  C   UNL     1     -45.319  59.503 -55.633  1.00  0.00     0.085 A 
HETATM   10  S   UNL     1     -45.270  59.991 -53.985  1.00  0.00    -0.060 SA
BRANCH   8  11
HETATM   11  C   UNL     1     -44.246  57.764 -57.098  1.00  0.00    -0.007 A 
HETATM   12  C   UNL     1     -43.125  56.938 -57.267  1.00  0.00     0.016 A 
HETATM   13  C   UNL     1     -42.951  56.186 -58.434  1.00  0.00     0.037 A 
HETATM   14  C   UNL     1     -43.896  56.259 -59.456  1.00  0.00     0.068 A 
HETATM   15  C   UNL     1     -45.016  57.078 -59.292  1.00  0.00     0.037 A 
HETATM   16  C   UNL     1     -45.194  57.829 -58.124  1.00  0.00     0.016 A 
BRANCH  14  17
HETATM   17  O   UNL     1     -43.841  55.585 -60.644  1.00  0.00    -0.356 OA
HETATM   18  C   UNL     1     -45.085  55.171 -61.199  1.00  0.00     0.210 C 
ENDBRANCH  14  17
ENDBRANCH   8  11
ENDBRANCH   1   6
BRANCH   1  19
HETATM   19  N   UNL     1     -42.730  59.771 -51.969  1.00  0.00    -0.142 NA
HETATM   20  C   UNL     1     -43.293  60.767 -51.197  1.00  0.00     0.317 C 
HETATM   21  N   UNL     1     -44.146  60.322 -50.222  1.00  0.00    -0.312 N 
HETATM   22  O   UNL     1     -42.962  61.930 -51.406  1.00  0.00    -0.252 OA
HETATM   23  H   UNL     1     -44.071  59.325 -50.031  1.00  0.00     0.170 HD
HETATM   24  H   UNL     1     -42.155  60.158 -52.716  1.00  0.00     0.158 HD
BRANCH  21  25
HETATM   25  C   UNL     1     -44.873  61.090 -49.293  1.00  0.00     0.036 A 
HETATM   26  C   UNL     1     -44.532  61.203 -47.943  1.00  0.00     0.031 A 
HETATM   27  C   UNL     1     -45.313  61.979 -47.078  1.00  0.00     0.026 A 
HETATM   28  C   UNL     1     -46.434  62.646 -47.564  1.00  0.00     0.034 A 
HETATM   29 CL   UNL     1     -47.397  63.592 -46.498  1.00  0.00    -0.084 Cl
HETATM   30  C   UNL     1     -46.777  62.551 -48.909  1.00  0.00     0.026 A 
HETATM   31  C   UNL     1     -45.996  61.777 -49.771  1.00  0.00     0.031 A 
ENDBRANCH  21  25
ENDBRANCH   1  19
BRANCH   3  32
HETATM   32  C   UNL     1     -42.414  55.135 -52.588  1.00  0.00     0.086 C 
HETATM   33  C   UNL     1     -43.020  53.966 -53.374  1.00  0.00     0.025 C 
HETATM   34  C   UNL     1     -42.817  54.094 -54.886  1.00  0.00     0.002 C 
HETATM   35  C   UNL     1     -41.354  54.328 -55.251  1.00  0.00     0.000 C 
HETATM   36  C   UNL     1     -40.751  55.500 -54.483  1.00  0.00     0.002 C 
HETATM   37  C   UNL     1     -40.939  55.339 -52.973  1.00  0.00     0.025 C 
ENDBRANCH   3  32
TORSDOF 6
ENDMDL
MODEL 6
REMARK VINA RESULT:      -7.8     16.690     18.611
REMARK  6 active torsions:
REMARK  status: ('A' for Active; 'I' for Inactive)
REMARK    1  A    between atoms: O_2  and  C_3 
REMARK    2  A    between atoms: C_6  and  C_7 
REMARK    3  A    between atoms: C_9  and  N_10 
REMARK    4  A    between atoms: N_10  and  N_11 
REMARK       I    between atoms: N_10  and  C_22 
REMARK       I    between atoms: N_11  and  C_12 
REMARK       I    between atoms: C_12  and  N_13 
REMARK    5  A    between atoms: N_13  and  C_14 
REMARK       I    between atoms: C_22  and  N_23 
REMARK    6  A    between atoms: N_23  and  C_24 
ROOT
HETATM    1  N   UNL     1     -37.714  40.649 -52.663  1.00  0.00    -0.195 N 
HETATM    2  C   UNL     1     -36.983  40.112 -51.593  1.00  0.00     0.340 C 
HETATM    3  N   UNL     1     -35.613  40.050 -51.741  1.00  0.00    -0.337 N 
HETATM    4  O   UNL     1     -37.529  39.778 -50.536  1.00  0.00    -0.245 OA
HETATM    5  H   UNL     1     -35.222  40.534 -52.535  1.00  0.00     0.164 HD
ENDROOT
BRANCH   1   6
HETATM    6  C   UNL     1     -37.114  40.996 -53.865  1.00  0.00     0.193 A 
HETATM    7  N   UNL     1     -37.363  40.403 -55.010  1.00  0.00    -0.222 NA
HETATM    8  C   UNL     1     -36.679  41.047 -56.028  1.00  0.00     0.076 A 
HETATM    9  C   UNL     1     -35.815  42.041 -55.608  1.00  0.00     0.085 A 
HETATM   10  S   UNL     1     -35.925  42.226 -53.902  1.00  0.00    -0.060 SA
BRANCH   8  11
HETATM   11  C   UNL     1     -36.947  40.716 -57.420  1.00  0.00    -0.007 A 
HETATM   12  C   UNL     1     -36.990  41.754 -58.363  1.00  0.00     0.016 A 
HETATM   13  C   UNL     1     -37.221  41.490 -59.717  1.00  0.00     0.037 A 
HETATM   14  C   UNL     1     -37.423  40.180 -60.146  1.00  0.00     0.068 A 
HETATM   15  C   UNL     1     -37.379  39.142 -59.212  1.00  0.00     0.037 A 
HETATM   16  C   UNL     1     -37.144  39.403 -57.856  1.00  0.00     0.016 A 
BRANCH  14  17
HETATM   17  O   UNL     1     -37.666  39.789 -61.433  1.00  0.00    -0.356 OA
HETATM   18  C   UNL     1     -38.096  38.445 -61.620  1.00  0.00     0.210 C 
ENDBRANCH  14  17
ENDBRANCH   8  11
ENDBRANCH   1   6
BRANCH   1  19
HETATM   19  N   UNL     1     -38.794  41.520 -52.286  1.00  0.00    -0.142 NA
HETATM   20  C   UNL     1     -40.076  41.024 -52.176  1.00  0.00     0.317 C 
HETATM   21  N   UNL     1     -40.167  39.801 -51.566  1.00  0.00    -0.312 N 
HETATM   22  O   UNL     1     -41.009  41.714 -52.578  1.00  0.00    -0.252 OA
HETATM   23  H   UNL     1     -39.327  39.528 -51.061  1.00  0.00     0.170 HD
HETATM   24  H   UNL     1     -38.776  42.400 -52.801  1.00  0.00     0.158 HD
BRANCH  21  25
HETATM   25  C   UNL     1     -41.326  39.041 -51.321  1.00  0.00     0.036 A 
HETATM   26  C   UNL     1     -42.144  38.525 -52.329  1.00  0.00     0.031 A 
HETATM   27  C   UNL     1     -43.288  37.787 -52.004  1.00  0.00     0.026 A 
HETATM   28  C   UNL     1     -43.614  37.562 -50.670  1.00  0.00     0.034 A 
HETATM   29 CL   UNL     1     -45.025  36.662 -50.272  1.00  0.00    -0.084 Cl
HETATM   30  C   UNL     1     -42.801  38.061 -49.656  1.00  0.00     0.026 A 
HETATM   31  C   UNL     1     -41.659  38.796 -49.982  1.00  0.00     0.031 A 
ENDBRANCH  21  25
ENDBRANCH   1  19
BRANCH   3  32
HETATM   32  C   UNL     1     -34.724  39.926 -50.591  1.00  0.00     0.086 C 
HETATM   33  C   UNL     1     -34.168  38.500 -50.492  1.00  0.00     0.025 C 
HETATM   34  C   UNL     1     -33.173  38.167 -51.606  1.00  0.00     0.002 C 
HETATM   35  C   UNL     1     -32.059  39.206 -51.711  1.00  0.00     0.000 C 
HETATM   36  C   UNL     1     -32.607  40.625 -51.827  1.00  0.00     0.002 C 
HETATM   37  C   UNL     1     -33.578  40.947 -50.688  1.00  0.00     0.025 C 
ENDBRANCH   3  32
TORSDOF 6
ENDMDL
MODEL 7
REMARK VINA RESULT:      -7.8      2.925      7.148
REMARK  6 active torsions:
REMARK  status: ('A' for Active; 'I' for Inactive)
REMARK    1  A    between atoms: O_2  and  C_3 
REMARK    2  A    between atoms: C_6  and  C_7 
REMARK    3  A    between atoms: C_9  and  N_10 
REMARK    4  A    between atoms: N_10  and  N_11 
REMARK       I    between atoms: N_10  and  C_22 
REMARK       I    between atoms: N_11  and  C_12 
REMARK       I    between atoms: C_12  and  N_13 
REMARK    5  A    between atoms: N_13  and  C_14 
REMARK       I    between atoms: C_22  and  N_23 
REMARK    6  A    between atoms: N_23  and  C_24 
ROOT
HETATM    1  N   UNL     1     -42.965  55.967 -56.308  1.00  0.00    -0.195 N 
HETATM    2  C   UNL     1     -43.644  55.683 -57.503  1.00  0.00     0.340 C 
HETATM    3  N   UNL     1     -44.359  56.715 -58.075  1.00  0.00    -0.337 N 
HETATM    4  O   UNL     1     -43.548  54.584 -58.060  1.00  0.00    -0.245 OA
HETATM    5  H   UNL     1     -44.218  57.634 -57.684  1.00  0.00     0.164 HD
ENDROOT
BRANCH   1   6
HETATM    6  C   UNL     1     -43.094  57.188 -55.659  1.00  0.00     0.193 A 
HETATM    7  N   UNL     1     -43.826  57.376 -54.586  1.00  0.00    -0.222 NA
HETATM    8  C   UNL     1     -43.663  58.675 -54.132  1.00  0.00     0.076 A 
HETATM    9  C   UNL     1     -42.906  59.487 -54.956  1.00  0.00     0.085 A 
HETATM   10  S   UNL     1     -42.319  58.575 -56.291  1.00  0.00    -0.060 SA
BRANCH   8  11
HETATM   11  C   UNL     1     -44.203  59.077 -52.841  1.00  0.00    -0.007 A 
HETATM   12  C   UNL     1     -44.023  60.403 -52.420  1.00  0.00     0.016 A 
HETATM   13  C   UNL     1     -44.541  60.850 -51.200  1.00  0.00     0.037 A 
HETATM   14  C   UNL     1     -45.238  59.969 -50.375  1.00  0.00     0.068 A 
HETATM   15  C   UNL     1     -45.422  58.647 -50.791  1.00  0.00     0.037 A 
HETATM   16  C   UNL     1     -44.908  58.199 -52.014  1.00  0.00     0.016 A 
BRANCH  14  17
HETATM   17  O   UNL     1     -45.785  60.274 -49.160  1.00  0.00    -0.356 OA
HETATM   18  C   UNL     1     -45.937  61.656 -48.859  1.00  0.00     0.210 C 
ENDBRANCH  14  17
ENDBRANCH   8  11
ENDBRANCH   1   6
BRANCH   1  19
HETATM   19  N   UNL     1     -41.651  55.396 -56.204  1.00  0.00    -0.142 NA
HETATM   20  C   UNL     1     -41.035  55.295 -54.973  1.00  0.00     0.317 C 
HETATM   21  N   UNL     1     -41.855  54.885 -53.955  1.00  0.00    -0.312 N 
HETATM   22  O   UNL     1     -39.832  55.528 -54.897  1.00  0.00    -0.252 OA
HETATM   23  H   UNL     1     -42.733  54.478 -54.270  1.00  0.00     0.170 HD
HETATM   24  H   UNL     1     -41.015  55.762 -56.911  1.00  0.00     0.158 HD
BRANCH  21  25
HETATM   25  C   UNL     1     -41.523  54.701 -52.599  1.00  0.00     0.036 A 
HETATM   26  C   UNL     1     -40.841  53.584 -52.112  1.00  0.00     0.031 A 
HETATM   27  C   UNL     1     -40.558  53.467 -50.746  1.00  0.00     0.026 A 
HETATM   28  C   UNL     1     -40.953  54.471 -49.867  1.00  0.00     0.034 A 
HETATM   29 CL   UNL     1     -40.610  54.322 -48.187  1.00  0.00    -0.084 Cl
HETATM   30  C   UNL     1     -41.623  55.594 -50.341  1.00  0.00     0.026 A 
HETATM   31  C   UNL     1     -41.904  55.710 -51.705  1.00  0.00     0.031 A 
ENDBRANCH  21  25
ENDBRANCH   1  19
BRANCH   3  32
HETATM   32  C   UNL     1     -44.740  56.693 -59.483  1.00  0.00     0.086 C 
HETATM   33  C   UNL     1     -46.265  56.774 -59.629  1.00  0.00     0.025 C 
HETATM   34  C   UNL     1     -46.830  58.143 -59.245  1.00  0.00     0.002 C 
HETATM   35  C   UNL     1     -46.127  59.281 -59.980  1.00  0.00     0.000 C 
HETATM   36  C   UNL     1     -44.611  59.215 -59.824  1.00  0.00     0.002 C 
HETATM   37  C   UNL     1     -44.063  57.848 -60.240  1.00  0.00     0.025 C 
ENDBRANCH   3  32
TORSDOF 6
ENDMDL
MODEL 8
REMARK VINA RESULT:      -7.4      3.054      6.037
REMARK  6 active torsions:
REMARK  status: ('A' for Active; 'I' for Inactive)
REMARK    1  A    between atoms: O_2  and  C_3 
REMARK    2  A    between atoms: C_6  and  C_7 
REMARK    3  A    between atoms: C_9  and  N_10 
REMARK    4  A    between atoms: N_10  and  N_11 
REMARK       I    between atoms: N_10  and  C_22 
REMARK       I    between atoms: N_11  and  C_12 
REMARK       I    between atoms: C_12  and  N_13 
REMARK    5  A    between atoms: N_13  and  C_14 
REMARK       I    between atoms: C_22  and  N_23 
REMARK    6  A    between atoms: N_23  and  C_24 
ROOT
HETATM    1  N   UNL     1     -43.910  59.451 -54.515  1.00  0.00    -0.195 N 
HETATM    2  C   UNL     1     -44.843  60.095 -53.689  1.00  0.00     0.340 C 
HETATM    3  N   UNL     1     -44.584  60.095 -52.335  1.00  0.00    -0.337 N 
HETATM    4  O   UNL     1     -45.815  60.700 -54.155  1.00  0.00    -0.245 OA
HETATM    5  H   UNL     1     -43.671  59.773 -52.049  1.00  0.00     0.164 HD
ENDROOT
BRANCH   1   6
HETATM    6  C   UNL     1     -42.834  58.742 -53.998  1.00  0.00     0.193 A 
HETATM    7  N   UNL     1     -42.731  57.434 -54.033  1.00  0.00    -0.222 NA
HETATM    8  C   UNL     1     -41.500  57.049 -53.526  1.00  0.00     0.076 A 
HETATM    9  C   UNL     1     -40.746  58.077 -52.991  1.00  0.00     0.085 A 
HETATM   10  S   UNL     1     -41.567  59.573 -53.205  1.00  0.00    -0.060 SA
BRANCH   8  11
HETATM   11  C   UNL     1     -41.053  55.668 -53.644  1.00  0.00    -0.007 A 
HETATM   12  C   UNL     1     -40.513  55.238 -54.865  1.00  0.00     0.016 A 
HETATM   13  C   UNL     1     -40.047  53.929 -55.026  1.00  0.00     0.037 A 
HETATM   14  C   UNL     1     -40.127  53.026 -53.968  1.00  0.00     0.068 A 
HETATM   15  C   UNL     1     -40.662  53.450 -52.749  1.00  0.00     0.037 A 
HETATM   16  C   UNL     1     -41.125  54.761 -52.583  1.00  0.00     0.016 A 
BRANCH  14  17
HETATM   17  O   UNL     1     -39.717  51.722 -53.996  1.00  0.00    -0.356 OA
HETATM   18  C   UNL     1     -40.728  50.741 -54.198  1.00  0.00     0.210 C 
ENDBRANCH  14  17
ENDBRANCH   8  11
ENDBRANCH   1   6
BRANCH   1  19
HETATM   19  N   UNL     1     -43.612  60.132 -55.745  1.00  0.00    -0.142 NA
HETATM   20  C   UNL     1     -43.460  59.414 -56.914  1.00  0.00     0.317 C 
HETATM   21  N   UNL     1     -44.373  58.408 -57.092  1.00  0.00    -0.312 N 
HETATM   22  O   UNL     1     -42.578  59.750 -57.699  1.00  0.00    -0.252 OA
HETATM   23  H   UNL     1     -45.181  58.470 -56.477  1.00  0.00     0.170 HD
HETATM   24  H   UNL     1     -42.874  60.825 -55.633  1.00  0.00     0.158 HD
BRANCH  21  25
HETATM   25  C   UNL     1     -44.466  57.506 -58.169  1.00  0.00     0.036 A 
HETATM   26  C   UNL     1     -43.542  56.486 -58.409  1.00  0.00     0.031 A 
HETATM   27  C   UNL     1     -43.698  55.635 -59.509  1.00  0.00     0.026 A 
HETATM   28  C   UNL     1     -44.780  55.801 -60.368  1.00  0.00     0.034 A 
HETATM   29 CL   UNL     1     -44.966  54.759 -61.725  1.00  0.00    -0.084 Cl
HETATM   30  C   UNL     1     -45.714  56.806 -60.133  1.00  0.00     0.026 A 
HETATM   31  C   UNL     1     -45.558  57.653 -59.033  1.00  0.00     0.031 A 
ENDBRANCH  21  25
ENDBRANCH   1  19
BRANCH   3  32
HETATM   32  C   UNL     1     -45.208  61.060 -51.436  1.00  0.00     0.086 C 
HETATM   33  C   UNL     1     -44.786  60.794 -49.985  1.00  0.00     0.025 C 
HETATM   34  C   UNL     1     -43.317  61.131 -49.720  1.00  0.00     0.002 C 
HETATM   35  C   UNL     1     -42.962  62.546 -50.166  1.00  0.00     0.000 C 
HETATM   36  C   UNL     1     -43.365  62.810 -51.613  1.00  0.00     0.002 C 
HETATM   37  C   UNL     1     -44.843  62.495 -51.851  1.00  0.00     0.025 C 
ENDBRANCH   3  32
TORSDOF 6
ENDMDL
MODEL 9
REMARK VINA RESULT:      -7.2      3.305      6.149
REMARK  6 active torsions:
REMARK  status: ('A' for Active; 'I' for Inactive)
REMARK    1  A    between atoms: O_2  and  C_3 
REMARK    2  A    between atoms: C_6  and  C_7 
REMARK    3  A    between atoms: C_9  and  N_10 
REMARK    4  A    between atoms: N_10  and  N_11 
REMARK       I    between atoms: N_10  and  C_22 
REMARK       I    between atoms: N_11  and  C_12 
REMARK       I    between atoms: C_12  and  N_13 
REMARK    5  A    between atoms: N_13  and  C_14 
REMARK       I    between atoms: C_22  and  N_23 
REMARK    6  A    between atoms: N_23  and  C_24 
ROOT
HETATM    1  N   UNL     1     -44.751  58.355 -54.237  1.00  0.00    -0.195 N 
HETATM    2  C   UNL     1     -44.396  57.291 -53.394  1.00  0.00     0.340 C 
HETATM    3  N   UNL     1     -43.674  56.261 -53.959  1.00  0.00    -0.337 N 
HETATM    4  O   UNL     1     -44.650  57.308 -52.185  1.00  0.00    -0.245 OA
HETATM    5  H   UNL     1     -43.320  56.414 -54.891  1.00  0.00     0.164 HD
ENDROOT
BRANCH   1   6
HETATM    6  C   UNL     1     -44.498  58.330 -55.602  1.00  0.00     0.193 A 
HETATM    7  N   UNL     1     -45.232  57.677 -56.473  1.00  0.00    -0.222 NA
HETATM    8  C   UNL     1     -44.773  57.934 -57.755  1.00  0.00     0.076 A 
HETATM    9  C   UNL     1     -43.609  58.678 -57.816  1.00  0.00     0.085 A 
HETATM   10  S   UNL     1     -43.126  59.134 -56.231  1.00  0.00    -0.060 SA
BRANCH   8  11
HETATM   11  C   UNL     1     -45.539  57.497 -58.914  1.00  0.00    -0.007 A 
HETATM   12  C   UNL     1     -45.201  56.280 -59.524  1.00  0.00     0.016 A 
HETATM   13  C   UNL     1     -45.919  55.802 -60.626  1.00  0.00     0.037 A 
HETATM   14  C   UNL     1     -46.981  56.543 -61.140  1.00  0.00     0.068 A 
HETATM   15  C   UNL     1     -47.323  57.755 -60.534  1.00  0.00     0.037 A 
HETATM   16  C   UNL     1     -46.609  58.234 -59.429  1.00  0.00     0.016 A 
BRANCH  14  17
HETATM   17  O   UNL     1     -47.754  56.195 -62.212  1.00  0.00    -0.356 OA
HETATM   18  C   UNL     1     -48.875  57.028 -62.487  1.00  0.00     0.210 C 
ENDBRANCH  14  17
ENDBRANCH   8  11
ENDBRANCH   1   6
BRANCH   1  19
HETATM   19  N   UNL     1     -44.628  59.663 -53.653  1.00  0.00    -0.142 NA
HETATM   20  C   UNL     1     -43.671  59.902 -52.689  1.00  0.00     0.317 C 
HETATM   21  N   UNL     1     -42.449  59.335 -52.940  1.00  0.00    -0.312 N 
HETATM   22  O   UNL     1     -43.964  60.618 -51.735  1.00  0.00    -0.252 OA
HETATM   23  H   UNL     1     -42.329  59.023 -53.902  1.00  0.00     0.170 HD
HETATM   24  H   UNL     1     -45.532  60.052 -53.389  1.00  0.00     0.158 HD
BRANCH  21  25
HETATM   25  C   UNL     1     -41.290  59.393 -52.145  1.00  0.00     0.036 A 
HETATM   26  C   UNL     1     -41.296  59.708 -50.784  1.00  0.00     0.031 A 
HETATM   27  C   UNL     1     -40.098  59.756 -50.062  1.00  0.00     0.026 A 
HETATM   28  C   UNL     1     -38.892  59.484 -50.701  1.00  0.00     0.034 A 
HETATM   29 CL   UNL     1     -37.419  59.551 -49.814  1.00  0.00    -0.084 Cl
HETATM   30  C   UNL     1     -38.873  59.157 -52.053  1.00  0.00     0.026 A 
HETATM   31  C   UNL     1     -40.070  59.108 -52.772  1.00  0.00     0.031 A 
ENDBRANCH  21  25
ENDBRANCH   1  19
BRANCH   3  32
HETATM   32  C   UNL     1     -42.892  55.338 -53.144  1.00  0.00     0.086 C 
HETATM   33  C   UNL     1     -42.917  53.929 -53.752  1.00  0.00     0.025 C 
HETATM   34  C   UNL     1     -42.128  53.829 -55.059  1.00  0.00     0.002 C 
HETATM   35  C   UNL     1     -40.705  54.360 -54.913  1.00  0.00     0.000 C 
HETATM   36  C   UNL     1     -40.675  55.767 -54.324  1.00  0.00     0.002 C 
HETATM   37  C   UNL     1     -41.445  55.840 -53.004  1.00  0.00     0.025 C 
ENDBRANCH   3  32
TORSDOF 6
ENDMDL
MODEL 10
REMARK VINA RESULT:      -7.2      2.040      2.566
REMARK  6 active torsions:
REMARK  status: ('A' for Active; 'I' for Inactive)
REMARK    1  A    between atoms: O_2  and  C_3 
REMARK    2  A    between atoms: C_6  and  C_7 
REMARK    3  A    between atoms: C_9  and  N_10 
REMARK    4  A    between atoms: N_10  and  N_11 
REMARK       I    between atoms: N_10  and  C_22 
REMARK       I    between atoms: N_11  and  C_12 
REMARK       I    between atoms: C_12  and  N_13 
REMARK    5  A    between atoms: N_13  and  C_14 
REMARK       I    between atoms: C_22  and  N_23 
REMARK    6  A    between atoms: N_23  and  C_24 
ROOT
HETATM    1  N   UNL     1     -42.882  59.273 -51.646  1.00  0.00    -0.195 N 
HETATM    2  C   UNL     1     -42.502  60.395 -50.892  1.00  0.00     0.340 C 
HETATM    3  N   UNL     1     -42.886  61.629 -51.373  1.00  0.00    -0.337 N 
HETATM    4  O   UNL     1     -41.917  60.282 -49.810  1.00  0.00    -0.245 OA
HETATM    5  H   UNL     1     -43.540  61.632 -52.141  1.00  0.00     0.164 HD
ENDROOT
BRANCH   1   6
HETATM    6  C   UNL     1     -43.510  59.392 -52.878  1.00  0.00     0.193 A 
HETATM    7  N   UNL     1     -42.876  59.592 -54.010  1.00  0.00    -0.222 NA
HETATM    8  C   UNL     1     -43.778  59.565 -55.061  1.00  0.00     0.076 A 
HETATM    9  C   UNL     1     -45.105  59.475 -54.684  1.00  0.00     0.085 A 
HETATM   10  S   UNL     1     -45.217  59.341 -52.974  1.00  0.00    -0.060 SA
BRANCH   8  11
HETATM   11  C   UNL     1     -43.305  59.554 -56.438  1.00  0.00    -0.007 A 
HETATM   12  C   UNL     1     -42.117  60.233 -56.748  1.00  0.00     0.016 A 
HETATM   13  C   UNL     1     -41.605  60.236 -58.049  1.00  0.00     0.037 A 
HETATM   14  C   UNL     1     -42.283  59.566 -59.066  1.00  0.00     0.068 A 
HETATM   15  C   UNL     1     -43.466  58.885 -58.762  1.00  0.00     0.037 A 
HETATM   16  C   UNL     1     -43.978  58.878 -57.460  1.00  0.00     0.016 A 
BRANCH  14  17
HETATM   17  O   UNL     1     -41.897  59.498 -60.375  1.00  0.00    -0.356 OA
HETATM   18  C   UNL     1     -42.650  60.271 -61.302  1.00  0.00     0.210 C 
ENDBRANCH  14  17
ENDBRANCH   8  11
ENDBRANCH   1   6
BRANCH   1  19
HETATM   19  N   UNL     1     -43.332  58.146 -50.876  1.00  0.00    -0.142 NA
HETATM   20  C   UNL     1     -43.109  56.864 -51.333  1.00  0.00     0.317 C 
HETATM   21  N   UNL     1     -41.866  56.654 -51.870  1.00  0.00    -0.312 N 
HETATM   22  O   UNL     1     -43.994  56.025 -51.186  1.00  0.00    -0.252 OA
HETATM   23  H   UNL     1     -41.192  57.384 -51.648  1.00  0.00     0.170 HD
HETATM   24  H   UNL     1     -44.288  58.264 -50.544  1.00  0.00     0.158 HD
BRANCH  21  25
HETATM   25  C   UNL     1     -41.352  55.466 -52.423  1.00  0.00     0.036 A 
HETATM   26  C   UNL     1     -41.184  55.257 -53.794  1.00  0.00     0.031 A 
HETATM   27  C   UNL     1     -40.677  54.042 -54.268  1.00  0.00     0.026 A 
HETATM   28  C   UNL     1     -40.333  53.036 -53.370  1.00  0.00     0.034 A 
HETATM   29 CL   UNL     1     -39.716  51.539 -53.955  1.00  0.00    -0.084 Cl
HETATM   30  C   UNL     1     -40.484  53.236 -52.002  1.00  0.00     0.026 A 
HETATM   31  C   UNL     1     -40.990  54.450 -51.530  1.00  0.00     0.031 A 
ENDBRANCH  21  25
ENDBRANCH   1  19
BRANCH   3  32
HETATM   32  C   UNL     1     -42.940  62.804 -50.509  1.00  0.00     0.086 C 
HETATM   33  C   UNL     1     -43.055  64.083 -51.348  1.00  0.00     0.025 C 
HETATM   34  C   UNL     1     -44.414  64.225 -52.037  1.00  0.00     0.002 C 
HETATM   35  C   UNL     1     -45.574  64.082 -51.056  1.00  0.00     0.000 C 
HETATM   36  C   UNL     1     -45.473  62.802 -50.231  1.00  0.00     0.002 C 
HETATM   37  C   UNL     1     -44.118  62.693 -49.527  1.00  0.00     0.025 C 
ENDBRANCH   3  32
TORSDOF 6
ENDMDL
