MODEL 1
REMARK VINA RESULT:      -9.6      0.000      0.000
REMARK  8 active torsions:
REMARK  status: ('A' for Active; 'I' for Inactive)
REMARK    1  A    between atoms: O_2  and  C_3 
REMARK    2  A    between atoms: C_4  and  O_5 
REMARK    3  A    between atoms: C_13  and  C_14 
REMARK    4  A    between atoms: C_14  and  N_15 
REMARK    5  A    between atoms: C_19  and  C_20 
REMARK    6  A    between atoms: C_20  and  O_21 
REMARK    7  A    between atoms: C_20  and  C_22 
REMARK    8  A    between atoms: C_20  and  C_28 
ROOT
HETATM    1  N   UNL     1     -42.508  56.390 -55.062  1.00  0.00    -0.064 N 
HETATM    2  H   UNL     1     -41.925  57.013 -55.634  1.00  0.00     0.280 HD
HETATM    3  C   UNL     1     -42.020  56.569 -53.635  1.00  0.00     0.236 C 
HETATM    4  C   UNL     1     -40.587  56.074 -53.506  1.00  0.00     0.036 C 
HETATM    5  C   UNL     1     -40.401  54.599 -53.937  1.00  0.00     0.033 C 
HETATM    6  C   UNL     1     -40.887  54.518 -55.402  1.00  0.00     0.036 C 
HETATM    7  C   UNL     1     -42.316  54.997 -55.610  1.00  0.00     0.236 C 
ENDROOT
BRANCH   1   8
HETATM    8  C   UNL     1     -43.954  56.892 -55.229  1.00  0.00     0.313 C 
BRANCH   8   9
HETATM    9  C   UNL     1     -44.512  57.567 -53.976  1.00  0.00     0.133 A 
HETATM   10  N   UNL     1     -44.600  56.800 -52.845  1.00  0.00    -0.309 N 
HETATM   11  C   UNL     1     -44.894  57.323 -51.612  1.00  0.00     0.259 A 
HETATM   12  H   UNL     1     -44.382  55.813 -52.828  1.00  0.00     0.170 HD
HETATM   13  C   UNL     1     -45.238  58.753 -51.584  1.00  0.00     0.064 A 
HETATM   14  O   UNL     1     -44.828  56.636 -50.602  1.00  0.00    -0.267 OA
HETATM   15  C   UNL     1     -45.203  59.440 -52.798  1.00  0.00     0.077 A 
HETATM   16  C   UNL     1     -45.565  59.391 -50.385  1.00  0.00     0.059 A 
HETATM   17  C   UNL     1     -45.522  60.799 -52.807  1.00  0.00     0.072 A 
HETATM   18  N   UNL     1     -44.805  58.826 -54.001  1.00  0.00    -0.233 NA
HETATM   19  C   UNL     1     -45.863  61.459 -51.620  1.00  0.00     0.103 A 
HETATM   20  C   UNL     1     -45.871  60.753 -50.397  1.00  0.00     0.102 A 
BRANCH  19  21
HETATM   21  O   UNL     1     -46.168  62.796 -51.544  1.00  0.00    -0.353 OA
HETATM   22  C   UNL     1     -45.126  63.726 -51.808  1.00  0.00     0.210 C 
ENDBRANCH  19  21
BRANCH  20  23
HETATM   23  O   UNL     1     -46.195  61.483 -49.283  1.00  0.00    -0.353 OA
HETATM   24  C   UNL     1     -45.481  61.222 -48.082  1.00  0.00     0.210 C 
ENDBRANCH  20  23
ENDBRANCH   8   9
ENDBRANCH   1   8
BRANCH   5  25
HETATM   25  C   UNL     1     -41.061  53.540 -52.957  1.00  0.00     0.116 C 
BRANCH  25  26
HETATM   26  O   UNL     1     -42.459  53.491 -53.295  1.00  0.00    -0.380 OA
HETATM   27  H   UNL     1     -42.918  53.218 -52.476  1.00  0.00     0.211 HD
ENDBRANCH  25  26
BRANCH  25  28
HETATM   28  C   UNL     1     -40.477  52.129 -53.200  1.00  0.00    -0.019 A 
HETATM   29  C   UNL     1     -40.588  51.488 -54.447  1.00  0.00     0.010 A 
HETATM   30  C   UNL     1     -40.076  50.202 -54.654  1.00  0.00     0.001 A 
HETATM   31  C   UNL     1     -39.452  49.519 -53.618  1.00  0.00     0.000 A 
HETATM   32  C   UNL     1     -39.339  50.119 -52.370  1.00  0.00     0.001 A 
HETATM   33  C   UNL     1     -39.848  51.404 -52.162  1.00  0.00     0.010 A 
ENDBRANCH  25  28
BRANCH  25  34
HETATM   34  C   UNL     1     -40.977  53.983 -51.475  1.00  0.00    -0.019 A 
HETATM   35  C   UNL     1     -39.755  53.997 -50.771  1.00  0.00     0.010 A 
HETATM   36  C   UNL     1     -39.688  54.379 -49.427  1.00  0.00     0.001 A 
HETATM   37  C   UNL     1     -40.838  54.767 -48.752  1.00  0.00     0.000 A 
HETATM   38  C   UNL     1     -42.057  54.775 -49.420  1.00  0.00     0.001 A 
HETATM   39  C   UNL     1     -42.125  54.387 -50.761  1.00  0.00     0.010 A 
ENDBRANCH  25  34
ENDBRANCH   5  25
TORSDOF 8
ENDMDL
MODEL 2
REMARK VINA RESULT:      -9.4      5.163      7.586
REMARK  8 active torsions:
REMARK  status: ('A' for Active; 'I' for Inactive)
REMARK    1  A    between atoms: O_2  and  C_3 
REMARK    2  A    between atoms: C_4  and  O_5 
REMARK    3  A    between atoms: C_13  and  C_14 
REMARK    4  A    between atoms: C_14  and  N_15 
REMARK    5  A    between atoms: C_19  and  C_20 
REMARK    6  A    between atoms: C_20  and  O_21 
REMARK    7  A    between atoms: C_20  and  C_22 
REMARK    8  A    between atoms: C_20  and  C_28 
ROOT
HETATM    1  N   UNL     1     -43.650  56.332 -56.465  1.00  0.00    -0.064 N 
HETATM    2  H   UNL     1     -44.636  56.063 -56.566  1.00  0.00     0.280 HD
HETATM    3  C   UNL     1     -42.864  55.035 -56.535  1.00  0.00     0.236 C 
HETATM    4  C   UNL     1     -43.203  54.152 -55.344  1.00  0.00     0.036 C 
HETATM    5  C   UNL     1     -42.957  54.835 -53.977  1.00  0.00     0.033 C 
HETATM    6  C   UNL     1     -43.817  56.119 -53.980  1.00  0.00     0.036 C 
HETATM    7  C   UNL     1     -43.533  57.055 -55.146  1.00  0.00     0.236 C 
ENDROOT
BRANCH   1   8
HETATM    8  C   UNL     1     -43.337  57.246 -57.664  1.00  0.00     0.313 C 
BRANCH   8   9
HETATM    9  C   UNL     1     -44.352  57.125 -58.801  1.00  0.00     0.133 A 
HETATM   10  N   UNL     1     -44.376  55.941 -59.489  1.00  0.00    -0.309 N 
HETATM   11  C   UNL     1     -45.356  55.625 -60.394  1.00  0.00     0.259 A 
HETATM   12  H   UNL     1     -43.717  55.192 -59.323  1.00  0.00     0.170 HD
HETATM   13  C   UNL     1     -46.329  56.689 -60.687  1.00  0.00     0.064 A 
HETATM   14  O   UNL     1     -45.425  54.508 -60.885  1.00  0.00    -0.267 OA
HETATM   15  C   UNL     1     -46.181  57.895 -60.000  1.00  0.00     0.077 A 
HETATM   16  C   UNL     1     -47.366  56.484 -61.601  1.00  0.00     0.059 A 
HETATM   17  C   UNL     1     -47.089  58.924 -60.252  1.00  0.00     0.072 A 
HETATM   18  N   UNL     1     -45.185  58.089 -59.025  1.00  0.00    -0.233 NA
HETATM   19  C   UNL     1     -48.131  58.746 -61.171  1.00  0.00     0.103 A 
HETATM   20  C   UNL     1     -48.279  57.511 -61.840  1.00  0.00     0.102 A 
BRANCH  19  21
HETATM   21  O   UNL     1     -49.074  59.702 -61.458  1.00  0.00    -0.353 OA
HETATM   22  C   UNL     1     -48.631  60.899 -62.083  1.00  0.00     0.210 C 
ENDBRANCH  19  21
BRANCH  20  23
HETATM   23  O   UNL     1     -49.339  57.420 -62.705  1.00  0.00    -0.353 OA
HETATM   24  C   UNL     1     -49.095  57.638 -64.087  1.00  0.00     0.210 C 
ENDBRANCH  20  23
ENDBRANCH   8   9
ENDBRANCH   1   8
BRANCH   5  25
HETATM   25  C   UNL     1     -41.426  55.061 -53.622  1.00  0.00     0.116 C 
BRANCH  25  26
HETATM   26  O   UNL     1     -40.793  55.520 -54.830  1.00  0.00    -0.380 OA
HETATM   27  H   UNL     1     -40.889  56.493 -54.822  1.00  0.00     0.211 HD
ENDBRANCH  25  26
BRANCH  25  28
HETATM   28  C   UNL     1     -41.268  56.176 -52.564  1.00  0.00    -0.019 A 
HETATM   29  C   UNL     1     -40.771  57.449 -52.898  1.00  0.00     0.010 A 
HETATM   30  C   UNL     1     -40.611  58.447 -51.930  1.00  0.00     0.001 A 
HETATM   31  C   UNL     1     -40.929  58.195 -50.602  1.00  0.00     0.000 A 
HETATM   32  C   UNL     1     -41.408  56.944 -50.236  1.00  0.00     0.001 A 
HETATM   33  C   UNL     1     -41.572  55.947 -51.202  1.00  0.00     0.010 A 
ENDBRANCH  25  28
BRANCH  25  34
HETATM   34  C   UNL     1     -40.718  53.742 -53.223  1.00  0.00    -0.019 A 
HETATM   35  C   UNL     1     -40.254  52.826 -54.188  1.00  0.00     0.010 A 
HETATM   36  C   UNL     1     -39.633  51.626 -53.821  1.00  0.00     0.001 A 
HETATM   37  C   UNL     1     -39.451  51.315 -52.479  1.00  0.00     0.000 A 
HETATM   38  C   UNL     1     -39.888  52.202 -51.503  1.00  0.00     0.001 A 
HETATM   39  C   UNL     1     -40.514  53.397 -51.870  1.00  0.00     0.010 A 
ENDBRANCH  25  34
ENDBRANCH   5  25
TORSDOF 8
ENDMDL
MODEL 3
REMARK VINA RESULT:      -9.3      4.328      5.882
REMARK  8 active torsions:
REMARK  status: ('A' for Active; 'I' for Inactive)
REMARK    1  A    between atoms: O_2  and  C_3 
REMARK    2  A    between atoms: C_4  and  O_5 
REMARK    3  A    between atoms: C_13  and  C_14 
REMARK    4  A    between atoms: C_14  and  N_15 
REMARK    5  A    between atoms: C_19  and  C_20 
REMARK    6  A    between atoms: C_20  and  O_21 
REMARK    7  A    between atoms: C_20  and  C_22 
REMARK    8  A    between atoms: C_20  and  C_28 
ROOT
HETATM    1  N   UNL     1     -42.248  56.147 -55.484  1.00  0.00    -0.064 N 
HETATM    2  H   UNL     1     -41.611  56.755 -56.013  1.00  0.00     0.280 HD
HETATM    3  C   UNL     1     -41.977  56.448 -54.021  1.00  0.00     0.236 C 
HETATM    4  C   UNL     1     -40.561  56.029 -53.653  1.00  0.00     0.036 C 
HETATM    5  C   UNL     1     -40.262  54.538 -53.941  1.00  0.00     0.033 C 
HETATM    6  C   UNL     1     -40.529  54.333 -55.450  1.00  0.00     0.036 C 
HETATM    7  C   UNL     1     -41.929  54.731 -55.894  1.00  0.00     0.236 C 
ENDROOT
BRANCH   1   8
HETATM    8  C   UNL     1     -43.671  56.569 -55.891  1.00  0.00     0.313 C 
BRANCH   8   9
HETATM    9  C   UNL     1     -43.719  57.360 -57.199  1.00  0.00     0.133 A 
HETATM   10  N   UNL     1     -44.810  57.164 -58.004  1.00  0.00    -0.309 N 
HETATM   11  C   UNL     1     -45.078  57.944 -59.099  1.00  0.00     0.259 A 
HETATM   12  H   UNL     1     -45.529  56.481 -57.803  1.00  0.00     0.170 HD
HETATM   13  C   UNL     1     -44.053  58.940 -59.446  1.00  0.00     0.064 A 
HETATM   14  O   UNL     1     -46.130  57.831 -59.712  1.00  0.00    -0.267 OA
HETATM   15  C   UNL     1     -42.932  59.016 -58.618  1.00  0.00     0.077 A 
HETATM   16  C   UNL     1     -44.214  59.783 -60.548  1.00  0.00     0.059 A 
HETATM   17  C   UNL     1     -41.941  59.953 -58.918  1.00  0.00     0.072 A 
HETATM   18  N   UNL     1     -42.792  58.222 -57.464  1.00  0.00    -0.233 NA
HETATM   19  C   UNL     1     -42.075  60.802 -60.023  1.00  0.00     0.103 A 
HETATM   20  C   UNL     1     -43.227  60.727 -60.837  1.00  0.00     0.102 A 
BRANCH  19  21
HETATM   21  O   UNL     1     -41.155  61.761 -60.371  1.00  0.00    -0.353 OA
HETATM   22  C   UNL     1     -40.380  62.339 -59.329  1.00  0.00     0.210 C 
ENDBRANCH  19  21
BRANCH  20  23
HETATM   23  O   UNL     1     -43.283  61.611 -61.883  1.00  0.00    -0.353 OA
HETATM   24  C   UNL     1     -42.962  61.131 -63.181  1.00  0.00     0.210 C 
ENDBRANCH  20  23
ENDBRANCH   8   9
ENDBRANCH   1   8
BRANCH   5  25
HETATM   25  C   UNL     1     -41.019  53.520 -52.987  1.00  0.00     0.116 C 
BRANCH  25  26
HETATM   26  O   UNL     1     -42.389  53.495 -53.426  1.00  0.00    -0.380 OA
HETATM   27  H   UNL     1     -42.639  52.551 -53.454  1.00  0.00     0.211 HD
ENDBRANCH  25  26
BRANCH  25  28
HETATM   28  C   UNL     1     -40.455  52.091 -53.153  1.00  0.00    -0.019 A 
HETATM   29  C   UNL     1     -40.526  51.404 -54.379  1.00  0.00     0.010 A 
HETATM   30  C   UNL     1     -40.032  50.102 -54.516  1.00  0.00     0.001 A 
HETATM   31  C   UNL     1     -39.466  49.447 -53.429  1.00  0.00     0.000 A 
HETATM   32  C   UNL     1     -39.394  50.092 -52.201  1.00  0.00     0.001 A 
HETATM   33  C   UNL     1     -39.884  51.394 -52.063  1.00  0.00     0.010 A 
ENDBRANCH  25  28
BRANCH  25  34
HETATM   34  C   UNL     1     -41.033  53.999 -51.515  1.00  0.00    -0.019 A 
HETATM   35  C   UNL     1     -39.855  54.056 -50.740  1.00  0.00     0.010 A 
HETATM   36  C   UNL     1     -39.877  54.470 -49.404  1.00  0.00     0.001 A 
HETATM   37  C   UNL     1     -41.073  54.850 -48.808  1.00  0.00     0.000 A 
HETATM   38  C   UNL     1     -42.250  54.815 -49.547  1.00  0.00     0.001 A 
HETATM   39  C   UNL     1     -42.229  54.394 -50.880  1.00  0.00     0.010 A 
ENDBRANCH  25  34
ENDBRANCH   5  25
TORSDOF 8
ENDMDL
MODEL 4
REMARK VINA RESULT:      -9.0      5.086      7.247
REMARK  8 active torsions:
REMARK  status: ('A' for Active; 'I' for Inactive)
REMARK    1  A    between atoms: O_2  and  C_3 
REMARK    2  A    between atoms: C_4  and  O_5 
REMARK    3  A    between atoms: C_13  and  C_14 
REMARK    4  A    between atoms: C_14  and  N_15 
REMARK    5  A    between atoms: C_19  and  C_20 
REMARK    6  A    between atoms: C_20  and  O_21 
REMARK    7  A    between atoms: C_20  and  C_22 
REMARK    8  A    between atoms: C_20  and  C_28 
ROOT
HETATM    1  N   UNL     1     -43.491  56.187 -56.949  1.00  0.00    -0.064 N 
HETATM    2  H   UNL     1     -44.501  56.010 -57.008  1.00  0.00     0.280 HD
HETATM    3  C   UNL     1     -42.853  54.833 -56.695  1.00  0.00     0.236 C 
HETATM    4  C   UNL     1     -43.285  54.298 -55.338  1.00  0.00     0.036 C 
HETATM    5  C   UNL     1     -42.962  55.253 -54.164  1.00  0.00     0.033 C 
HETATM    6  C   UNL     1     -43.676  56.585 -54.488  1.00  0.00     0.036 C 
HETATM    7  C   UNL     1     -43.292  57.184 -55.833  1.00  0.00     0.236 C 
ENDROOT
BRANCH   1   8
HETATM    8  C   UNL     1     -43.081  56.754 -58.321  1.00  0.00     0.313 C 
BRANCH   8   9
HETATM    9  C   UNL     1     -44.268  57.220 -59.165  1.00  0.00     0.133 A 
HETATM   10  N   UNL     1     -45.290  56.327 -59.345  1.00  0.00    -0.309 N 
HETATM   11  C   UNL     1     -46.492  56.674 -59.908  1.00  0.00     0.259 A 
HETATM   12  H   UNL     1     -45.257  55.374 -59.009  1.00  0.00     0.170 HD
HETATM   13  C   UNL     1     -46.585  58.045 -60.431  1.00  0.00     0.064 A 
HETATM   14  O   UNL     1     -47.430  55.890 -59.927  1.00  0.00    -0.267 OA
HETATM   15  C   UNL     1     -45.465  58.864 -60.278  1.00  0.00     0.077 A 
HETATM   16  C   UNL     1     -47.758  58.506 -61.036  1.00  0.00     0.059 A 
HETATM   17  C   UNL     1     -45.522  60.172 -60.761  1.00  0.00     0.072 A 
HETATM   18  N   UNL     1     -44.304  58.435 -59.608  1.00  0.00    -0.233 NA
HETATM   19  C   UNL     1     -46.682  60.654 -61.380  1.00  0.00     0.103 A 
HETATM   20  C   UNL     1     -47.814  59.819 -61.506  1.00  0.00     0.102 A 
BRANCH  19  21
HETATM   21  O   UNL     1     -46.822  61.932 -61.861  1.00  0.00    -0.353 OA
HETATM   22  C   UNL     1     -46.938  62.985 -60.913  1.00  0.00     0.210 C 
ENDBRANCH  19  21
BRANCH  20  23
HETATM   23  O   UNL     1     -48.912  60.381 -62.104  1.00  0.00    -0.353 OA
HETATM   24  C   UNL     1     -50.193  60.082 -61.566  1.00  0.00     0.210 C 
ENDBRANCH  20  23
ENDBRANCH   8   9
ENDBRANCH   1   8
BRANCH   5  25
HETATM   25  C   UNL     1     -41.415  55.389 -53.834  1.00  0.00     0.116 C 
BRANCH  25  26
HETATM   26  O   UNL     1     -40.763  55.704 -55.078  1.00  0.00    -0.380 OA
HETATM   27  H   UNL     1     -40.088  56.376 -54.857  1.00  0.00     0.211 HD
ENDBRANCH  25  26
BRANCH  25  28
HETATM   28  C   UNL     1     -41.163  56.569 -52.868  1.00  0.00    -0.019 A 
HETATM   29  C   UNL     1     -41.590  56.533 -51.528  1.00  0.00     0.010 A 
HETATM   30  C   UNL     1     -41.377  57.614 -50.665  1.00  0.00     0.001 A 
HETATM   31  C   UNL     1     -40.744  58.764 -51.122  1.00  0.00     0.000 A 
HETATM   32  C   UNL     1     -40.324  58.837 -52.443  1.00  0.00     0.001 A 
HETATM   33  C   UNL     1     -40.533  57.757 -53.306  1.00  0.00     0.010 A 
ENDBRANCH  25  28
BRANCH  25  34
HETATM   34  C   UNL     1     -40.804  54.057 -53.335  1.00  0.00    -0.019 A 
HETATM   35  C   UNL     1     -40.299  53.090 -54.229  1.00  0.00     0.010 A 
HETATM   36  C   UNL     1     -39.766  51.878 -53.773  1.00  0.00     0.001 A 
HETATM   37  C   UNL     1     -39.715  51.605 -52.411  1.00  0.00     0.000 A 
HETATM   38  C   UNL     1     -40.195  52.542 -51.504  1.00  0.00     0.001 A 
HETATM   39  C   UNL     1     -40.733  53.749 -51.960  1.00  0.00     0.010 A 
ENDBRANCH  25  34
ENDBRANCH   5  25
TORSDOF 8
ENDMDL
MODEL 5
REMARK VINA RESULT:      -8.9      4.953      7.337
REMARK  8 active torsions:
REMARK  status: ('A' for Active; 'I' for Inactive)
REMARK    1  A    between atoms: O_2  and  C_3 
REMARK    2  A    between atoms: C_4  and  O_5 
REMARK    3  A    between atoms: C_13  and  C_14 
REMARK    4  A    between atoms: C_14  and  N_15 
REMARK    5  A    between atoms: C_19  and  C_20 
REMARK    6  A    between atoms: C_20  and  O_21 
REMARK    7  A    between atoms: C_20  and  C_22 
REMARK    8  A    between atoms: C_20  and  C_28 
ROOT
HETATM    1  N   UNL     1     -43.568  55.433 -56.487  1.00  0.00    -0.064 N 
HETATM    2  H   UNL     1     -44.595  55.410 -56.488  1.00  0.00     0.280 HD
HETATM    3  C   UNL     1     -43.133  54.232 -55.666  1.00  0.00     0.236 C 
HETATM    4  C   UNL     1     -43.577  54.398 -54.220  1.00  0.00     0.036 C 
HETATM    5  C   UNL     1     -43.057  55.696 -53.558  1.00  0.00     0.033 C 
HETATM    6  C   UNL     1     -43.574  56.859 -54.434  1.00  0.00     0.036 C 
HETATM    7  C   UNL     1     -43.168  56.763 -55.898  1.00  0.00     0.236 C 
ENDROOT
BRANCH   1   8
HETATM    8  C   UNL     1     -43.142  55.293 -57.960  1.00  0.00     0.313 C 
BRANCH   8   9
HETATM    9  C   UNL     1     -43.632  56.439 -58.846  1.00  0.00     0.133 A 
HETATM   10  N   UNL     1     -44.986  56.617 -58.938  1.00  0.00    -0.309 N 
HETATM   11  C   UNL     1     -45.554  57.714 -59.533  1.00  0.00     0.259 A 
HETATM   12  H   UNL     1     -45.656  55.993 -58.510  1.00  0.00     0.170 HD
HETATM   13  C   UNL     1     -44.623  58.645 -60.189  1.00  0.00     0.064 A 
HETATM   14  O   UNL     1     -46.759  57.911 -59.475  1.00  0.00    -0.267 OA
HETATM   15  C   UNL     1     -43.262  58.342 -60.117  1.00  0.00     0.077 A 
HETATM   16  C   UNL     1     -45.089  59.792 -60.836  1.00  0.00     0.059 A 
HETATM   17  C   UNL     1     -42.351  59.206 -60.727  1.00  0.00     0.072 A 
HETATM   18  N   UNL     1     -42.775  57.228 -59.407  1.00  0.00    -0.233 NA
HETATM   19  C   UNL     1     -42.795  60.357 -61.390  1.00  0.00     0.103 A 
HETATM   20  C   UNL     1     -44.173  60.660 -61.434  1.00  0.00     0.102 A 
BRANCH  19  21
HETATM   21  O   UNL     1     -41.961  61.264 -61.996  1.00  0.00    -0.353 OA
HETATM   22  C   UNL     1     -41.137  62.064 -61.158  1.00  0.00     0.210 C 
ENDBRANCH  19  21
BRANCH  20  23
HETATM   23  O   UNL     1     -44.514  61.817 -62.085  1.00  0.00    -0.353 OA
HETATM   24  C   UNL     1     -45.277  61.711 -63.280  1.00  0.00     0.210 C 
ENDBRANCH  20  23
ENDBRANCH   8   9
ENDBRANCH   1   8
BRANCH   5  25
HETATM   25  C   UNL     1     -41.494  55.713 -53.283  1.00  0.00     0.116 C 
BRANCH  25  26
HETATM   26  O   UNL     1     -40.857  55.778 -54.572  1.00  0.00    -0.380 OA
HETATM   27  H   UNL     1     -40.238  56.533 -54.520  1.00  0.00     0.211 HD
ENDBRANCH  25  26
BRANCH  25  28
HETATM   28  C   UNL     1     -41.089  56.984 -52.502  1.00  0.00    -0.019 A 
HETATM   29  C   UNL     1     -41.507  57.202 -51.176  1.00  0.00     0.010 A 
HETATM   30  C   UNL     1     -41.154  58.365 -50.482  1.00  0.00     0.001 A 
HETATM   31  C   UNL     1     -40.386  59.345 -51.099  1.00  0.00     0.000 A 
HETATM   32  C   UNL     1     -39.970  59.167 -52.412  1.00  0.00     0.001 A 
HETATM   33  C   UNL     1     -40.319  58.004 -53.105  1.00  0.00     0.010 A 
ENDBRANCH  25  28
BRANCH  25  34
HETATM   34  C   UNL     1     -41.005  54.407 -52.610  1.00  0.00    -0.019 A 
HETATM   35  C   UNL     1     -40.321  53.408 -53.334  1.00  0.00     0.010 A 
HETATM   36  C   UNL     1     -39.899  52.221 -52.726  1.00  0.00     0.001 A 
HETATM   37  C   UNL     1     -40.140  52.004 -51.375  1.00  0.00     0.000 A 
HETATM   38  C   UNL     1     -40.802  52.972 -50.630  1.00  0.00     0.001 A 
HETATM   39  C   UNL     1     -41.229  54.156 -51.240  1.00  0.00     0.010 A 
ENDBRANCH  25  34
ENDBRANCH   5  25
TORSDOF 8
ENDMDL
MODEL 6
REMARK VINA RESULT:      -8.9      3.938      8.878
REMARK  8 active torsions:
REMARK  status: ('A' for Active; 'I' for Inactive)
REMARK    1  A    between atoms: O_2  and  C_3 
REMARK    2  A    between atoms: C_4  and  O_5 
REMARK    3  A    between atoms: C_13  and  C_14 
REMARK    4  A    between atoms: C_14  and  N_15 
REMARK    5  A    between atoms: C_19  and  C_20 
REMARK    6  A    between atoms: C_20  and  O_21 
REMARK    7  A    between atoms: C_20  and  C_22 
REMARK    8  A    between atoms: C_20  and  C_28 
ROOT
HETATM    1  N   UNL     1     -42.677  58.569 -54.764  1.00  0.00    -0.064 N 
HETATM    2  H   UNL     1     -43.334  58.946 -54.070  1.00  0.00     0.280 HD
HETATM    3  C   UNL     1     -42.487  59.673 -55.789  1.00  0.00     0.236 C 
HETATM    4  C   UNL     1     -43.795  59.941 -56.519  1.00  0.00     0.036 C 
HETATM    5  C   UNL     1     -44.386  58.688 -57.209  1.00  0.00     0.033 C 
HETATM    6  C   UNL     1     -44.577  57.636 -56.093  1.00  0.00     0.036 C 
HETATM    7  C   UNL     1     -43.309  57.315 -55.317  1.00  0.00     0.236 C 
ENDROOT
BRANCH   1   8
HETATM    8  C   UNL     1     -41.373  58.281 -53.999  1.00  0.00     0.313 C 
BRANCH   8   9
HETATM    9  C   UNL     1     -41.207  56.811 -53.612  1.00  0.00     0.133 A 
HETATM   10  N   UNL     1     -40.983  55.923 -54.630  1.00  0.00    -0.309 N 
HETATM   11  C   UNL     1     -40.624  54.617 -54.413  1.00  0.00     0.259 A 
HETATM   12  H   UNL     1     -40.993  56.187 -55.606  1.00  0.00     0.170 HD
HETATM   13  C   UNL     1     -40.613  54.177 -53.010  1.00  0.00     0.064 A 
HETATM   14  O   UNL     1     -40.296  53.890 -55.341  1.00  0.00    -0.267 OA
HETATM   15  C   UNL     1     -40.935  55.128 -52.041  1.00  0.00     0.077 A 
HETATM   16  C   UNL     1     -40.273  52.865 -52.671  1.00  0.00     0.059 A 
HETATM   17  C   UNL     1     -40.932  54.744 -50.699  1.00  0.00     0.072 A 
HETATM   18  N   UNL     1     -41.209  56.470 -52.364  1.00  0.00    -0.233 NA
HETATM   19  C   UNL     1     -40.604  53.432 -50.334  1.00  0.00     0.103 A 
HETATM   20  C   UNL     1     -40.258  52.488 -51.327  1.00  0.00     0.102 A 
BRANCH  19  21
HETATM   21  O   UNL     1     -40.558  52.983 -49.037  1.00  0.00    -0.353 OA
HETATM   22  C   UNL     1     -40.480  53.958 -48.005  1.00  0.00     0.210 C 
ENDBRANCH  19  21
BRANCH  20  23
HETATM   23  O   UNL     1     -39.931  51.235 -50.877  1.00  0.00    -0.353 OA
HETATM   24  C   UNL     1     -39.507  50.272 -51.832  1.00  0.00     0.210 C 
ENDBRANCH  20  23
ENDBRANCH   8   9
ENDBRANCH   1   8
BRANCH   5  25
HETATM   25  C   UNL     1     -43.561  58.181 -58.467  1.00  0.00     0.116 C 
BRANCH  25  26
HETATM   26  O   UNL     1     -42.259  57.816 -57.978  1.00  0.00    -0.380 OA
HETATM   27  H   UNL     1     -42.009  58.519 -57.347  1.00  0.00     0.211 HD
ENDBRANCH  25  26
BRANCH  25  28
HETATM   28  C   UNL     1     -44.203  56.909 -59.066  1.00  0.00    -0.019 A 
HETATM   29  C   UNL     1     -43.530  55.674 -59.077  1.00  0.00     0.010 A 
HETATM   30  C   UNL     1     -44.109  54.531 -59.640  1.00  0.00     0.001 A 
HETATM   31  C   UNL     1     -45.370  54.596 -60.220  1.00  0.00     0.000 A 
HETATM   32  C   UNL     1     -46.055  55.803 -60.239  1.00  0.00     0.001 A 
HETATM   33  C   UNL     1     -45.480  56.945 -59.674  1.00  0.00     0.010 A 
ENDBRANCH  25  28
BRANCH  25  34
HETATM   34  C   UNL     1     -43.346  59.301 -59.514  1.00  0.00    -0.019 A 
HETATM   35  C   UNL     1     -44.363  60.222 -59.839  1.00  0.00     0.010 A 
HETATM   36  C   UNL     1     -44.169  61.220 -60.801  1.00  0.00     0.001 A 
HETATM   37  C   UNL     1     -42.949  61.331 -61.456  1.00  0.00     0.000 A 
HETATM   38  C   UNL     1     -41.922  60.446 -61.152  1.00  0.00     0.001 A 
HETATM   39  C   UNL     1     -42.118  59.445 -60.196  1.00  0.00     0.010 A 
ENDBRANCH  25  34
ENDBRANCH   5  25
TORSDOF 8
ENDMDL
MODEL 7
REMARK VINA RESULT:      -8.8      3.313      9.195
REMARK  8 active torsions:
REMARK  status: ('A' for Active; 'I' for Inactive)
REMARK    1  A    between atoms: O_2  and  C_3 
REMARK    2  A    between atoms: C_4  and  O_5 
REMARK    3  A    between atoms: C_13  and  C_14 
REMARK    4  A    between atoms: C_14  and  N_15 
REMARK    5  A    between atoms: C_19  and  C_20 
REMARK    6  A    between atoms: C_20  and  O_21 
REMARK    7  A    between atoms: C_20  and  C_22 
REMARK    8  A    between atoms: C_20  and  C_28 
ROOT
HETATM    1  N   UNL     1     -43.595  57.888 -53.260  1.00  0.00    -0.064 N 
HETATM    2  H   UNL     1     -42.946  58.484 -52.733  1.00  0.00     0.280 HD
HETATM    3  C   UNL     1     -42.777  57.296 -54.394  1.00  0.00     0.236 C 
HETATM    4  C   UNL     1     -42.322  58.397 -55.341  1.00  0.00     0.036 C 
HETATM    5  C   UNL     1     -43.486  59.234 -55.923  1.00  0.00     0.033 C 
HETATM    6  C   UNL     1     -44.238  59.822 -54.707  1.00  0.00     0.036 C 
HETATM    7  C   UNL     1     -44.726  58.779 -53.713  1.00  0.00     0.236 C 
ENDROOT
BRANCH   1   8
HETATM    8  C   UNL     1     -44.063  56.800 -52.277  1.00  0.00     0.313 C 
BRANCH   8   9
HETATM    9  C   UNL     1     -42.972  55.789 -51.924  1.00  0.00     0.133 A 
HETATM   10  N   UNL     1     -42.625  55.684 -50.604  1.00  0.00    -0.309 N 
HETATM   11  C   UNL     1     -41.811  54.691 -50.124  1.00  0.00     0.259 A 
HETATM   12  H   UNL     1     -43.004  56.285 -49.884  1.00  0.00     0.170 HD
HETATM   13  C   UNL     1     -41.218  53.801 -51.134  1.00  0.00     0.064 A 
HETATM   14  O   UNL     1     -41.634  54.544 -48.923  1.00  0.00    -0.267 OA
HETATM   15  C   UNL     1     -41.561  54.031 -52.467  1.00  0.00     0.077 A 
HETATM   16  C   UNL     1     -40.363  52.760 -50.762  1.00  0.00     0.059 A 
HETATM   17  C   UNL     1     -41.017  53.203 -53.450  1.00  0.00     0.072 A 
HETATM   18  N   UNL     1     -42.476  55.031 -52.848  1.00  0.00    -0.233 NA
HETATM   19  C   UNL     1     -40.151  52.159 -53.103  1.00  0.00     0.103 A 
HETATM   20  C   UNL     1     -39.832  51.926 -51.747  1.00  0.00     0.102 A 
BRANCH  19  21
HETATM   21  O   UNL     1     -39.593  51.290 -54.009  1.00  0.00    -0.353 OA
HETATM   22  C   UNL     1     -40.380  50.186 -54.435  1.00  0.00     0.210 C 
ENDBRANCH  19  21
BRANCH  20  23
HETATM   23  O   UNL     1     -38.995  50.869 -51.499  1.00  0.00    -0.353 OA
HETATM   24  C   UNL     1     -39.520  49.751 -50.796  1.00  0.00     0.210 C 
ENDBRANCH  20  23
ENDBRANCH   8   9
ENDBRANCH   1   8
BRANCH   5  25
HETATM   25  C   UNL     1     -44.403  58.454 -56.958  1.00  0.00     0.116 C 
BRANCH  25  26
HETATM   26  O   UNL     1     -44.998  57.364 -56.232  1.00  0.00    -0.380 OA
HETATM   27  H   UNL     1     -45.910  57.651 -56.029  1.00  0.00     0.211 HD
ENDBRANCH  25  26
BRANCH  25  28
HETATM   28  C   UNL     1     -45.552  59.357 -57.461  1.00  0.00    -0.019 A 
HETATM   29  C   UNL     1     -45.368  60.734 -57.683  1.00  0.00     0.010 A 
HETATM   30  C   UNL     1     -46.419  61.550 -58.118  1.00  0.00     0.001 A 
HETATM   31  C   UNL     1     -47.683  61.013 -58.330  1.00  0.00     0.000 A 
HETATM   32  C   UNL     1     -47.901  59.660 -58.106  1.00  0.00     0.001 A 
HETATM   33  C   UNL     1     -46.852  58.844 -57.674  1.00  0.00     0.010 A 
ENDBRANCH  25  28
BRANCH  25  34
HETATM   34  C   UNL     1     -43.579  57.824 -58.109  1.00  0.00    -0.019 A 
HETATM   35  C   UNL     1     -43.585  56.436 -58.355  1.00  0.00     0.010 A 
HETATM   36  C   UNL     1     -42.823  55.871 -59.383  1.00  0.00     0.001 A 
HETATM   37  C   UNL     1     -42.042  56.679 -60.200  1.00  0.00     0.000 A 
HETATM   38  C   UNL     1     -42.022  58.053 -59.991  1.00  0.00     0.001 A 
HETATM   39  C   UNL     1     -42.778  58.616 -58.959  1.00  0.00     0.010 A 
ENDBRANCH  25  34
ENDBRANCH   5  25
TORSDOF 8
ENDMDL
MODEL 8
REMARK VINA RESULT:      -8.8      4.911      7.331
REMARK  8 active torsions:
REMARK  status: ('A' for Active; 'I' for Inactive)
REMARK    1  A    between atoms: O_2  and  C_3 
REMARK    2  A    between atoms: C_4  and  O_5 
REMARK    3  A    between atoms: C_13  and  C_14 
REMARK    4  A    between atoms: C_14  and  N_15 
REMARK    5  A    between atoms: C_19  and  C_20 
REMARK    6  A    between atoms: C_20  and  O_21 
REMARK    7  A    between atoms: C_20  and  C_22 
REMARK    8  A    between atoms: C_20  and  C_28 
ROOT
HETATM    1  N   UNL     1     -43.606  55.560 -56.630  1.00  0.00    -0.064 N 
HETATM    2  H   UNL     1     -44.632  55.503 -56.611  1.00  0.00     0.280 HD
HETATM    3  C   UNL     1     -43.115  54.308 -55.925  1.00  0.00     0.236 C 
HETATM    4  C   UNL     1     -43.530  54.335 -54.461  1.00  0.00     0.036 C 
HETATM    5  C   UNL     1     -43.036  55.588 -53.700  1.00  0.00     0.033 C 
HETATM    6  C   UNL     1     -43.608  56.805 -54.462  1.00  0.00     0.036 C 
HETATM    7  C   UNL     1     -43.234  56.847 -55.936  1.00  0.00     0.236 C 
ENDROOT
BRANCH   1   8
HETATM    8  C   UNL     1     -43.211  55.560 -58.117  1.00  0.00     0.313 C 
BRANCH   8   9
HETATM    9  C   UNL     1     -43.609  56.840 -58.853  1.00  0.00     0.133 A 
HETATM   10  N   UNL     1     -42.598  57.576 -59.410  1.00  0.00    -0.309 N 
HETATM   11  C   UNL     1     -42.825  58.630 -60.257  1.00  0.00     0.259 A 
HETATM   12  H   UNL     1     -41.620  57.347 -59.296  1.00  0.00     0.170 HD
HETATM   13  C   UNL     1     -44.231  59.016 -60.443  1.00  0.00     0.064 A 
HETATM   14  O   UNL     1     -41.902  59.176 -60.846  1.00  0.00    -0.267 OA
HETATM   15  C   UNL     1     -45.194  58.262 -59.770  1.00  0.00     0.077 A 
HETATM   16  C   UNL     1     -44.581  60.083 -61.275  1.00  0.00     0.059 A 
HETATM   17  C   UNL     1     -46.539  58.601 -59.926  1.00  0.00     0.072 A 
HETATM   18  N   UNL     1     -44.860  57.141 -58.986  1.00  0.00    -0.233 NA
HETATM   19  C   UNL     1     -46.913  59.672 -60.748  1.00  0.00     0.103 A 
HETATM   20  C   UNL     1     -45.928  60.410 -61.439  1.00  0.00     0.102 A 
BRANCH  19  21
HETATM   21  O   UNL     1     -48.214  60.053 -60.968  1.00  0.00    -0.353 OA
HETATM   22  C   UNL     1     -48.949  60.559 -59.861  1.00  0.00     0.210 C 
ENDBRANCH  19  21
BRANCH  20  23
HETATM   23  O   UNL     1     -46.387  61.426 -62.236  1.00  0.00    -0.353 OA
HETATM   24  C   UNL     1     -46.267  61.276 -63.645  1.00  0.00     0.210 C 
ENDBRANCH  20  23
ENDBRANCH   8   9
ENDBRANCH   1   8
BRANCH   5  25
HETATM   25  C   UNL     1     -41.468  55.633 -53.457  1.00  0.00     0.116 C 
BRANCH  25  26
HETATM   26  O   UNL     1     -40.861  55.781 -54.753  1.00  0.00    -0.380 OA
HETATM   27  H   UNL     1     -40.181  56.475 -54.647  1.00  0.00     0.211 HD
ENDBRANCH  25  26
BRANCH  25  28
HETATM   28  C   UNL     1     -41.078  56.872 -52.619  1.00  0.00    -0.019 A 
HETATM   29  C   UNL     1     -41.461  57.005 -51.272  1.00  0.00     0.010 A 
HETATM   30  C   UNL     1     -41.123  58.140 -50.526  1.00  0.00     0.001 A 
HETATM   31  C   UNL     1     -40.406  59.177 -51.110  1.00  0.00     0.000 A 
HETATM   32  C   UNL     1     -40.025  59.083 -52.443  1.00  0.00     0.001 A 
HETATM   33  C   UNL     1     -40.360  57.948 -53.188  1.00  0.00     0.010 A 
ENDBRANCH  25  28
BRANCH  25  34
HETATM   34  C   UNL     1     -40.930  54.307 -52.863  1.00  0.00    -0.019 A 
HETATM   35  C   UNL     1     -41.000  54.029 -51.483  1.00  0.00     0.010 A 
HETATM   36  C   UNL     1     -40.494  52.838 -50.949  1.00  0.00     0.001 A 
HETATM   37  C   UNL     1     -39.916  51.888 -51.782  1.00  0.00     0.000 A 
HETATM   38  C   UNL     1     -39.841  52.128 -53.149  1.00  0.00     0.001 A 
HETATM   39  C   UNL     1     -40.340  53.320 -53.681  1.00  0.00     0.010 A 
ENDBRANCH  25  34
ENDBRANCH   5  25
TORSDOF 8
ENDMDL
MODEL 9
REMARK VINA RESULT:      -8.8      4.470      6.569
REMARK  8 active torsions:
REMARK  status: ('A' for Active; 'I' for Inactive)
REMARK    1  A    between atoms: O_2  and  C_3 
REMARK    2  A    between atoms: C_4  and  O_5 
REMARK    3  A    between atoms: C_13  and  C_14 
REMARK    4  A    between atoms: C_14  and  N_15 
REMARK    5  A    between atoms: C_19  and  C_20 
REMARK    6  A    between atoms: C_20  and  O_21 
REMARK    7  A    between atoms: C_20  and  C_22 
REMARK    8  A    between atoms: C_20  and  C_28 
ROOT
HETATM    1  N   UNL     1     -43.693  55.918 -56.879  1.00  0.00    -0.064 N 
HETATM    2  H   UNL     1     -44.708  55.763 -56.854  1.00  0.00     0.280 HD
HETATM    3  C   UNL     1     -43.066  54.584 -56.516  1.00  0.00     0.236 C 
HETATM    4  C   UNL     1     -43.418  54.213 -55.083  1.00  0.00     0.036 C 
HETATM    5  C   UNL     1     -43.000  55.283 -54.046  1.00  0.00     0.033 C 
HETATM    6  C   UNL     1     -43.708  56.589 -54.472  1.00  0.00     0.036 C 
HETATM    7  C   UNL     1     -43.402  57.026 -55.897  1.00  0.00     0.236 C 
ENDROOT
BRANCH   1   8
HETATM    8  C   UNL     1     -43.363  56.319 -58.329  1.00  0.00     0.313 C 
BRANCH   8   9
HETATM    9  C   UNL     1     -43.425  57.827 -58.572  1.00  0.00     0.133 A 
HETATM   10  N   UNL     1     -44.658  58.365 -58.825  1.00  0.00    -0.309 N 
HETATM   11  C   UNL     1     -44.887  59.717 -58.866  1.00  0.00     0.259 A 
HETATM   12  H   UNL     1     -45.495  57.806 -58.925  1.00  0.00     0.170 HD
HETATM   13  C   UNL     1     -43.698  60.575 -58.745  1.00  0.00     0.064 A 
HETATM   14  O   UNL     1     -46.022  60.162 -58.956  1.00  0.00    -0.267 OA
HETATM   15  C   UNL     1     -42.468  59.939 -58.572  1.00  0.00     0.077 A 
HETATM   16  C   UNL     1     -43.810  61.967 -58.784  1.00  0.00     0.059 A 
HETATM   17  C   UNL     1     -41.320  60.724 -58.451  1.00  0.00     0.072 A 
HETATM   18  N   UNL     1     -42.351  58.541 -58.459  1.00  0.00    -0.233 NA
HETATM   19  C   UNL     1     -41.405  62.121 -58.497  1.00  0.00     0.103 A 
HETATM   20  C   UNL     1     -42.661  62.749 -58.650  1.00  0.00     0.102 A 
BRANCH  19  21
HETATM   21  O   UNL     1     -40.326  62.961 -58.366  1.00  0.00    -0.353 OA
HETATM   22  C   UNL     1     -39.446  63.083 -59.476  1.00  0.00     0.210 C 
ENDBRANCH  19  21
BRANCH  20  23
HETATM   23  O   UNL     1     -42.651  64.119 -58.662  1.00  0.00    -0.353 OA
HETATM   24  C   UNL     1     -43.032  64.780 -59.861  1.00  0.00     0.210 C 
ENDBRANCH  20  23
ENDBRANCH   8   9
ENDBRANCH   1   8
BRANCH   5  25
HETATM   25  C   UNL     1     -41.433  55.413 -53.832  1.00  0.00     0.116 C 
BRANCH  25  26
HETATM   26  O   UNL     1     -40.871  55.711 -55.123  1.00  0.00    -0.380 OA
HETATM   27  H   UNL     1     -40.321  56.508 -54.993  1.00  0.00     0.211 HD
ENDBRANCH  25  26
BRANCH  25  28
HETATM   28  C   UNL     1     -41.104  56.602 -52.900  1.00  0.00    -0.019 A 
HETATM   29  C   UNL     1     -41.473  56.601 -51.542  1.00  0.00     0.010 A 
HETATM   30  C   UNL     1     -41.191  57.690 -50.709  1.00  0.00     0.001 A 
HETATM   31  C   UNL     1     -40.546  58.812 -51.214  1.00  0.00     0.000 A 
HETATM   32  C   UNL     1     -40.182  58.850 -52.553  1.00  0.00     0.001 A 
HETATM   33  C   UNL     1     -40.460  57.762 -53.386  1.00  0.00     0.010 A 
ENDBRANCH  25  28
BRANCH  25  34
HETATM   34  C   UNL     1     -40.794  54.082 -53.365  1.00  0.00    -0.019 A 
HETATM   35  C   UNL     1     -40.300  53.132 -54.283  1.00  0.00     0.010 A 
HETATM   36  C   UNL     1     -39.742  51.922 -53.855  1.00  0.00     0.001 A 
HETATM   37  C   UNL     1     -39.652  51.633 -52.499  1.00  0.00     0.000 A 
HETATM   38  C   UNL     1     -40.120  52.553 -51.569  1.00  0.00     0.001 A 
HETATM   39  C   UNL     1     -40.683  53.759 -51.996  1.00  0.00     0.010 A 
ENDBRANCH  25  34
ENDBRANCH   5  25
TORSDOF 8
ENDMDL
MODEL 10
REMARK VINA RESULT:      -8.6      4.410      9.882
REMARK  8 active torsions:
REMARK  status: ('A' for Active; 'I' for Inactive)
REMARK    1  A    between atoms: O_2  and  C_3 
REMARK    2  A    between atoms: C_4  and  O_5 
REMARK    3  A    between atoms: C_13  and  C_14 
REMARK    4  A    between atoms: C_14  and  N_15 
REMARK    5  A    between atoms: C_19  and  C_20 
REMARK    6  A    between atoms: C_20  and  O_21 
REMARK    7  A    between atoms: C_20  and  C_22 
REMARK    8  A    between atoms: C_20  and  C_28 
ROOT
HETATM    1  N   UNL     1     -42.231  57.121 -56.252  1.00  0.00    -0.064 N 
HETATM    2  H   UNL     1     -41.462  56.450 -56.371  1.00  0.00     0.280 HD
HETATM    3  C   UNL     1     -43.476  56.408 -56.747  1.00  0.00     0.236 C 
HETATM    4  C   UNL     1     -43.362  56.131 -58.239  1.00  0.00     0.036 C 
HETATM    5  C   UNL     1     -43.119  57.402 -59.087  1.00  0.00     0.033 C 
HETATM    6  C   UNL     1     -41.822  58.040 -58.540  1.00  0.00     0.036 C 
HETATM    7  C   UNL     1     -41.861  58.346 -57.050  1.00  0.00     0.236 C 
ENDROOT
BRANCH   1   8
HETATM    8  C   UNL     1     -42.309  57.407 -54.741  1.00  0.00     0.313 C 
BRANCH   8   9
HETATM    9  C   UNL     1     -41.667  56.317 -53.881  1.00  0.00     0.133 A 
HETATM   10  N   UNL     1     -41.688  56.503 -52.525  1.00  0.00    -0.309 N 
HETATM   11  C   UNL     1     -41.328  55.525 -51.634  1.00  0.00     0.259 A 
HETATM   12  H   UNL     1     -42.039  57.345 -52.088  1.00  0.00     0.170 HD
HETATM   13  C   UNL     1     -40.792  54.287 -52.218  1.00  0.00     0.064 A 
HETATM   14  O   UNL     1     -41.491  55.676 -50.431  1.00  0.00    -0.267 OA
HETATM   15  C   UNL     1     -40.730  54.214 -53.611  1.00  0.00     0.077 A 
HETATM   16  C   UNL     1     -40.384  53.226 -51.406  1.00  0.00     0.059 A 
HETATM   17  C   UNL     1     -40.228  53.051 -54.198  1.00  0.00     0.072 A 
HETATM   18  N   UNL     1     -41.204  55.247 -54.442  1.00  0.00    -0.233 NA
HETATM   19  C   UNL     1     -39.803  51.978 -53.405  1.00  0.00     0.103 A 
HETATM   20  C   UNL     1     -39.895  52.060 -51.998  1.00  0.00     0.102 A 
BRANCH  19  21
HETATM   21  O   UNL     1     -39.318  50.796 -53.907  1.00  0.00    -0.353 OA
HETATM   22  C   UNL     1     -40.219  49.967 -54.628  1.00  0.00     0.210 C 
ENDBRANCH  19  21
BRANCH  20  23
HETATM   23  O   UNL     1     -39.477  50.955 -51.303  1.00  0.00    -0.353 OA
HETATM   24  C   UNL     1     -40.231  50.556 -50.166  1.00  0.00     0.210 C 
ENDBRANCH  20  23
ENDBRANCH   8   9
ENDBRANCH   1   8
BRANCH   5  25
HETATM   25  C   UNL     1     -44.362  58.387 -59.167  1.00  0.00     0.116 C 
BRANCH  25  26
HETATM   26  O   UNL     1     -44.835  58.552 -57.818  1.00  0.00    -0.380 OA
HETATM   27  H   UNL     1     -44.051  58.428 -57.248  1.00  0.00     0.211 HD
ENDBRANCH  25  26
BRANCH  25  28
HETATM   28  C   UNL     1     -43.926  59.779 -59.678  1.00  0.00    -0.019 A 
HETATM   29  C   UNL     1     -44.103  60.940 -58.904  1.00  0.00     0.010 A 
HETATM   30  C   UNL     1     -43.726  62.200 -59.382  1.00  0.00     0.001 A 
HETATM   31  C   UNL     1     -43.174  62.334 -60.650  1.00  0.00     0.000 A 
HETATM   32  C   UNL     1     -43.000  61.210 -61.445  1.00  0.00     0.001 A 
HETATM   33  C   UNL     1     -43.374  59.950 -60.968  1.00  0.00     0.010 A 
ENDBRANCH  25  28
BRANCH  25  34
HETATM   34  C   UNL     1     -45.534  57.783 -59.979  1.00  0.00    -0.019 A 
HETATM   35  C   UNL     1     -46.636  58.563 -60.388  1.00  0.00     0.010 A 
HETATM   36  C   UNL     1     -47.702  58.008 -61.104  1.00  0.00     0.001 A 
HETATM   37  C   UNL     1     -47.691  56.660 -61.441  1.00  0.00     0.000 A 
HETATM   38  C   UNL     1     -46.615  55.865 -61.063  1.00  0.00     0.001 A 
HETATM   39  C   UNL     1     -45.553  56.419 -60.341  1.00  0.00     0.010 A 
ENDBRANCH  25  34
ENDBRANCH   5  25
TORSDOF 8
ENDMDL
