MODEL 1
REMARK VINA RESULT:      -8.0      0.000      0.000
REMARK  9 active torsions:
REMARK  status: ('A' for Active; 'I' for Inactive)
REMARK    1  A    between atoms: C_3  and  C_4 
REMARK       I    between atoms: C_4  and  N_5 
REMARK    2  A    between atoms: N_5  and  N_6 
REMARK    3  A    between atoms: N_6  and  C_7 
REMARK    4  A    between atoms: C_7  and  N_8 
REMARK    5  A    between atoms: N_8  and  C_9 
REMARK    6  A    between atoms: C_9  and  C_10 
REMARK    7  A    between atoms: C_18  and  C_19 
REMARK    8  A    between atoms: C_19  and  O_20 
REMARK    9  A    between atoms: O_20  and  C_21 
ROOT
HETATM    1  C   UNL     1     -40.317  53.431 -51.203  1.00  0.00     0.069 A 
HETATM    2  C   UNL     1     -40.578  53.613 -52.562  1.00  0.00     0.038 A 
HETATM    3  C   UNL     1     -40.357  52.569 -53.469  1.00  0.00     0.025 A 
HETATM    4  C   UNL     1     -39.873  51.336 -53.021  1.00  0.00     0.044 A 
HETATM    5  C   UNL     1     -39.650  50.269 -53.952  1.00  0.00     0.099 C 
HETATM    6  N   UNL     1     -39.474  49.410 -54.713  1.00  0.00    -0.191 NA
HETATM    7  C   UNL     1     -39.611  51.152 -51.662  1.00  0.00     0.025 A 
HETATM    8  C   UNL     1     -39.835  52.197 -50.760  1.00  0.00     0.038 A 
ENDROOT
BRANCH   1   9
HETATM    9  O   UNL     1     -40.493  54.363 -50.216  1.00  0.00    -0.347 OA
BRANCH   9  10
HETATM   10  C   UNL     1     -41.831  54.782 -49.967  1.00  0.00     0.214 C 
BRANCH  10  11
HETATM   11  C   UNL     1     -42.100  56.075 -50.697  1.00  0.00    -0.033 A 
HETATM   12  C   UNL     1     -43.237  56.204 -51.514  1.00  0.00     0.026 A 
HETATM   13  C   UNL     1     -43.424  57.351 -52.293  1.00  0.00     0.034 A 
HETATM   14  C   UNL     1     -42.518  58.414 -52.174  1.00  0.00     0.017 A 
HETATM   15  C   UNL     1     -41.418  58.317 -51.322  1.00  0.00     0.002 A 
HETATM   16  C   UNL     1     -41.203  57.148 -50.597  1.00  0.00     0.009 A 
BRANCH  13  17
HETATM   17  C   UNL     1     -44.569  57.534 -53.224  1.00  0.00     0.270 C 
HETATM   18  N   UNL     1     -44.919  56.584 -54.159  1.00  0.00    -0.264 N 
HETATM   19  H   UNL     1     -45.668  56.857 -54.794  1.00  0.00     0.190 HD
HETATM   20  O   UNL     1     -45.209  58.585 -53.170  1.00  0.00    -0.266 OA
BRANCH  18  21
HETATM   21  N   UNL     1     -44.189  55.451 -54.534  1.00  0.00    -0.274 N 
HETATM   22  H   UNL     1     -44.083  54.690 -53.860  1.00  0.00     0.189 HD
BRANCH  21  23
HETATM   23  C   UNL     1     -43.195  55.552 -55.478  1.00  0.00     0.186 C 
HETATM   24  S   UNL     1     -41.620  56.035 -55.193  1.00  0.00    -0.040 SA
BRANCH  23  25
HETATM   25  N   UNL     1     -43.565  55.286 -56.767  1.00  0.00    -0.364 N 
HETATM   26  H   UNL     1     -44.140  54.455 -56.858  1.00  0.00     0.162 HD
BRANCH  25  27
HETATM   27  C   UNL     1     -42.873  55.749 -57.966  1.00  0.00     0.154 C 
BRANCH  27  28
HETATM   28  C   UNL     1     -43.481  57.001 -58.612  1.00  0.00     0.139 C 
HETATM   29  O   UNL     1     -44.644  57.430 -57.873  1.00  0.00    -0.384 OA
HETATM   30  C   UNL     1     -45.727  57.591 -58.801  1.00  0.00     0.168 C 
HETATM   31  C   UNL     1     -45.406  56.702 -59.980  1.00  0.00     0.029 C 
HETATM   32  C   UNL     1     -43.905  56.817 -60.063  1.00  0.00     0.035 C 
ENDBRANCH  27  28
ENDBRANCH  25  27
ENDBRANCH  23  25
ENDBRANCH  21  23
ENDBRANCH  18  21
ENDBRANCH  13  17
ENDBRANCH  10  11
ENDBRANCH   9  10
ENDBRANCH   1   9
TORSDOF 9
ENDMDL
MODEL 2
REMARK VINA RESULT:      -7.8      1.751      2.141
REMARK  9 active torsions:
REMARK  status: ('A' for Active; 'I' for Inactive)
REMARK    1  A    between atoms: C_3  and  C_4 
REMARK       I    between atoms: C_4  and  N_5 
REMARK    2  A    between atoms: N_5  and  N_6 
REMARK    3  A    between atoms: N_6  and  C_7 
REMARK    4  A    between atoms: C_7  and  N_8 
REMARK    5  A    between atoms: N_8  and  C_9 
REMARK    6  A    between atoms: C_9  and  C_10 
REMARK    7  A    between atoms: C_18  and  C_19 
REMARK    8  A    between atoms: C_19  and  O_20 
REMARK    9  A    between atoms: O_20  and  C_21 
ROOT
HETATM    1  C   UNL     1     -40.740  54.134 -52.263  1.00  0.00     0.069 A 
HETATM    2  C   UNL     1     -40.945  53.779 -53.598  1.00  0.00     0.038 A 
HETATM    3  C   UNL     1     -40.567  52.511 -54.056  1.00  0.00     0.025 A 
HETATM    4  C   UNL     1     -39.980  51.591 -53.182  1.00  0.00     0.044 A 
HETATM    5  C   UNL     1     -39.596  50.294 -53.655  1.00  0.00     0.099 C 
HETATM    6  N   UNL     1     -39.289  49.244 -54.046  1.00  0.00    -0.191 NA
HETATM    7  C   UNL     1     -39.773  51.945 -51.847  1.00  0.00     0.025 A 
HETATM    8  C   UNL     1     -40.154  53.211 -51.393  1.00  0.00     0.038 A 
ENDROOT
BRANCH   1   9
HETATM    9  O   UNL     1     -41.065  55.333 -51.688  1.00  0.00    -0.347 OA
BRANCH   9  10
HETATM   10  C   UNL     1     -42.418  55.493 -51.272  1.00  0.00     0.214 C 
BRANCH  10  11
HETATM   11  C   UNL     1     -43.046  56.642 -52.021  1.00  0.00    -0.033 A 
HETATM   12  C   UNL     1     -42.410  57.179 -53.154  1.00  0.00     0.026 A 
HETATM   13  C   UNL     1     -42.919  58.324 -53.777  1.00  0.00     0.034 A 
HETATM   14  C   UNL     1     -44.127  58.871 -53.320  1.00  0.00     0.017 A 
HETATM   15  C   UNL     1     -44.794  58.310 -52.232  1.00  0.00     0.002 A 
HETATM   16  C   UNL     1     -44.249  57.208 -51.577  1.00  0.00     0.009 A 
BRANCH  13  17
HETATM   17  C   UNL     1     -42.272  58.984 -54.941  1.00  0.00     0.270 C 
HETATM   18  N   UNL     1     -42.653  58.725 -56.240  1.00  0.00    -0.264 N 
HETATM   19  H   UNL     1     -42.082  59.174 -56.956  1.00  0.00     0.190 HD
HETATM   20  O   UNL     1     -41.346  59.769 -54.733  1.00  0.00    -0.266 OA
BRANCH  18  21
HETATM   21  N   UNL     1     -43.502  57.710 -56.691  1.00  0.00    -0.274 N 
HETATM   22  H   UNL     1     -44.437  57.636 -56.286  1.00  0.00     0.189 HD
BRANCH  21  23
HETATM   23  C   UNL     1     -42.976  56.543 -57.191  1.00  0.00     0.186 C 
HETATM   24  S   UNL     1     -42.884  55.084 -56.379  1.00  0.00    -0.040 SA
BRANCH  23  25
HETATM   25  N   UNL     1     -42.433  56.619 -58.444  1.00  0.00    -0.364 N 
HETATM   26  H   UNL     1     -41.894  57.464 -58.598  1.00  0.00     0.162 HD
BRANCH  25  27
HETATM   27  C   UNL     1     -42.916  55.914 -59.627  1.00  0.00     0.154 C 
BRANCH  27  28
HETATM   28  C   UNL     1     -43.967  56.680 -60.443  1.00  0.00     0.139 C 
HETATM   29  O   UNL     1     -44.121  58.019 -59.927  1.00  0.00    -0.384 OA
HETATM   30  C   UNL     1     -45.519  58.250 -59.697  1.00  0.00     0.168 C 
HETATM   31  C   UNL     1     -46.143  56.889 -59.500  1.00  0.00     0.029 C 
HETATM   32  C   UNL     1     -45.347  56.034 -60.452  1.00  0.00     0.035 C 
ENDBRANCH  27  28
ENDBRANCH  25  27
ENDBRANCH  23  25
ENDBRANCH  21  23
ENDBRANCH  18  21
ENDBRANCH  13  17
ENDBRANCH  10  11
ENDBRANCH   9  10
ENDBRANCH   1   9
TORSDOF 9
ENDMDL
MODEL 3
REMARK VINA RESULT:      -7.6      2.175      2.940
REMARK  9 active torsions:
REMARK  status: ('A' for Active; 'I' for Inactive)
REMARK    1  A    between atoms: C_3  and  C_4 
REMARK       I    between atoms: C_4  and  N_5 
REMARK    2  A    between atoms: N_5  and  N_6 
REMARK    3  A    between atoms: N_6  and  C_7 
REMARK    4  A    between atoms: C_7  and  N_8 
REMARK    5  A    between atoms: N_8  and  C_9 
REMARK    6  A    between atoms: C_9  and  C_10 
REMARK    7  A    between atoms: C_18  and  C_19 
REMARK    8  A    between atoms: C_19  and  O_20 
REMARK    9  A    between atoms: O_20  and  C_21 
ROOT
HETATM    1  C   UNL     1     -40.703  54.971 -53.776  1.00  0.00     0.069 A 
HETATM    2  C   UNL     1     -40.776  54.182 -52.627  1.00  0.00     0.038 A 
HETATM    3  C   UNL     1     -40.515  52.808 -52.698  1.00  0.00     0.025 A 
HETATM    4  C   UNL     1     -40.182  52.215 -53.919  1.00  0.00     0.044 A 
HETATM    5  C   UNL     1     -39.914  50.808 -53.987  1.00  0.00     0.099 C 
HETATM    6  N   UNL     1     -39.697  49.669 -54.032  1.00  0.00    -0.191 NA
HETATM    7  C   UNL     1     -40.109  53.003 -55.070  1.00  0.00     0.025 A 
HETATM    8  C   UNL     1     -40.369  54.374 -54.994  1.00  0.00     0.038 A 
ENDROOT
BRANCH   1   9
HETATM    9  O   UNL     1     -40.929  56.320 -53.844  1.00  0.00    -0.347 OA
BRANCH   9  10
HETATM   10  C   UNL     1     -41.051  57.008 -52.603  1.00  0.00     0.214 C 
BRANCH  10  11
HETATM   11  C   UNL     1     -42.498  57.356 -52.358  1.00  0.00    -0.033 A 
HETATM   12  C   UNL     1     -43.143  58.311 -53.163  1.00  0.00     0.026 A 
HETATM   13  C   UNL     1     -44.442  58.732 -52.862  1.00  0.00     0.034 A 
HETATM   14  C   UNL     1     -45.134  58.117 -51.808  1.00  0.00     0.017 A 
HETATM   15  C   UNL     1     -44.522  57.128 -51.039  1.00  0.00     0.002 A 
HETATM   16  C   UNL     1     -43.206  56.758 -51.305  1.00  0.00     0.009 A 
BRANCH  13  17
HETATM   17  C   UNL     1     -45.166  59.778 -53.631  1.00  0.00     0.270 C 
HETATM   18  N   UNL     1     -45.813  59.506 -54.817  1.00  0.00    -0.264 N 
HETATM   19  H   UNL     1     -46.204  60.319 -55.294  1.00  0.00     0.190 HD
HETATM   20  O   UNL     1     -45.165  60.933 -53.200  1.00  0.00    -0.266 OA
BRANCH  18  21
HETATM   21  N   UNL     1     -45.732  58.337 -55.581  1.00  0.00    -0.274 N 
HETATM   22  H   UNL     1     -45.600  57.445 -55.100  1.00  0.00     0.189 HD
BRANCH  21  23
HETATM   23  C   UNL     1     -45.274  58.389 -56.876  1.00  0.00     0.186 C 
HETATM   24  S   UNL     1     -44.326  59.600 -57.531  1.00  0.00    -0.040 SA
BRANCH  23  25
HETATM   25  N   UNL     1     -45.691  57.380 -57.699  1.00  0.00    -0.364 N 
HETATM   26  H   UNL     1     -45.260  56.486 -57.490  1.00  0.00     0.162 HD
BRANCH  25  27
HETATM   27  C   UNL     1     -46.261  57.547 -59.033  1.00  0.00     0.154 C 
BRANCH  27  28
HETATM   28  C   UNL     1     -45.527  56.779 -60.141  1.00  0.00     0.139 C 
HETATM   29  O   UNL     1     -45.922  55.391 -60.133  1.00  0.00    -0.384 OA
HETATM   30  C   UNL     1     -44.732  54.590 -60.107  1.00  0.00     0.168 C 
HETATM   31  C   UNL     1     -43.653  55.457 -59.502  1.00  0.00     0.029 C 
HETATM   32  C   UNL     1     -44.008  56.822 -60.035  1.00  0.00     0.035 C 
ENDBRANCH  27  28
ENDBRANCH  25  27
ENDBRANCH  23  25
ENDBRANCH  21  23
ENDBRANCH  18  21
ENDBRANCH  13  17
ENDBRANCH  10  11
ENDBRANCH   9  10
ENDBRANCH   1   9
TORSDOF 9
ENDMDL
MODEL 4
REMARK VINA RESULT:      -7.5      3.330      6.841
REMARK  9 active torsions:
REMARK  status: ('A' for Active; 'I' for Inactive)
REMARK    1  A    between atoms: C_3  and  C_4 
REMARK       I    between atoms: C_4  and  N_5 
REMARK    2  A    between atoms: N_5  and  N_6 
REMARK    3  A    between atoms: N_6  and  C_7 
REMARK    4  A    between atoms: C_7  and  N_8 
REMARK    5  A    between atoms: N_8  and  C_9 
REMARK    6  A    between atoms: C_9  and  C_10 
REMARK    7  A    between atoms: C_18  and  C_19 
REMARK    8  A    between atoms: C_19  and  O_20 
REMARK    9  A    between atoms: O_20  and  C_21 
ROOT
HETATM    1  C   UNL     1     -42.927  56.083 -57.153  1.00  0.00     0.069 A 
HETATM    2  C   UNL     1     -43.102  55.636 -58.464  1.00  0.00     0.038 A 
HETATM    3  C   UNL     1     -42.801  56.478 -59.542  1.00  0.00     0.025 A 
HETATM    4  C   UNL     1     -42.326  57.773 -59.314  1.00  0.00     0.044 A 
HETATM    5  C   UNL     1     -42.018  58.631 -60.420  1.00  0.00     0.099 C 
HETATM    6  N   UNL     1     -41.770  59.319 -61.323  1.00  0.00    -0.191 NA
HETATM    7  C   UNL     1     -42.151  58.222 -58.004  1.00  0.00     0.025 A 
HETATM    8  C   UNL     1     -42.451  57.378 -56.931  1.00  0.00     0.038 A 
ENDROOT
BRANCH   1   9
HETATM    9  O   UNL     1     -43.177  55.364 -56.016  1.00  0.00    -0.347 OA
BRANCH   9  10
HETATM   10  C   UNL     1     -42.211  54.380 -55.659  1.00  0.00     0.214 C 
BRANCH  10  11
HETATM   11  C   UNL     1     -42.035  54.365 -54.160  1.00  0.00    -0.033 A 
HETATM   12  C   UNL     1     -43.110  54.701 -53.318  1.00  0.00     0.026 A 
HETATM   13  C   UNL     1     -42.920  54.814 -51.937  1.00  0.00     0.034 A 
HETATM   14  C   UNL     1     -41.670  54.489 -51.389  1.00  0.00     0.017 A 
HETATM   15  C   UNL     1     -40.614  54.100 -52.212  1.00  0.00     0.002 A 
HETATM   16  C   UNL     1     -40.792  54.050 -53.593  1.00  0.00     0.009 A 
BRANCH  13  17
HETATM   17  C   UNL     1     -43.991  55.221 -50.990  1.00  0.00     0.270 C 
HETATM   18  N   UNL     1     -44.546  56.482 -51.004  1.00  0.00    -0.264 N 
HETATM   19  H   UNL     1     -45.213  56.670 -50.255  1.00  0.00     0.190 HD
HETATM   20  O   UNL     1     -44.375  54.406 -50.150  1.00  0.00    -0.266 OA
BRANCH  18  21
HETATM   21  N   UNL     1     -44.092  57.604 -51.705  1.00  0.00    -0.274 N 
HETATM   22  H   UNL     1     -43.283  57.503 -52.321  1.00  0.00     0.189 HD
BRANCH  21  23
HETATM   23  C   UNL     1     -44.303  58.865 -51.201  1.00  0.00     0.186 C 
HETATM   24  S   UNL     1     -45.762  59.680 -51.182  1.00  0.00    -0.040 SA
BRANCH  23  25
HETATM   25  N   UNL     1     -43.195  59.514 -50.730  1.00  0.00    -0.364 N 
HETATM   26  H   UNL     1     -43.260  60.524 -50.800  1.00  0.00     0.162 HD
BRANCH  25  27
HETATM   27  C   UNL     1     -41.857  58.942 -50.611  1.00  0.00     0.154 C 
BRANCH  27  28
HETATM   28  C   UNL     1     -40.930  59.229 -51.800  1.00  0.00     0.139 C 
HETATM   29  O   UNL     1     -41.583  60.107 -52.741  1.00  0.00    -0.384 OA
HETATM   30  C   UNL     1     -41.494  59.510 -54.043  1.00  0.00     0.168 C 
HETATM   31  C   UNL     1     -41.330  58.026 -53.814  1.00  0.00     0.029 C 
HETATM   32  C   UNL     1     -40.488  57.989 -52.565  1.00  0.00     0.035 C 
ENDBRANCH  27  28
ENDBRANCH  25  27
ENDBRANCH  23  25
ENDBRANCH  21  23
ENDBRANCH  18  21
ENDBRANCH  13  17
ENDBRANCH  10  11
ENDBRANCH   9  10
ENDBRANCH   1   9
TORSDOF 9
ENDMDL
MODEL 5
REMARK VINA RESULT:      -7.4      2.181      2.952
REMARK  9 active torsions:
REMARK  status: ('A' for Active; 'I' for Inactive)
REMARK    1  A    between atoms: C_3  and  C_4 
REMARK       I    between atoms: C_4  and  N_5 
REMARK    2  A    between atoms: N_5  and  N_6 
REMARK    3  A    between atoms: N_6  and  C_7 
REMARK    4  A    between atoms: C_7  and  N_8 
REMARK    5  A    between atoms: N_8  and  C_9 
REMARK    6  A    between atoms: C_9  and  C_10 
REMARK    7  A    between atoms: C_18  and  C_19 
REMARK    8  A    between atoms: C_19  and  O_20 
REMARK    9  A    between atoms: O_20  and  C_21 
ROOT
HETATM    1  C   UNL     1     -40.865  54.326 -52.791  1.00  0.00     0.069 A 
HETATM    2  C   UNL     1     -40.520  53.381 -51.823  1.00  0.00     0.038 A 
HETATM    3  C   UNL     1     -40.100  52.101 -52.206  1.00  0.00     0.025 A 
HETATM    4  C   UNL     1     -40.023  51.759 -53.559  1.00  0.00     0.044 A 
HETATM    5  C   UNL     1     -39.589  50.449 -53.946  1.00  0.00     0.099 C 
HETATM    6  N   UNL     1     -39.236  49.385 -54.251  1.00  0.00    -0.191 NA
HETATM    7  C   UNL     1     -40.367  52.703 -54.528  1.00  0.00     0.025 A 
HETATM    8  C   UNL     1     -40.785  53.980 -54.142  1.00  0.00     0.038 A 
ENDROOT
BRANCH   1   9
HETATM    9  O   UNL     1     -41.286  55.607 -52.553  1.00  0.00    -0.347 OA
BRANCH   9  10
HETATM   10  C   UNL     1     -41.922  55.846 -51.301  1.00  0.00     0.214 C 
BRANCH  10  11
HETATM   11  C   UNL     1     -42.349  57.291 -51.220  1.00  0.00    -0.033 A 
HETATM   12  C   UNL     1     -43.703  57.639 -51.372  1.00  0.00     0.026 A 
HETATM   13  C   UNL     1     -44.088  58.982 -51.426  1.00  0.00     0.034 A 
HETATM   14  C   UNL     1     -43.122  59.979 -51.225  1.00  0.00     0.017 A 
HETATM   15  C   UNL     1     -41.786  59.641 -51.016  1.00  0.00     0.002 A 
HETATM   16  C   UNL     1     -41.399  58.303 -51.026  1.00  0.00     0.009 A 
BRANCH  13  17
HETATM   17  C   UNL     1     -45.490  59.427 -51.643  1.00  0.00     0.270 C 
HETATM   18  N   UNL     1     -45.925  59.930 -52.850  1.00  0.00    -0.264 N 
HETATM   19  H   UNL     1     -46.883  60.278 -52.853  1.00  0.00     0.190 HD
HETATM   20  O   UNL     1     -46.280  59.365 -50.699  1.00  0.00    -0.266 OA
BRANCH  18  21
HETATM   21  N   UNL     1     -45.143  60.298 -53.950  1.00  0.00    -0.274 N 
HETATM   22  H   UNL     1     -44.637  61.185 -53.917  1.00  0.00     0.189 HD
BRANCH  21  23
HETATM   23  C   UNL     1     -45.459  59.839 -55.205  1.00  0.00     0.186 C 
HETATM   24  S   UNL     1     -45.751  60.788 -56.550  1.00  0.00    -0.040 SA
BRANCH  23  25
HETATM   25  N   UNL     1     -45.600  58.484 -55.330  1.00  0.00    -0.364 N 
HETATM   26  H   UNL     1     -46.552  58.164 -55.189  1.00  0.00     0.162 HD
BRANCH  25  27
HETATM   27  C   UNL     1     -44.537  57.497 -55.168  1.00  0.00     0.154 C 
BRANCH  27  28
HETATM   28  C   UNL     1     -43.478  57.511 -56.279  1.00  0.00     0.139 C 
HETATM   29  O   UNL     1     -44.112  57.450 -57.574  1.00  0.00    -0.384 OA
HETATM   30  C   UNL     1     -43.504  56.386 -58.320  1.00  0.00     0.168 C 
HETATM   31  C   UNL     1     -42.936  55.429 -57.299  1.00  0.00     0.029 C 
HETATM   32  C   UNL     1     -42.478  56.363 -56.208  1.00  0.00     0.035 C 
ENDBRANCH  27  28
ENDBRANCH  25  27
ENDBRANCH  23  25
ENDBRANCH  21  23
ENDBRANCH  18  21
ENDBRANCH  13  17
ENDBRANCH  10  11
ENDBRANCH   9  10
ENDBRANCH   1   9
TORSDOF 9
ENDMDL
MODEL 6
REMARK VINA RESULT:      -7.3      2.852      6.970
REMARK  9 active torsions:
REMARK  status: ('A' for Active; 'I' for Inactive)
REMARK    1  A    between atoms: C_3  and  C_4 
REMARK       I    between atoms: C_4  and  N_5 
REMARK    2  A    between atoms: N_5  and  N_6 
REMARK    3  A    between atoms: N_6  and  C_7 
REMARK    4  A    between atoms: C_7  and  N_8 
REMARK    5  A    between atoms: N_8  and  C_9 
REMARK    6  A    between atoms: C_9  and  C_10 
REMARK    7  A    between atoms: C_18  and  C_19 
REMARK    8  A    between atoms: C_19  and  O_20 
REMARK    9  A    between atoms: O_20  and  C_21 
ROOT
HETATM    1  C   UNL     1     -42.976  56.087 -56.817  1.00  0.00     0.069 A 
HETATM    2  C   UNL     1     -43.546  57.304 -56.435  1.00  0.00     0.038 A 
HETATM    3  C   UNL     1     -44.321  58.035 -57.344  1.00  0.00     0.025 A 
HETATM    4  C   UNL     1     -44.531  57.554 -58.640  1.00  0.00     0.044 A 
HETATM    5  C   UNL     1     -45.327  58.305 -59.566  1.00  0.00     0.099 C 
HETATM    6  N   UNL     1     -45.974  58.919 -60.309  1.00  0.00    -0.191 NA
HETATM    7  C   UNL     1     -43.962  56.338 -59.023  1.00  0.00     0.025 A 
HETATM    8  C   UNL     1     -43.190  55.611 -58.113  1.00  0.00     0.038 A 
ENDROOT
BRANCH   1   9
HETATM    9  O   UNL     1     -42.205  55.276 -56.030  1.00  0.00    -0.347 OA
BRANCH   9  10
HETATM   10  C   UNL     1     -42.882  54.235 -55.333  1.00  0.00     0.214 C 
BRANCH  10  11
HETATM   11  C   UNL     1     -42.159  53.936 -54.043  1.00  0.00    -0.033 A 
HETATM   12  C   UNL     1     -42.593  54.514 -52.837  1.00  0.00     0.026 A 
HETATM   13  C   UNL     1     -41.853  54.345 -51.662  1.00  0.00     0.034 A 
HETATM   14  C   UNL     1     -40.726  53.510 -51.678  1.00  0.00     0.017 A 
HETATM   15  C   UNL     1     -40.321  52.887 -52.857  1.00  0.00     0.002 A 
HETATM   16  C   UNL     1     -41.026  53.109 -54.037  1.00  0.00     0.009 A 
BRANCH  13  17
HETATM   17  C   UNL     1     -42.217  54.972 -50.364  1.00  0.00     0.270 C 
HETATM   18  N   UNL     1     -41.792  56.234 -50.011  1.00  0.00    -0.264 N 
HETATM   19  H   UNL     1     -42.036  56.524 -49.064  1.00  0.00     0.190 HD
HETATM   20  O   UNL     1     -42.902  54.326 -49.570  1.00  0.00    -0.266 OA
BRANCH  18  21
HETATM   21  N   UNL     1     -40.830  57.020 -50.655  1.00  0.00    -0.274 N 
HETATM   22  H   UNL     1     -39.856  56.947 -50.356  1.00  0.00     0.189 HD
BRANCH  21  23
HETATM   23  C   UNL     1     -41.189  58.216 -51.229  1.00  0.00     0.186 C 
HETATM   24  S   UNL     1     -41.052  59.723 -50.518  1.00  0.00    -0.040 SA
BRANCH  23  25
HETATM   25  N   UNL     1     -41.759  58.137 -52.470  1.00  0.00    -0.364 N 
HETATM   26  H   UNL     1     -41.321  57.449 -53.072  1.00  0.00     0.162 HD
BRANCH  25  27
HETATM   27  C   UNL     1     -42.537  59.188 -53.119  1.00  0.00     0.154 C 
BRANCH  27  28
HETATM   28  C   UNL     1     -44.057  59.054 -52.954  1.00  0.00     0.139 C 
HETATM   29  O   UNL     1     -44.502  59.795 -51.800  1.00  0.00    -0.384 OA
HETATM   30  C   UNL     1     -45.295  58.920 -50.986  1.00  0.00     0.168 C 
HETATM   31  C   UNL     1     -44.848  57.516 -51.318  1.00  0.00     0.029 C 
HETATM   32  C   UNL     1     -44.546  57.620 -52.791  1.00  0.00     0.035 C 
ENDBRANCH  27  28
ENDBRANCH  25  27
ENDBRANCH  23  25
ENDBRANCH  21  23
ENDBRANCH  18  21
ENDBRANCH  13  17
ENDBRANCH  10  11
ENDBRANCH   9  10
ENDBRANCH   1   9
TORSDOF 9
ENDMDL
MODEL 7
REMARK VINA RESULT:      -7.2      2.959      3.658
REMARK  9 active torsions:
REMARK  status: ('A' for Active; 'I' for Inactive)
REMARK    1  A    between atoms: C_3  and  C_4 
REMARK       I    between atoms: C_4  and  N_5 
REMARK    2  A    between atoms: N_5  and  N_6 
REMARK    3  A    between atoms: N_6  and  C_7 
REMARK    4  A    between atoms: C_7  and  N_8 
REMARK    5  A    between atoms: N_8  and  C_9 
REMARK    6  A    between atoms: C_9  and  C_10 
REMARK    7  A    between atoms: C_18  and  C_19 
REMARK    8  A    between atoms: C_19  and  O_20 
REMARK    9  A    between atoms: O_20  and  C_21 
ROOT
HETATM    1  C   UNL     1     -40.746  54.641 -53.324  1.00  0.00     0.069 A 
HETATM    2  C   UNL     1     -40.588  54.159 -54.626  1.00  0.00     0.038 A 
HETATM    3  C   UNL     1     -40.265  52.815 -54.845  1.00  0.00     0.025 A 
HETATM    4  C   UNL     1     -40.097  51.943 -53.765  1.00  0.00     0.044 A 
HETATM    5  C   UNL     1     -39.769  50.567 -53.995  1.00  0.00     0.099 C 
HETATM    6  N   UNL     1     -39.504  49.453 -54.190  1.00  0.00    -0.191 NA
HETATM    7  C   UNL     1     -40.255  52.423 -52.463  1.00  0.00     0.025 A 
HETATM    8  C   UNL     1     -40.578  53.765 -52.248  1.00  0.00     0.038 A 
ENDROOT
BRANCH   1   9
HETATM    9  O   UNL     1     -41.063  55.925 -52.973  1.00  0.00    -0.347 OA
BRANCH   9  10
HETATM   10  C   UNL     1     -41.431  56.140 -51.614  1.00  0.00     0.214 C 
BRANCH  10  11
HETATM   11  C   UNL     1     -42.537  57.164 -51.546  1.00  0.00    -0.033 A 
HETATM   12  C   UNL     1     -42.242  58.534 -51.662  1.00  0.00     0.026 A 
HETATM   13  C   UNL     1     -43.242  59.494 -51.472  1.00  0.00     0.034 A 
HETATM   14  C   UNL     1     -44.564  59.073 -51.266  1.00  0.00     0.017 A 
HETATM   15  C   UNL     1     -44.875  57.715 -51.207  1.00  0.00     0.002 A 
HETATM   16  C   UNL     1     -43.864  56.765 -51.334  1.00  0.00     0.009 A 
BRANCH  13  17
HETATM   17  C   UNL     1     -42.995  60.959 -51.520  1.00  0.00     0.270 C 
HETATM   18  N   UNL     1     -42.748  61.626 -52.701  1.00  0.00    -0.264 N 
HETATM   19  H   UNL     1     -42.512  62.613 -52.599  1.00  0.00     0.190 HD
HETATM   20  O   UNL     1     -42.989  61.590 -50.462  1.00  0.00    -0.266 OA
BRANCH  18  21
HETATM   21  N   UNL     1     -42.481  61.066 -53.954  1.00  0.00    -0.274 N 
HETATM   22  H   UNL     1     -41.552  60.678 -54.130  1.00  0.00     0.189 HD
BRANCH  21  23
HETATM   23  C   UNL     1     -43.164  61.502 -55.064  1.00  0.00     0.186 C 
HETATM   24  S   UNL     1     -44.258  62.766 -55.106  1.00  0.00    -0.040 SA
BRANCH  23  25
HETATM   25  N   UNL     1     -42.960  60.787 -56.211  1.00  0.00    -0.364 N 
HETATM   26  H   UNL     1     -43.608  61.026 -56.955  1.00  0.00     0.162 HD
BRANCH  25  27
HETATM   27  C   UNL     1     -42.293  59.492 -56.303  1.00  0.00     0.154 C 
BRANCH  27  28
HETATM   28  C   UNL     1     -43.242  58.289 -56.398  1.00  0.00     0.139 C 
HETATM   29  O   UNL     1     -44.456  58.663 -57.082  1.00  0.00    -0.384 OA
HETATM   30  C   UNL     1     -45.568  58.263 -56.268  1.00  0.00     0.168 C 
HETATM   31  C   UNL     1     -45.049  58.197 -54.851  1.00  0.00     0.029 C 
HETATM   32  C   UNL     1     -43.641  57.697 -55.052  1.00  0.00     0.035 C 
ENDBRANCH  27  28
ENDBRANCH  25  27
ENDBRANCH  23  25
ENDBRANCH  21  23
ENDBRANCH  18  21
ENDBRANCH  13  17
ENDBRANCH  10  11
ENDBRANCH   9  10
ENDBRANCH   1   9
TORSDOF 9
ENDMDL
MODEL 8
REMARK VINA RESULT:      -7.2      1.949      2.359
REMARK  9 active torsions:
REMARK  status: ('A' for Active; 'I' for Inactive)
REMARK    1  A    between atoms: C_3  and  C_4 
REMARK       I    between atoms: C_4  and  N_5 
REMARK    2  A    between atoms: N_5  and  N_6 
REMARK    3  A    between atoms: N_6  and  C_7 
REMARK    4  A    between atoms: C_7  and  N_8 
REMARK    5  A    between atoms: N_8  and  C_9 
REMARK    6  A    between atoms: C_9  and  C_10 
REMARK    7  A    between atoms: C_18  and  C_19 
REMARK    8  A    between atoms: C_19  and  O_20 
REMARK    9  A    between atoms: O_20  and  C_21 
ROOT
HETATM    1  C   UNL     1     -41.279  54.263 -52.744  1.00  0.00     0.069 A 
HETATM    2  C   UNL     1     -41.470  53.745 -54.027  1.00  0.00     0.038 A 
HETATM    3  C   UNL     1     -40.945  52.492 -54.365  1.00  0.00     0.025 A 
HETATM    4  C   UNL     1     -40.224  51.751 -53.424  1.00  0.00     0.044 A 
HETATM    5  C   UNL     1     -39.690  50.468 -53.775  1.00  0.00     0.099 C 
HETATM    6  N   UNL     1     -39.262  49.428 -54.067  1.00  0.00    -0.191 NA
HETATM    7  C   UNL     1     -40.032  52.268 -52.142  1.00  0.00     0.025 A 
HETATM    8  C   UNL     1     -40.559  53.518 -51.807  1.00  0.00     0.038 A 
ENDROOT
BRANCH   1   9
HETATM    9  O   UNL     1     -41.741  55.467 -52.284  1.00  0.00    -0.347 OA
BRANCH   9  10
HETATM   10  C   UNL     1     -41.121  55.980 -51.109  1.00  0.00     0.214 C 
BRANCH  10  11
HETATM   11  C   UNL     1     -41.469  57.439 -50.950  1.00  0.00    -0.033 A 
HETATM   12  C   UNL     1     -42.732  57.914 -51.345  1.00  0.00     0.026 A 
HETATM   13  C   UNL     1     -43.014  59.284 -51.321  1.00  0.00     0.034 A 
HETATM   14  C   UNL     1     -42.059  60.170 -50.803  1.00  0.00     0.017 A 
HETATM   15  C   UNL     1     -40.824  59.701 -50.355  1.00  0.00     0.002 A 
HETATM   16  C   UNL     1     -40.526  58.343 -50.440  1.00  0.00     0.009 A 
BRANCH  13  17
HETATM   17  C   UNL     1     -44.303  59.865 -51.778  1.00  0.00     0.270 C 
HETATM   18  N   UNL     1     -44.625  59.989 -53.113  1.00  0.00    -0.264 N 
HETATM   19  H   UNL     1     -45.499  60.477 -53.304  1.00  0.00     0.190 HD
HETATM   20  O   UNL     1     -45.099  60.272 -50.930  1.00  0.00    -0.266 OA
BRANCH  18  21
HETATM   21  N   UNL     1     -43.777  59.811 -54.211  1.00  0.00    -0.274 N 
HETATM   22  H   UNL     1     -43.539  60.624 -54.783  1.00  0.00     0.189 HD
BRANCH  21  23
HETATM   23  C   UNL     1     -43.723  58.596 -54.851  1.00  0.00     0.186 C 
HETATM   24  S   UNL     1     -44.715  57.285 -54.548  1.00  0.00    -0.040 SA
BRANCH  23  25
HETATM   25  N   UNL     1     -42.723  58.449 -55.773  1.00  0.00    -0.364 N 
HETATM   26  H   UNL     1     -42.333  59.331 -56.087  1.00  0.00     0.162 HD
BRANCH  25  27
HETATM   27  C   UNL     1     -42.521  57.289 -56.635  1.00  0.00     0.154 C 
BRANCH  27  28
HETATM   28  C   UNL     1     -43.272  57.348 -57.972  1.00  0.00     0.139 C 
HETATM   29  O   UNL     1     -43.521  56.015 -58.465  1.00  0.00    -0.384 OA
HETATM   30  C   UNL     1     -43.055  55.946 -59.821  1.00  0.00     0.168 C 
HETATM   31  C   UNL     1     -42.000  57.019 -59.957  1.00  0.00     0.029 C 
HETATM   32  C   UNL     1     -42.541  58.111 -59.070  1.00  0.00     0.035 C 
ENDBRANCH  27  28
ENDBRANCH  25  27
ENDBRANCH  23  25
ENDBRANCH  21  23
ENDBRANCH  18  21
ENDBRANCH  13  17
ENDBRANCH  10  11
ENDBRANCH   9  10
ENDBRANCH   1   9
TORSDOF 9
ENDMDL
MODEL 9
REMARK VINA RESULT:      -7.1      3.065      6.248
REMARK  9 active torsions:
REMARK  status: ('A' for Active; 'I' for Inactive)
REMARK    1  A    between atoms: C_3  and  C_4 
REMARK       I    between atoms: C_4  and  N_5 
REMARK    2  A    between atoms: N_5  and  N_6 
REMARK    3  A    between atoms: N_6  and  C_7 
REMARK    4  A    between atoms: C_7  and  N_8 
REMARK    5  A    between atoms: N_8  and  C_9 
REMARK    6  A    between atoms: C_9  and  C_10 
REMARK    7  A    between atoms: C_18  and  C_19 
REMARK    8  A    between atoms: C_19  and  O_20 
REMARK    9  A    between atoms: O_20  and  C_21 
ROOT
HETATM    1  C   UNL     1     -42.255  54.971 -55.070  1.00  0.00     0.069 A 
HETATM    2  C   UNL     1     -42.750  54.449 -53.873  1.00  0.00     0.038 A 
HETATM    3  C   UNL     1     -41.994  53.524 -53.142  1.00  0.00     0.025 A 
HETATM    4  C   UNL     1     -40.740  53.115 -53.604  1.00  0.00     0.044 A 
HETATM    5  C   UNL     1     -39.969  52.170 -52.851  1.00  0.00     0.099 C 
HETATM    6  N   UNL     1     -39.350  51.405 -52.234  1.00  0.00    -0.191 NA
HETATM    7  C   UNL     1     -40.243  53.636 -54.800  1.00  0.00     0.025 A 
HETATM    8  C   UNL     1     -41.000  54.560 -55.527  1.00  0.00     0.038 A 
ENDROOT
BRANCH   1   9
HETATM    9  O   UNL     1     -42.886  55.880 -55.875  1.00  0.00    -0.347 OA
BRANCH   9  10
HETATM   10  C   UNL     1     -42.993  55.543 -57.255  1.00  0.00     0.214 C 
BRANCH  10  11
HETATM   11  C   UNL     1     -42.636  56.742 -58.097  1.00  0.00    -0.033 A 
HETATM   12  C   UNL     1     -42.285  57.958 -57.486  1.00  0.00     0.026 A 
HETATM   13  C   UNL     1     -42.078  59.107 -58.257  1.00  0.00     0.034 A 
HETATM   14  C   UNL     1     -42.125  59.009 -59.655  1.00  0.00     0.017 A 
HETATM   15  C   UNL     1     -42.416  57.793 -60.273  1.00  0.00     0.002 A 
HETATM   16  C   UNL     1     -42.683  56.668 -59.497  1.00  0.00     0.009 A 
BRANCH  13  17
HETATM   17  C   UNL     1     -41.762  60.439 -57.679  1.00  0.00     0.270 C 
HETATM   18  N   UNL     1     -42.643  61.117 -56.865  1.00  0.00    -0.264 N 
HETATM   19  H   UNL     1     -42.350  62.056 -56.596  1.00  0.00     0.190 HD
HETATM   20  O   UNL     1     -40.682  60.962 -57.961  1.00  0.00    -0.266 OA
BRANCH  18  21
HETATM   21  N   UNL     1     -43.986  60.810 -56.623  1.00  0.00    -0.274 N 
HETATM   22  H   UNL     1     -44.684  61.085 -57.317  1.00  0.00     0.189 HD
BRANCH  21  23
HETATM   23  C   UNL     1     -44.445  60.687 -55.334  1.00  0.00     0.186 C 
HETATM   24  S   UNL     1     -45.846  61.365 -54.724  1.00  0.00    -0.040 SA
BRANCH  23  25
HETATM   25  N   UNL     1     -43.638  59.993 -54.475  1.00  0.00    -0.364 N 
HETATM   26  H   UNL     1     -43.676  58.988 -54.611  1.00  0.00     0.162 HD
BRANCH  25  27
HETATM   27  C   UNL     1     -43.154  60.471 -53.184  1.00  0.00     0.154 C 
BRANCH  27  28
HETATM   28  C   UNL     1     -42.377  59.429 -52.367  1.00  0.00     0.139 C 
HETATM   29  O   UNL     1     -41.017  59.866 -52.163  1.00  0.00    -0.384 OA
HETATM   30  C   UNL     1     -40.142  58.803 -52.566  1.00  0.00     0.168 C 
HETATM   31  C   UNL     1     -40.920  57.970 -53.557  1.00  0.00     0.029 C 
HETATM   32  C   UNL     1     -42.321  58.046 -53.004  1.00  0.00     0.035 C 
ENDBRANCH  27  28
ENDBRANCH  25  27
ENDBRANCH  23  25
ENDBRANCH  21  23
ENDBRANCH  18  21
ENDBRANCH  13  17
ENDBRANCH  10  11
ENDBRANCH   9  10
ENDBRANCH   1   9
TORSDOF 9
ENDMDL
MODEL 10
REMARK VINA RESULT:      -7.1      3.251      6.947
REMARK  9 active torsions:
REMARK  status: ('A' for Active; 'I' for Inactive)
REMARK    1  A    between atoms: C_3  and  C_4 
REMARK       I    between atoms: C_4  and  N_5 
REMARK    2  A    between atoms: N_5  and  N_6 
REMARK    3  A    between atoms: N_6  and  C_7 
REMARK    4  A    between atoms: C_7  and  N_8 
REMARK    5  A    between atoms: N_8  and  C_9 
REMARK    6  A    between atoms: C_9  and  C_10 
REMARK    7  A    between atoms: C_18  and  C_19 
REMARK    8  A    between atoms: C_19  and  O_20 
REMARK    9  A    between atoms: O_20  and  C_21 
ROOT
HETATM    1  C   UNL     1     -43.626  57.931 -57.804  1.00  0.00     0.069 A 
HETATM    2  C   UNL     1     -42.668  57.143 -58.444  1.00  0.00     0.038 A 
HETATM    3  C   UNL     1     -43.037  56.308 -59.506  1.00  0.00     0.025 A 
HETATM    4  C   UNL     1     -44.368  56.256 -59.933  1.00  0.00     0.044 A 
HETATM    5  C   UNL     1     -44.741  55.401 -61.022  1.00  0.00     0.099 C 
HETATM    6  N   UNL     1     -45.034  54.708 -61.906  1.00  0.00    -0.191 NA
HETATM    7  C   UNL     1     -45.327  57.043 -59.293  1.00  0.00     0.025 A 
HETATM    8  C   UNL     1     -44.954  57.876 -58.235  1.00  0.00     0.038 A 
ENDROOT
BRANCH   1   9
HETATM    9  O   UNL     1     -43.399  58.788 -56.761  1.00  0.00    -0.347 OA
BRANCH   9  10
HETATM   10  C   UNL     1     -42.081  58.798 -56.221  1.00  0.00     0.214 C 
BRANCH  10  11
HETATM   11  C   UNL     1     -42.111  59.375 -54.827  1.00  0.00    -0.033 A 
HETATM   12  C   UNL     1     -41.195  58.931 -53.857  1.00  0.00     0.026 A 
HETATM   13  C   UNL     1     -41.299  59.366 -52.531  1.00  0.00     0.034 A 
HETATM   14  C   UNL     1     -42.266  60.328 -52.201  1.00  0.00     0.017 A 
HETATM   15  C   UNL     1     -43.142  60.815 -53.169  1.00  0.00     0.002 A 
HETATM   16  C   UNL     1     -43.073  60.332 -54.474  1.00  0.00     0.009 A 
BRANCH  13  17
HETATM   17  C   UNL     1     -40.406  58.897 -51.440  1.00  0.00     0.270 C 
HETATM   18  N   UNL     1     -40.768  57.889 -50.573  1.00  0.00    -0.264 N 
HETATM   19  H   UNL     1     -40.108  57.711 -49.816  1.00  0.00     0.190 HD
HETATM   20  O   UNL     1     -39.315  59.450 -51.295  1.00  0.00    -0.266 OA
BRANCH  18  21
HETATM   21  N   UNL     1     -42.032  57.309 -50.423  1.00  0.00    -0.274 N 
HETATM   22  H   UNL     1     -42.774  57.858 -49.985  1.00  0.00     0.189 HD
BRANCH  21  23
HETATM   23  C   UNL     1     -42.157  55.945 -50.313  1.00  0.00     0.186 C 
HETATM   24  S   UNL     1     -41.183  54.944 -49.393  1.00  0.00    -0.040 SA
BRANCH  23  25
HETATM   25  N   UNL     1     -43.134  55.370 -51.077  1.00  0.00    -0.364 N 
HETATM   26  H   UNL     1     -43.641  54.634 -50.595  1.00  0.00     0.162 HD
BRANCH  25  27
HETATM   27  C   UNL     1     -43.186  55.367 -52.535  1.00  0.00     0.154 C 
BRANCH  27  28
HETATM   28  C   UNL     1     -42.077  54.550 -53.213  1.00  0.00     0.139 C 
HETATM   29  O   UNL     1     -40.880  55.345 -53.345  1.00  0.00    -0.384 OA
HETATM   30  C   UNL     1     -40.449  55.278 -54.712  1.00  0.00     0.168 C 
HETATM   31  C   UNL     1     -41.680  54.951 -55.525  1.00  0.00     0.029 C 
HETATM   32  C   UNL     1     -42.436  54.033 -54.600  1.00  0.00     0.035 C 
ENDBRANCH  27  28
ENDBRANCH  25  27
ENDBRANCH  23  25
ENDBRANCH  21  23
ENDBRANCH  18  21
ENDBRANCH  13  17
ENDBRANCH  10  11
ENDBRANCH   9  10
ENDBRANCH   1   9
TORSDOF 9
ENDMDL
