MODEL 1
REMARK VINA RESULT:      -7.7      0.000      0.000
REMARK  8 active torsions:
REMARK  status: ('A' for Active; 'I' for Inactive)
REMARK    1  A    between atoms: C_2  and  C_3 
REMARK    2  A    between atoms: C_3  and  N_4 
REMARK    3  A    between atoms: C_7  and  C_8 
REMARK       I    between atoms: C_8  and  N_9 
REMARK    4  A    between atoms: N_9  and  N_10 
REMARK       I    between atoms: N_10  and  C_11 
REMARK    5  A    between atoms: C_11  and  C_12 
REMARK    6  A    between atoms: C_12  and  O_13 
REMARK    7  A    between atoms: O_13  and  C_14 
REMARK    8  A    between atoms: C_23  and  C_24 
ROOT
HETATM    1  C   UNL     1     -43.042  55.757 -56.258  1.00  0.00     0.273 C 
HETATM    2  N   UNL     1     -43.822  55.725 -55.114  1.00  0.00    -0.263 N 
HETATM    3  O   UNL     1     -42.125  54.956 -56.430  1.00  0.00    -0.266 OA
HETATM    4  H   UNL     1     -44.366  56.541 -54.834  1.00  0.00     0.190 HD
ENDROOT
BRANCH   2   5
HETATM    5  N   UNL     1     -43.436  54.868 -54.067  1.00  0.00    -0.265 N 
HETATM    6  C   UNL     1     -42.699  55.418 -53.035  1.00  0.00     0.260 C 
HETATM    7  O   UNL     1     -42.509  56.632 -52.939  1.00  0.00    -0.269 OA
HETATM    8  H   UNL     1     -43.387  53.876 -54.297  1.00  0.00     0.190 HD
BRANCH   6   9
HETATM    9  C   UNL     1     -42.160  54.408 -52.033  1.00  0.00     0.280 C 
BRANCH   9  10
HETATM   10  O   UNL     1     -40.779  54.202 -52.308  1.00  0.00    -0.342 OA
BRANCH  10  11
HETATM   11  C   UNL     1     -40.431  52.948 -52.732  1.00  0.00     0.069 A 
HETATM   12  C   UNL     1     -40.060  52.061 -51.717  1.00  0.00     0.043 A 
HETATM   13  C   UNL     1     -39.677  50.746 -52.014  1.00  0.00    -0.059 A 
HETATM   14  C   UNL     1     -39.269  49.796 -50.928  1.00  0.00     0.048 C 
HETATM   15  C   UNL     1     -39.694  50.321 -53.346  1.00  0.00     0.007 A 
HETATM   16  C   UNL     1     -40.080  51.197 -54.360  1.00  0.00     0.003 A 
HETATM   17  C   UNL     1     -40.449  52.509 -54.056  1.00  0.00     0.037 A 
ENDBRANCH  10  11
ENDBRANCH   9  10
ENDBRANCH   6   9
ENDBRANCH   2   5
BRANCH   1  18
HETATM   18  C   UNL     1     -43.440  56.783 -57.206  1.00  0.00     0.077 A 
HETATM   19  C   UNL     1     -43.714  58.132 -56.862  1.00  0.00     0.158 A 
HETATM   20  N   UNL     1     -44.061  58.882 -57.901  1.00  0.00    -0.183 NA
HETATM   21  N   UNL     1     -44.028  58.028 -58.941  1.00  0.00    -0.268 N 
HETATM   22  C   UNL     1     -43.652  56.746 -58.582  1.00  0.00     0.052 A 
BRANCH  21  23
HETATM   23  C   UNL     1     -44.416  58.508 -60.269  1.00  0.00     0.106 C 
HETATM   24  C   UNL     1     -43.398  59.474 -60.893  1.00  0.00     0.034 C 
BRANCH  23  25
HETATM   25  C   UNL     1     -45.845  59.086 -60.278  1.00  0.00     0.022 C 
HETATM   26  C   UNL     1     -46.959  58.052 -60.167  1.00  0.00     0.007 C 
ENDBRANCH  23  25
ENDBRANCH  21  23
BRANCH  22  27
HETATM   27  C   UNL     1     -43.499  55.603 -59.589  1.00  0.00     0.038 A 
HETATM   28  C   UNL     1     -44.352  54.362 -59.479  1.00  0.00     0.011 A 
HETATM   29  C   UNL     1     -44.576  55.316 -60.605  1.00  0.00     0.011 A 
ENDBRANCH  22  27
ENDBRANCH   1  18
TORSDOF 8
ENDMDL
MODEL 2
REMARK VINA RESULT:      -7.4      2.000      8.669
REMARK  8 active torsions:
REMARK  status: ('A' for Active; 'I' for Inactive)
REMARK    1  A    between atoms: C_2  and  C_3 
REMARK    2  A    between atoms: C_3  and  N_4 
REMARK    3  A    between atoms: C_7  and  C_8 
REMARK       I    between atoms: C_8  and  N_9 
REMARK    4  A    between atoms: N_9  and  N_10 
REMARK       I    between atoms: N_10  and  C_11 
REMARK    5  A    between atoms: C_11  and  C_12 
REMARK    6  A    between atoms: C_12  and  O_13 
REMARK    7  A    between atoms: O_13  and  C_14 
REMARK    8  A    between atoms: C_23  and  C_24 
ROOT
HETATM    1  C   UNL     1     -43.427  54.865 -54.124  1.00  0.00     0.273 C 
HETATM    2  N   UNL     1     -43.749  56.212 -54.080  1.00  0.00    -0.263 N 
HETATM    3  O   UNL     1     -43.575  54.205 -55.150  1.00  0.00    -0.266 OA
HETATM    4  H   UNL     1     -43.910  56.677 -53.187  1.00  0.00     0.190 HD
ENDROOT
BRANCH   2   5
HETATM    5  N   UNL     1     -44.414  56.775 -55.184  1.00  0.00    -0.265 N 
HETATM    6  C   UNL     1     -43.684  57.617 -56.003  1.00  0.00     0.260 C 
HETATM    7  O   UNL     1     -42.466  57.758 -55.880  1.00  0.00    -0.269 OA
HETATM    8  H   UNL     1     -45.428  56.842 -55.109  1.00  0.00     0.190 HD
BRANCH   6   9
HETATM    9  C   UNL     1     -44.503  58.333 -57.066  1.00  0.00     0.280 C 
BRANCH   9  10
HETATM   10  O   UNL     1     -43.870  58.132 -58.325  1.00  0.00    -0.342 OA
BRANCH  10  11
HETATM   11  C   UNL     1     -44.312  57.061 -59.055  1.00  0.00     0.069 A 
HETATM   12  C   UNL     1     -45.543  57.244 -59.690  1.00  0.00     0.043 A 
HETATM   13  C   UNL     1     -46.113  56.225 -60.467  1.00  0.00    -0.059 A 
HETATM   14  C   UNL     1     -47.438  56.416 -61.141  1.00  0.00     0.048 C 
HETATM   15  C   UNL     1     -45.416  55.022 -60.619  1.00  0.00     0.007 A 
HETATM   16  C   UNL     1     -44.179  54.841 -60.001  1.00  0.00     0.003 A 
HETATM   17  C   UNL     1     -43.626  55.858 -59.220  1.00  0.00     0.037 A 
ENDBRANCH  10  11
ENDBRANCH   9  10
ENDBRANCH   6   9
ENDBRANCH   2   5
BRANCH   1  18
HETATM   18  C   UNL     1     -42.885  54.354 -52.876  1.00  0.00     0.077 A 
HETATM   19  C   UNL     1     -43.620  54.243 -51.668  1.00  0.00     0.158 A 
HETATM   20  N   UNL     1     -42.908  53.749 -50.661  1.00  0.00    -0.183 NA
HETATM   21  N   UNL     1     -41.692  53.540 -51.198  1.00  0.00    -0.268 N 
HETATM   22  C   UNL     1     -41.621  53.880 -52.537  1.00  0.00     0.052 A 
BRANCH  21  23
HETATM   23  C   UNL     1     -40.613  53.039 -50.343  1.00  0.00     0.106 C 
HETATM   24  C   UNL     1     -39.617  54.126 -49.913  1.00  0.00     0.034 C 
BRANCH  23  25
HETATM   25  C   UNL     1     -39.907  51.818 -50.964  1.00  0.00     0.022 C 
HETATM   26  C   UNL     1     -40.185  50.490 -50.270  1.00  0.00     0.007 C 
ENDBRANCH  23  25
ENDBRANCH  21  23
BRANCH  22  27
HETATM   27  C   UNL     1     -40.358  53.696 -53.385  1.00  0.00     0.038 A 
HETATM   28  C   UNL     1     -40.337  52.710 -54.527  1.00  0.00     0.011 A 
HETATM   29  C   UNL     1     -40.308  54.174 -54.813  1.00  0.00     0.011 A 
ENDBRANCH  22  27
ENDBRANCH   1  18
TORSDOF 8
ENDMDL
MODEL 3
REMARK VINA RESULT:      -7.3      5.004      9.464
REMARK  8 active torsions:
REMARK  status: ('A' for Active; 'I' for Inactive)
REMARK    1  A    between atoms: C_2  and  C_3 
REMARK    2  A    between atoms: C_3  and  N_4 
REMARK    3  A    between atoms: C_7  and  C_8 
REMARK       I    between atoms: C_8  and  N_9 
REMARK    4  A    between atoms: N_9  and  N_10 
REMARK       I    between atoms: N_10  and  C_11 
REMARK    5  A    between atoms: C_11  and  C_12 
REMARK    6  A    between atoms: C_12  and  O_13 
REMARK    7  A    between atoms: O_13  and  C_14 
REMARK    8  A    between atoms: C_23  and  C_24 
ROOT
HETATM    1  C   UNL     1     -41.887  56.656 -52.406  1.00  0.00     0.273 C 
HETATM    2  N   UNL     1     -43.272  56.691 -52.436  1.00  0.00    -0.263 N 
HETATM    3  O   UNL     1     -41.232  57.612 -51.998  1.00  0.00    -0.266 OA
HETATM    4  H   UNL     1     -43.794  56.047 -53.031  1.00  0.00     0.190 HD
ENDROOT
BRANCH   2   5
HETATM    5  N   UNL     1     -43.915  57.910 -52.153  1.00  0.00    -0.265 N 
HETATM    6  C   UNL     1     -44.916  57.892 -51.200  1.00  0.00     0.260 C 
HETATM    7  O   UNL     1     -45.146  56.900 -50.507  1.00  0.00    -0.269 OA
HETATM    8  H   UNL     1     -43.882  58.614 -52.889  1.00  0.00     0.190 HD
BRANCH   6   9
HETATM    9  C   UNL     1     -45.692  59.195 -51.072  1.00  0.00     0.280 C 
BRANCH   9  10
HETATM   10  O   UNL     1     -45.916  59.445 -49.690  1.00  0.00    -0.342 OA
BRANCH  10  11
HETATM   11  C   UNL     1     -45.505  60.666 -49.225  1.00  0.00     0.069 A 
HETATM   12  C   UNL     1     -45.562  60.821 -47.837  1.00  0.00     0.043 A 
HETATM   13  C   UNL     1     -45.174  62.023 -47.230  1.00  0.00    -0.059 A 
HETATM   14  C   UNL     1     -45.243  62.195 -45.742  1.00  0.00     0.048 C 
HETATM   15  C   UNL     1     -44.702  63.066 -48.034  1.00  0.00     0.007 A 
HETATM   16  C   UNL     1     -44.628  62.909 -49.418  1.00  0.00     0.003 A 
HETATM   17  C   UNL     1     -45.027  61.712 -50.015  1.00  0.00     0.037 A 
ENDBRANCH  10  11
ENDBRANCH   9  10
ENDBRANCH   6   9
ENDBRANCH   2   5
BRANCH   1  18
HETATM   18  C   UNL     1     -41.326  55.396 -52.863  1.00  0.00     0.077 A 
HETATM   19  C   UNL     1     -40.735  55.195 -54.137  1.00  0.00     0.158 A 
HETATM   20  N   UNL     1     -40.294  53.957 -54.325  1.00  0.00    -0.183 NA
HETATM   21  N   UNL     1     -40.602  53.326 -53.176  1.00  0.00    -0.268 N 
HETATM   22  C   UNL     1     -41.221  54.150 -52.252  1.00  0.00     0.052 A 
BRANCH  21  23
HETATM   23  C   UNL     1     -40.305  51.898 -53.046  1.00  0.00     0.106 C 
HETATM   24  C   UNL     1     -39.112  51.602 -52.126  1.00  0.00     0.034 C 
BRANCH  23  25
HETATM   25  C   UNL     1     -40.165  51.212 -54.419  1.00  0.00     0.022 C 
HETATM   26  C   UNL     1     -39.495  49.844 -54.391  1.00  0.00     0.007 C 
ENDBRANCH  23  25
ENDBRANCH  21  23
BRANCH  22  27
HETATM   27  C   UNL     1     -41.633  53.680 -50.853  1.00  0.00     0.038 A 
HETATM   28  C   UNL     1     -40.794  54.030 -49.648  1.00  0.00     0.011 A 
HETATM   29  C   UNL     1     -42.136  54.661 -49.824  1.00  0.00     0.011 A 
ENDBRANCH  22  27
ENDBRANCH   1  18
TORSDOF 8
ENDMDL
MODEL 4
REMARK VINA RESULT:      -7.3      2.128      9.201
REMARK  8 active torsions:
REMARK  status: ('A' for Active; 'I' for Inactive)
REMARK    1  A    between atoms: C_2  and  C_3 
REMARK    2  A    between atoms: C_3  and  N_4 
REMARK    3  A    between atoms: C_7  and  C_8 
REMARK       I    between atoms: C_8  and  N_9 
REMARK    4  A    between atoms: N_9  and  N_10 
REMARK       I    between atoms: N_10  and  C_11 
REMARK    5  A    between atoms: C_11  and  C_12 
REMARK    6  A    between atoms: C_12  and  O_13 
REMARK    7  A    between atoms: O_13  and  C_14 
REMARK    8  A    between atoms: C_23  and  C_24 
ROOT
HETATM    1  C   UNL     1     -42.404  54.357 -54.901  1.00  0.00     0.273 C 
HETATM    2  N   UNL     1     -41.644  55.271 -55.613  1.00  0.00    -0.263 N 
HETATM    3  O   UNL     1     -43.324  53.739 -55.432  1.00  0.00    -0.266 OA
HETATM    4  H   UNL     1     -41.098  55.982 -55.127  1.00  0.00     0.190 HD
ENDROOT
BRANCH   2   5
HETATM    5  N   UNL     1     -42.057  55.611 -56.915  1.00  0.00    -0.265 N 
HETATM    6  C   UNL     1     -42.549  56.888 -57.111  1.00  0.00     0.260 C 
HETATM    7  O   UNL     1     -42.494  57.754 -56.237  1.00  0.00    -0.269 OA
HETATM    8  H   UNL     1     -42.320  54.832 -57.518  1.00  0.00     0.190 HD
BRANCH   6   9
HETATM    9  C   UNL     1     -43.145  57.132 -58.490  1.00  0.00     0.280 C 
BRANCH   9  10
HETATM   10  O   UNL     1     -44.086  56.098 -58.757  1.00  0.00    -0.342 OA
BRANCH  10  11
HETATM   11  C   UNL     1     -45.203  56.468 -59.457  1.00  0.00     0.069 A 
HETATM   12  C   UNL     1     -45.723  57.721 -59.121  1.00  0.00     0.043 A 
HETATM   13  C   UNL     1     -46.868  58.220 -59.759  1.00  0.00    -0.059 A 
HETATM   14  C   UNL     1     -47.434  59.560 -59.395  1.00  0.00     0.048 C 
HETATM   15  C   UNL     1     -47.473  57.453 -60.760  1.00  0.00     0.007 A 
HETATM   16  C   UNL     1     -46.946  56.210 -61.110  1.00  0.00     0.003 A 
HETATM   17  C   UNL     1     -45.813  55.717 -60.461  1.00  0.00     0.037 A 
ENDBRANCH  10  11
ENDBRANCH   9  10
ENDBRANCH   6   9
ENDBRANCH   2   5
BRANCH   1  18
HETATM   18  C   UNL     1     -41.979  54.196 -53.521  1.00  0.00     0.077 A 
HETATM   19  C   UNL     1     -42.629  54.787 -52.407  1.00  0.00     0.158 A 
HETATM   20  N   UNL     1     -42.055  54.497 -51.245  1.00  0.00    -0.183 NA
HETATM   21  N   UNL     1     -41.012  53.718 -51.587  1.00  0.00    -0.268 N 
HETATM   22  C   UNL     1     -40.920  53.495 -52.950  1.00  0.00     0.052 A 
BRANCH  21  23
HETATM   23  C   UNL     1     -40.103  53.245 -50.540  1.00  0.00     0.106 C 
HETATM   24  C   UNL     1     -40.547  51.926 -49.892  1.00  0.00     0.034 C 
BRANCH  23  25
HETATM   25  C   UNL     1     -39.814  54.338 -49.493  1.00  0.00     0.022 C 
HETATM   26  C   UNL     1     -40.237  53.997 -48.070  1.00  0.00     0.007 C 
ENDBRANCH  23  25
ENDBRANCH  21  23
BRANCH  22  27
HETATM   27  C   UNL     1     -39.846  52.608 -53.586  1.00  0.00     0.038 A 
HETATM   28  C   UNL     1     -39.802  51.128 -53.297  1.00  0.00     0.011 A 
HETATM   29  C   UNL     1     -40.202  51.605 -54.654  1.00  0.00     0.011 A 
ENDBRANCH  22  27
ENDBRANCH   1  18
TORSDOF 8
ENDMDL
MODEL 5
REMARK VINA RESULT:      -7.2      1.855      3.101
REMARK  8 active torsions:
REMARK  status: ('A' for Active; 'I' for Inactive)
REMARK    1  A    between atoms: C_2  and  C_3 
REMARK    2  A    between atoms: C_3  and  N_4 
REMARK    3  A    between atoms: C_7  and  C_8 
REMARK       I    between atoms: C_8  and  N_9 
REMARK    4  A    between atoms: N_9  and  N_10 
REMARK       I    between atoms: N_10  and  C_11 
REMARK    5  A    between atoms: C_11  and  C_12 
REMARK    6  A    between atoms: C_12  and  O_13 
REMARK    7  A    between atoms: O_13  and  C_14 
REMARK    8  A    between atoms: C_23  and  C_24 
ROOT
HETATM    1  C   UNL     1     -42.886  56.348 -58.280  1.00  0.00     0.273 C 
HETATM    2  N   UNL     1     -42.166  56.474 -57.102  1.00  0.00    -0.263 N 
HETATM    3  O   UNL     1     -43.583  55.361 -58.500  1.00  0.00    -0.266 OA
HETATM    4  H   UNL     1     -41.379  57.120 -57.042  1.00  0.00     0.190 HD
ENDROOT
BRANCH   2   5
HETATM    5  N   UNL     1     -42.109  55.369 -56.233  1.00  0.00    -0.265 N 
HETATM    6  C   UNL     1     -42.844  55.442 -55.065  1.00  0.00     0.260 C 
HETATM    7  O   UNL     1     -43.642  56.355 -54.847  1.00  0.00    -0.269 OA
HETATM    8  H   UNL     1     -41.282  54.779 -56.315  1.00  0.00     0.190 HD
BRANCH   6   9
HETATM    9  C   UNL     1     -42.597  54.300 -54.090  1.00  0.00     0.280 C 
BRANCH   9  10
HETATM   10  O   UNL     1     -41.283  54.442 -53.564  1.00  0.00    -0.342 OA
BRANCH  10  11
HETATM   11  C   UNL     1     -40.716  53.307 -53.048  1.00  0.00     0.069 A 
HETATM   12  C   UNL     1     -40.480  52.289 -53.976  1.00  0.00     0.043 A 
HETATM   13  C   UNL     1     -39.908  51.071 -53.580  1.00  0.00    -0.059 A 
HETATM   14  C   UNL     1     -39.661  49.974 -54.571  1.00  0.00     0.048 C 
HETATM   15  C   UNL     1     -39.551  50.896 -52.239  1.00  0.00     0.007 A 
HETATM   16  C   UNL     1     -39.770  51.916 -51.313  1.00  0.00     0.003 A 
HETATM   17  C   UNL     1     -40.351  53.120 -51.715  1.00  0.00     0.037 A 
ENDBRANCH  10  11
ENDBRANCH   9  10
ENDBRANCH   6   9
ENDBRANCH   2   5
BRANCH   1  18
HETATM   18  C   UNL     1     -42.751  57.489 -59.170  1.00  0.00     0.077 A 
HETATM   19  C   UNL     1     -41.785  57.590 -60.204  1.00  0.00     0.158 A 
HETATM   20  N   UNL     1     -41.857  58.729 -60.883  1.00  0.00    -0.183 NA
HETATM   21  N   UNL     1     -42.868  59.394 -60.294  1.00  0.00    -0.268 N 
HETATM   22  C   UNL     1     -43.452  58.688 -59.255  1.00  0.00     0.052 A 
BRANCH  21  23
HETATM   23  C   UNL     1     -43.202  60.742 -60.759  1.00  0.00     0.106 C 
HETATM   24  C   UNL     1     -43.813  60.771 -62.167  1.00  0.00     0.034 C 
BRANCH  23  25
HETATM   25  C   UNL     1     -42.009  61.709 -60.623  1.00  0.00     0.022 C 
HETATM   26  C   UNL     1     -41.349  61.730 -59.250  1.00  0.00     0.007 C 
ENDBRANCH  23  25
ENDBRANCH  21  23
BRANCH  22  27
HETATM   27  C   UNL     1     -44.648  59.211 -58.454  1.00  0.00     0.038 A 
HETATM   28  C   UNL     1     -46.032  59.219 -59.057  1.00  0.00     0.011 A 
HETATM   29  C   UNL     1     -45.713  58.270 -57.950  1.00  0.00     0.011 A 
ENDBRANCH  22  27
ENDBRANCH   1  18
TORSDOF 8
ENDMDL
MODEL 6
REMARK VINA RESULT:      -7.0      4.374      6.749
REMARK  8 active torsions:
REMARK  status: ('A' for Active; 'I' for Inactive)
REMARK    1  A    between atoms: C_2  and  C_3 
REMARK    2  A    between atoms: C_3  and  N_4 
REMARK    3  A    between atoms: C_7  and  C_8 
REMARK       I    between atoms: C_8  and  N_9 
REMARK    4  A    between atoms: N_9  and  N_10 
REMARK       I    between atoms: N_10  and  C_11 
REMARK    5  A    between atoms: C_11  and  C_12 
REMARK    6  A    between atoms: C_12  and  O_13 
REMARK    7  A    between atoms: O_13  and  C_14 
REMARK    8  A    between atoms: C_23  and  C_24 
ROOT
HETATM    1  C   UNL     1     -43.659  57.427 -51.764  1.00  0.00     0.273 C 
HETATM    2  N   UNL     1     -43.756  57.358 -53.145  1.00  0.00    -0.263 N 
HETATM    3  O   UNL     1     -43.095  56.547 -51.118  1.00  0.00    -0.266 OA
HETATM    4  H   UNL     1     -44.456  57.906 -53.643  1.00  0.00     0.190 HD
ENDROOT
BRANCH   2   5
HETATM    5  N   UNL     1     -43.348  56.173 -53.784  1.00  0.00    -0.265 N 
HETATM    6  C   UNL     1     -42.108  56.176 -54.396  1.00  0.00     0.260 C 
HETATM    7  O   UNL     1     -41.315  57.111 -54.267  1.00  0.00    -0.269 OA
HETATM    8  H   UNL     1     -44.094  55.545 -54.079  1.00  0.00     0.190 HD
BRANCH   6   9
HETATM    9  C   UNL     1     -41.806  54.934 -55.220  1.00  0.00     0.280 C 
BRANCH   9  10
HETATM   10  O   UNL     1     -42.310  53.802 -54.520  1.00  0.00    -0.342 OA
BRANCH  10  11
HETATM   11  C   UNL     1     -41.403  53.113 -53.760  1.00  0.00     0.069 A 
HETATM   12  C   UNL     1     -40.876  51.967 -54.362  1.00  0.00     0.043 A 
HETATM   13  C   UNL     1     -39.940  51.166 -53.692  1.00  0.00    -0.059 A 
HETATM   14  C   UNL     1     -39.381  49.931 -54.332  1.00  0.00     0.048 C 
HETATM   15  C   UNL     1     -39.518  51.545 -52.414  1.00  0.00     0.007 A 
HETATM   16  C   UNL     1     -40.029  52.697 -51.816  1.00  0.00     0.003 A 
HETATM   17  C   UNL     1     -40.969  53.482 -52.487  1.00  0.00     0.037 A 
ENDBRANCH  10  11
ENDBRANCH   9  10
ENDBRANCH   6   9
ENDBRANCH   2   5
BRANCH   1  18
HETATM   18  C   UNL     1     -44.249  58.629 -51.198  1.00  0.00     0.077 A 
HETATM   19  C   UNL     1     -45.615  58.761 -50.842  1.00  0.00     0.158 A 
HETATM   20  N   UNL     1     -45.918  59.955 -50.346  1.00  0.00    -0.183 NA
HETATM   21  N   UNL     1     -44.750  60.624 -50.380  1.00  0.00    -0.268 N 
HETATM   22  C   UNL     1     -43.703  59.869 -50.879  1.00  0.00     0.052 A 
BRANCH  21  23
HETATM   23  C   UNL     1     -44.719  62.024 -49.948  1.00  0.00     0.106 C 
HETATM   24  C   UNL     1     -44.910  62.203 -48.435  1.00  0.00     0.034 C 
BRANCH  23  25
HETATM   25  C   UNL     1     -45.689  62.900 -50.764  1.00  0.00     0.022 C 
HETATM   26  C   UNL     1     -45.499  62.838 -52.275  1.00  0.00     0.007 C 
ENDBRANCH  23  25
ENDBRANCH  21  23
BRANCH  22  27
HETATM   27  C   UNL     1     -42.267  60.390 -50.980  1.00  0.00     0.038 A 
HETATM   28  C   UNL     1     -41.165  59.771 -50.154  1.00  0.00     0.011 A 
HETATM   29  C   UNL     1     -41.187  59.563 -51.632  1.00  0.00     0.011 A 
ENDBRANCH  22  27
ENDBRANCH   1  18
TORSDOF 8
ENDMDL
MODEL 7
REMARK VINA RESULT:      -6.7      1.674      2.300
REMARK  8 active torsions:
REMARK  status: ('A' for Active; 'I' for Inactive)
REMARK    1  A    between atoms: C_2  and  C_3 
REMARK    2  A    between atoms: C_3  and  N_4 
REMARK    3  A    between atoms: C_7  and  C_8 
REMARK       I    between atoms: C_8  and  N_9 
REMARK    4  A    between atoms: N_9  and  N_10 
REMARK       I    between atoms: N_10  and  C_11 
REMARK    5  A    between atoms: C_11  and  C_12 
REMARK    6  A    between atoms: C_12  and  O_13 
REMARK    7  A    between atoms: O_13  and  C_14 
REMARK    8  A    between atoms: C_23  and  C_24 
ROOT
HETATM    1  C   UNL     1     -42.249  56.287 -54.795  1.00  0.00     0.273 C 
HETATM    2  N   UNL     1     -42.743  55.777 -53.605  1.00  0.00    -0.263 N 
HETATM    3  O   UNL     1     -41.194  55.880 -55.276  1.00  0.00    -0.266 OA
HETATM    4  H   UNL     1     -43.432  56.299 -53.064  1.00  0.00     0.190 HD
ENDROOT
BRANCH   2   5
HETATM    5  N   UNL     1     -41.926  54.905 -52.863  1.00  0.00    -0.265 N 
HETATM    6  C   UNL     1     -42.279  54.670 -51.547  1.00  0.00     0.260 C 
HETATM    7  O   UNL     1     -43.342  55.072 -51.071  1.00  0.00    -0.269 OA
HETATM    8  H   UNL     1     -40.966  54.805 -53.190  1.00  0.00     0.190 HD
BRANCH   6   9
HETATM    9  C   UNL     1     -41.260  53.868 -50.751  1.00  0.00     0.280 C 
BRANCH   9  10
HETATM   10  O   UNL     1     -40.214  53.480 -51.633  1.00  0.00    -0.342 OA
BRANCH  10  11
HETATM   11  C   UNL     1     -40.020  52.132 -51.780  1.00  0.00     0.069 A 
HETATM   12  C   UNL     1     -39.901  51.691 -53.101  1.00  0.00     0.043 A 
HETATM   13  C   UNL     1     -39.704  50.334 -53.393  1.00  0.00    -0.059 A 
HETATM   14  C   UNL     1     -39.586  49.857 -54.809  1.00  0.00     0.048 C 
HETATM   15  C   UNL     1     -39.602  49.423 -52.336  1.00  0.00     0.007 A 
HETATM   16  C   UNL     1     -39.703  49.861 -51.016  1.00  0.00     0.003 A 
HETATM   17  C   UNL     1     -39.911  51.213 -50.736  1.00  0.00     0.037 A 
ENDBRANCH  10  11
ENDBRANCH   9  10
ENDBRANCH   6   9
ENDBRANCH   2   5
BRANCH   1  18
HETATM   18  C   UNL     1     -43.107  57.293 -55.398  1.00  0.00     0.077 A 
HETATM   19  C   UNL     1     -43.840  58.264 -54.670  1.00  0.00     0.158 A 
HETATM   20  N   UNL     1     -44.554  59.075 -55.442  1.00  0.00    -0.183 NA
HETATM   21  N   UNL     1     -44.304  58.636 -56.690  1.00  0.00    -0.268 N 
HETATM   22  C   UNL     1     -43.429  57.564 -56.725  1.00  0.00     0.052 A 
BRANCH  21  23
HETATM   23  C   UNL     1     -44.982  59.276 -57.820  1.00  0.00     0.106 C 
HETATM   24  C   UNL     1     -44.354  60.614 -58.233  1.00  0.00     0.034 C 
BRANCH  23  25
HETATM   25  C   UNL     1     -46.501  59.394 -57.587  1.00  0.00     0.022 C 
HETATM   26  C   UNL     1     -47.275  58.086 -57.700  1.00  0.00     0.007 C 
ENDBRANCH  23  25
ENDBRANCH  21  23
BRANCH  22  27
HETATM   27  C   UNL     1     -42.954  56.911 -58.027  1.00  0.00     0.038 A 
HETATM   28  C   UNL     1     -43.259  55.461 -58.315  1.00  0.00     0.011 A 
HETATM   29  C   UNL     1     -43.936  56.531 -59.106  1.00  0.00     0.011 A 
ENDBRANCH  22  27
ENDBRANCH   1  18
TORSDOF 8
ENDMDL
MODEL 8
REMARK VINA RESULT:      -6.7      4.446      6.423
REMARK  8 active torsions:
REMARK  status: ('A' for Active; 'I' for Inactive)
REMARK    1  A    between atoms: C_2  and  C_3 
REMARK    2  A    between atoms: C_3  and  N_4 
REMARK    3  A    between atoms: C_7  and  C_8 
REMARK       I    between atoms: C_8  and  N_9 
REMARK    4  A    between atoms: N_9  and  N_10 
REMARK       I    between atoms: N_10  and  C_11 
REMARK    5  A    between atoms: C_11  and  C_12 
REMARK    6  A    between atoms: C_12  and  O_13 
REMARK    7  A    between atoms: O_13  and  C_14 
REMARK    8  A    between atoms: C_23  and  C_24 
ROOT
HETATM    1  C   UNL     1     -41.941  59.546 -53.719  1.00  0.00     0.273 C 
HETATM    2  N   UNL     1     -42.605  58.592 -54.473  1.00  0.00    -0.263 N 
HETATM    3  O   UNL     1     -40.726  59.488 -53.540  1.00  0.00    -0.266 OA
HETATM    4  H   UNL     1     -43.613  58.467 -54.379  1.00  0.00     0.190 HD
ENDROOT
BRANCH   2   5
HETATM    5  N   UNL     1     -41.890  57.454 -54.889  1.00  0.00    -0.265 N 
HETATM    6  C   UNL     1     -42.568  56.250 -54.903  1.00  0.00     0.260 C 
HETATM    7  O   UNL     1     -43.783  56.178 -54.714  1.00  0.00    -0.269 OA
HETATM    8  H   UNL     1     -40.877  57.503 -54.791  1.00  0.00     0.190 HD
BRANCH   6   9
HETATM    9  C   UNL     1     -41.695  55.035 -55.185  1.00  0.00     0.280 C 
BRANCH   9  10
HETATM   10  O   UNL     1     -42.231  53.927 -54.471  1.00  0.00    -0.342 OA
BRANCH  10  11
HETATM   11  C   UNL     1     -41.338  53.201 -53.730  1.00  0.00     0.069 A 
HETATM   12  C   UNL     1     -40.873  52.033 -54.342  1.00  0.00     0.043 A 
HETATM   13  C   UNL     1     -39.957  51.194 -53.691  1.00  0.00    -0.059 A 
HETATM   14  C   UNL     1     -39.465  49.936 -54.340  1.00  0.00     0.048 C 
HETATM   15  C   UNL     1     -39.492  51.555 -52.422  1.00  0.00     0.007 A 
HETATM   16  C   UNL     1     -39.940  52.729 -51.816  1.00  0.00     0.003 A 
HETATM   17  C   UNL     1     -40.861  53.552 -52.468  1.00  0.00     0.037 A 
ENDBRANCH  10  11
ENDBRANCH   9  10
ENDBRANCH   6   9
ENDBRANCH   2   5
BRANCH   1  18
HETATM   18  C   UNL     1     -42.808  60.598 -53.214  1.00  0.00     0.077 A 
HETATM   19  C   UNL     1     -42.957  61.873 -53.816  1.00  0.00     0.158 A 
HETATM   20  N   UNL     1     -43.806  62.665 -53.171  1.00  0.00    -0.183 NA
HETATM   21  N   UNL     1     -44.216  61.918 -52.129  1.00  0.00    -0.268 N 
HETATM   22  C   UNL     1     -43.651  60.655 -52.108  1.00  0.00     0.052 A 
BRANCH  21  23
HETATM   23  C   UNL     1     -45.137  62.503 -51.152  1.00  0.00     0.106 C 
HETATM   24  C   UNL     1     -46.143  63.485 -51.769  1.00  0.00     0.034 C 
BRANCH  23  25
HETATM   25  C   UNL     1     -44.388  63.116 -49.952  1.00  0.00     0.022 C 
HETATM   26  C   UNL     1     -44.557  62.368 -48.636  1.00  0.00     0.007 C 
ENDBRANCH  23  25
ENDBRANCH  21  23
BRANCH  22  27
HETATM   27  C   UNL     1     -43.989  59.602 -51.049  1.00  0.00     0.038 A 
HETATM   28  C   UNL     1     -45.368  58.990 -50.985  1.00  0.00     0.011 A 
HETATM   29  C   UNL     1     -44.210  58.160 -51.432  1.00  0.00     0.011 A 
ENDBRANCH  22  27
ENDBRANCH   1  18
TORSDOF 8
ENDMDL
MODEL 9
REMARK VINA RESULT:      -6.7      2.352      9.402
REMARK  8 active torsions:
REMARK  status: ('A' for Active; 'I' for Inactive)
REMARK    1  A    between atoms: C_2  and  C_3 
REMARK    2  A    between atoms: C_3  and  N_4 
REMARK    3  A    between atoms: C_7  and  C_8 
REMARK       I    between atoms: C_8  and  N_9 
REMARK    4  A    between atoms: N_9  and  N_10 
REMARK       I    between atoms: N_10  and  C_11 
REMARK    5  A    between atoms: C_11  and  C_12 
REMARK    6  A    between atoms: C_12  and  O_13 
REMARK    7  A    between atoms: O_13  and  C_14 
REMARK    8  A    between atoms: C_23  and  C_24 
ROOT
HETATM    1  C   UNL     1     -42.442  54.394 -54.855  1.00  0.00     0.273 C 
HETATM    2  N   UNL     1     -41.619  55.215 -55.609  1.00  0.00    -0.263 N 
HETATM    3  O   UNL     1     -43.436  53.862 -55.344  1.00  0.00    -0.266 OA
HETATM    4  H   UNL     1     -40.989  55.876 -55.154  1.00  0.00     0.190 HD
ENDROOT
BRANCH   2   5
HETATM    5  N   UNL     1     -42.037  55.570 -56.905  1.00  0.00    -0.265 N 
HETATM    6  C   UNL     1     -42.554  56.841 -57.078  1.00  0.00     0.260 C 
HETATM    7  O   UNL     1     -42.516  57.692 -56.188  1.00  0.00    -0.269 OA
HETATM    8  H   UNL     1     -42.284  54.798 -57.522  1.00  0.00     0.190 HD
BRANCH   6   9
HETATM    9  C   UNL     1     -43.153  57.098 -58.453  1.00  0.00     0.280 C 
BRANCH   9  10
HETATM   10  O   UNL     1     -42.130  57.619 -59.293  1.00  0.00    -0.342 OA
BRANCH  10  11
HETATM   11  C   UNL     1     -42.394  58.825 -59.884  1.00  0.00     0.069 A 
HETATM   12  C   UNL     1     -43.278  59.649 -59.180  1.00  0.00     0.043 A 
HETATM   13  C   UNL     1     -43.637  60.910 -59.676  1.00  0.00    -0.059 A 
HETATM   14  C   UNL     1     -44.592  61.791 -58.928  1.00  0.00     0.048 C 
HETATM   15  C   UNL     1     -43.077  61.348 -60.880  1.00  0.00     0.007 A 
HETATM   16  C   UNL     1     -42.182  60.537 -61.577  1.00  0.00     0.003 A 
HETATM   17  C   UNL     1     -41.839  59.278 -61.081  1.00  0.00     0.037 A 
ENDBRANCH  10  11
ENDBRANCH   9  10
ENDBRANCH   6   9
ENDBRANCH   2   5
BRANCH   1  18
HETATM   18  C   UNL     1     -41.991  54.217 -53.485  1.00  0.00     0.077 A 
HETATM   19  C   UNL     1     -42.603  54.818 -52.355  1.00  0.00     0.158 A 
HETATM   20  N   UNL     1     -42.011  54.509 -51.207  1.00  0.00    -0.183 NA
HETATM   21  N   UNL     1     -40.994  53.707 -51.574  1.00  0.00    -0.268 N 
HETATM   22  C   UNL     1     -40.937  53.489 -52.940  1.00  0.00     0.052 A 
BRANCH  21  23
HETATM   23  C   UNL     1     -40.074  53.209 -50.550  1.00  0.00     0.106 C 
HETATM   24  C   UNL     1     -40.514  51.876 -49.926  1.00  0.00     0.034 C 
BRANCH  23  25
HETATM   25  C   UNL     1     -39.769  54.277 -49.482  1.00  0.00     0.022 C 
HETATM   26  C   UNL     1     -40.288  53.960 -48.085  1.00  0.00     0.007 C 
ENDBRANCH  23  25
ENDBRANCH  21  23
BRANCH  22  27
HETATM   27  C   UNL     1     -39.898  52.580 -53.603  1.00  0.00     0.038 A 
HETATM   28  C   UNL     1     -39.828  51.113 -53.258  1.00  0.00     0.011 A 
HETATM   29  C   UNL     1     -40.311  51.533 -54.606  1.00  0.00     0.011 A 
ENDBRANCH  22  27
ENDBRANCH   1  18
TORSDOF 8
ENDMDL
MODEL 10
REMARK VINA RESULT:      -6.7     15.257     19.151
REMARK  8 active torsions:
REMARK  status: ('A' for Active; 'I' for Inactive)
REMARK    1  A    between atoms: C_2  and  C_3 
REMARK    2  A    between atoms: C_3  and  N_4 
REMARK    3  A    between atoms: C_7  and  C_8 
REMARK       I    between atoms: C_8  and  N_9 
REMARK    4  A    between atoms: N_9  and  N_10 
REMARK       I    between atoms: N_10  and  C_11 
REMARK    5  A    between atoms: C_11  and  C_12 
REMARK    6  A    between atoms: C_12  and  O_13 
REMARK    7  A    between atoms: O_13  and  C_14 
REMARK    8  A    between atoms: C_23  and  C_24 
ROOT
HETATM    1  C   UNL     1     -33.698  39.776 -53.646  1.00  0.00     0.273 C 
HETATM    2  N   UNL     1     -33.604  41.125 -53.945  1.00  0.00    -0.263 N 
HETATM    3  O   UNL     1     -34.146  38.970 -54.460  1.00  0.00    -0.266 OA
HETATM    4  H   UNL     1     -33.521  41.817 -53.200  1.00  0.00     0.190 HD
ENDROOT
BRANCH   2   5
HETATM    5  N   UNL     1     -34.193  41.588 -55.137  1.00  0.00    -0.265 N 
HETATM    6  C   UNL     1     -35.401  42.250 -55.032  1.00  0.00     0.260 C 
HETATM    7  O   UNL     1     -35.882  42.570 -53.943  1.00  0.00    -0.269 OA
HETATM    8  H   UNL     1     -33.914  41.103 -55.989  1.00  0.00     0.190 HD
BRANCH   6   9
HETATM    9  C   UNL     1     -36.070  42.561 -56.362  1.00  0.00     0.280 C 
BRANCH   9  10
HETATM   10  O   UNL     1     -37.216  41.728 -56.489  1.00  0.00    -0.342 OA
BRANCH  10  11
HETATM   11  C   UNL     1     -37.397  41.137 -57.711  1.00  0.00     0.069 A 
HETATM   12  C   UNL     1     -37.906  39.836 -57.671  1.00  0.00     0.043 A 
HETATM   13  C   UNL     1     -38.135  39.114 -58.851  1.00  0.00    -0.059 A 
HETATM   14  C   UNL     1     -38.673  37.716 -58.809  1.00  0.00     0.048 C 
HETATM   15  C   UNL     1     -37.869  39.726 -60.080  1.00  0.00     0.007 A 
HETATM   16  C   UNL     1     -37.377  41.030 -60.126  1.00  0.00     0.003 A 
HETATM   17  C   UNL     1     -37.141  41.737 -58.944  1.00  0.00     0.037 A 
ENDBRANCH  10  11
ENDBRANCH   9  10
ENDBRANCH   6   9
ENDBRANCH   2   5
BRANCH   1  18
HETATM   18  C   UNL     1     -33.196  39.435 -52.326  1.00  0.00     0.077 A 
HETATM   19  C   UNL     1     -32.011  38.692 -52.085  1.00  0.00     0.158 A 
HETATM   20  N   UNL     1     -31.758  38.506 -50.795  1.00  0.00    -0.183 NA
HETATM   21  N   UNL     1     -32.784  39.117 -50.173  1.00  0.00    -0.268 N 
HETATM   22  C   UNL     1     -33.681  39.703 -51.050  1.00  0.00     0.052 A 
BRANCH  21  23
HETATM   23  C   UNL     1     -32.864  39.065 -48.712  1.00  0.00     0.106 C 
HETATM   24  C   UNL     1     -31.556  39.459 -48.012  1.00  0.00     0.034 C 
BRANCH  23  25
HETATM   25  C   UNL     1     -33.405  37.710 -48.214  1.00  0.00     0.022 C 
HETATM   26  C   UNL     1     -34.410  37.796 -47.072  1.00  0.00     0.007 C 
ENDBRANCH  23  25
ENDBRANCH  21  23
BRANCH  22  27
HETATM   27  C   UNL     1     -34.909  40.495 -50.589  1.00  0.00     0.038 A 
HETATM   28  C   UNL     1     -36.236  40.328 -51.287  1.00  0.00     0.011 A 
HETATM   29  C   UNL     1     -36.059  39.807 -49.899  1.00  0.00     0.011 A 
ENDBRANCH  22  27
ENDBRANCH   1  18
TORSDOF 8
ENDMDL
