MODEL 1
REMARK VINA RESULT:      -8.5      0.000      0.000
REMARK  5 active torsions:
REMARK  status: ('A' for Active; 'I' for Inactive)
REMARK    1  A    between atoms: O_2  and  C_3 
REMARK    2  A    between atoms: C_6  and  C_7 
REMARK    3  A    between atoms: C_11  and  N_12 
REMARK       I    between atoms: N_15  and  C_16 
REMARK    4  A    between atoms: C_16  and  C_17 
REMARK    5  A    between atoms: C_17  and  C_18 
ROOT
HETATM    1  N   UNL     1     -43.590  59.525 -51.736  1.00  0.00    -0.363 N 
HETATM    2  C   UNL     1     -42.179  59.070 -51.726  1.00  0.00     0.144 C 
HETATM    3  C   UNL     1     -42.079  57.540 -51.524  1.00  0.00     0.145 C 
HETATM    4  N   UNL     1     -42.936  56.829 -52.487  1.00  0.00    -0.349 N 
HETATM    5  C   UNL     1     -42.485  56.290 -53.686  1.00  0.00     0.224 C 
HETATM    6  O   UNL     1     -43.251  56.098 -54.635  1.00  0.00    -0.273 OA
HETATM    7  C   UNL     1     -44.339  57.257 -52.417  1.00  0.00     0.145 C 
HETATM    8  C   UNL     1     -44.447  58.772 -52.688  1.00  0.00     0.144 C 
ENDROOT
BRANCH   1   9
HETATM    9  C   UNL     1     -44.143  60.053 -50.604  1.00  0.00     0.122 A 
HETATM   10  N   UNL     1     -45.354  59.625 -50.123  1.00  0.00    -0.262 N 
HETATM   11  N   UNL     1     -45.784  60.282 -49.035  1.00  0.00    -0.173 NA
HETATM   12  H   UNL     1     -45.954  58.916 -50.524  1.00  0.00     0.191 HD
HETATM   13  C   UNL     1     -44.822  61.187 -48.796  1.00  0.00     0.090 A 
HETATM   14  C   UNL     1     -43.782  61.081 -49.764  1.00  0.00     0.084 A 
BRANCH  13  15
HETATM   15  C   UNL     1     -44.923  62.139 -47.693  1.00  0.00    -0.005 A 
HETATM   16  C   UNL     1     -45.131  61.700 -46.381  1.00  0.00     0.016 A 
HETATM   17  C   UNL     1     -45.196  62.625 -45.332  1.00  0.00     0.037 A 
HETATM   18  C   UNL     1     -45.042  63.991 -45.573  1.00  0.00     0.068 A 
HETATM   19  C   UNL     1     -44.855  64.436 -46.881  1.00  0.00     0.037 A 
HETATM   20  C   UNL     1     -44.801  63.514 -47.935  1.00  0.00     0.016 A 
BRANCH  18  21
HETATM   21  O   UNL     1     -45.105  64.782 -44.459  1.00  0.00    -0.356 OA
HETATM   22  C   UNL     1     -44.896  64.136 -43.209  1.00  0.00     0.210 C 
ENDBRANCH  18  21
ENDBRANCH  13  15
ENDBRANCH   1   9
BRANCH   5  23
HETATM   23  C   UNL     1     -41.016  55.920 -53.815  1.00  0.00     0.141 C 
BRANCH  23  24
HETATM   24  C   UNL     1     -40.701  54.448 -53.654  1.00  0.00    -0.049 A 
HETATM   25  C   UNL     1     -40.515  53.853 -52.396  1.00  0.00     0.009 A 
HETATM   26  C   UNL     1     -40.190  52.498 -52.289  1.00  0.00     0.019 A 
HETATM   27  C   UNL     1     -40.021  51.733 -53.439  1.00  0.00     0.011 A 
HETATM   28 BR   UNL     1     -39.568  49.904 -53.293  1.00  0.00    -0.051 Br
HETATM   29  C   UNL     1     -40.172  52.311 -54.696  1.00  0.00     0.019 A 
HETATM   30  C   UNL     1     -40.507  53.663 -54.802  1.00  0.00     0.009 A 
ENDBRANCH  23  24
ENDBRANCH   5  23
TORSDOF 5
ENDMDL
MODEL 2
REMARK VINA RESULT:      -8.3      8.086     10.742
REMARK  5 active torsions:
REMARK  status: ('A' for Active; 'I' for Inactive)
REMARK    1  A    between atoms: O_2  and  C_3 
REMARK    2  A    between atoms: C_6  and  C_7 
REMARK    3  A    between atoms: C_11  and  N_12 
REMARK       I    between atoms: N_15  and  C_16 
REMARK    4  A    between atoms: C_16  and  C_17 
REMARK    5  A    between atoms: C_17  and  C_18 
ROOT
HETATM    1  N   UNL     1     -43.737  56.830 -56.638  1.00  0.00    -0.363 N 
HETATM    2  C   UNL     1     -43.616  58.275 -56.331  1.00  0.00     0.144 C 
HETATM    3  C   UNL     1     -42.318  58.873 -56.921  1.00  0.00     0.145 C 
HETATM    4  N   UNL     1     -42.197  58.549 -58.352  1.00  0.00    -0.349 N 
HETATM    5  C   UNL     1     -42.575  59.401 -59.382  1.00  0.00     0.224 C 
HETATM    6  O   UNL     1     -42.867  58.970 -60.503  1.00  0.00    -0.273 OA
HETATM    7  C   UNL     1     -42.250  57.104 -58.609  1.00  0.00     0.145 C 
HETATM    8  C   UNL     1     -43.576  56.518 -58.084  1.00  0.00     0.144 C 
ENDROOT
BRANCH   1   9
HETATM    9  C   UNL     1     -43.372  55.902 -55.705  1.00  0.00     0.122 A 
HETATM   10  N   UNL     1     -44.200  55.556 -54.668  1.00  0.00    -0.262 N 
HETATM   11  N   UNL     1     -43.673  54.673 -53.806  1.00  0.00    -0.173 NA
HETATM   12  H   UNL     1     -45.121  55.925 -54.472  1.00  0.00     0.191 HD
HETATM   13  C   UNL     1     -42.443  54.436 -54.289  1.00  0.00     0.090 A 
HETATM   14  C   UNL     1     -42.214  55.195 -55.472  1.00  0.00     0.084 A 
BRANCH  13  15
HETATM   15  C   UNL     1     -41.515  53.534 -53.613  1.00  0.00    -0.005 A 
HETATM   16  C   UNL     1     -41.199  53.708 -52.260  1.00  0.00     0.016 A 
HETATM   17  C   UNL     1     -40.330  52.817 -51.621  1.00  0.00     0.037 A 
HETATM   18  C   UNL     1     -39.777  51.737 -52.312  1.00  0.00     0.068 A 
HETATM   19  C   UNL     1     -40.072  51.571 -53.665  1.00  0.00     0.037 A 
HETATM   20  C   UNL     1     -40.933  52.468 -54.311  1.00  0.00     0.016 A 
BRANCH  18  21
HETATM   21  O   UNL     1     -38.963  50.932 -51.565  1.00  0.00    -0.356 OA
HETATM   22  C   UNL     1     -39.572  49.793 -50.968  1.00  0.00     0.210 C 
ENDBRANCH  18  21
ENDBRANCH  13  15
ENDBRANCH   1   9
BRANCH   5  23
HETATM   23  C   UNL     1     -42.614  60.898 -59.116  1.00  0.00     0.141 C 
BRANCH  23  24
HETATM   24  C   UNL     1     -41.494  61.699 -59.746  1.00  0.00    -0.049 A 
HETATM   25  C   UNL     1     -40.472  62.288 -58.985  1.00  0.00     0.009 A 
HETATM   26  C   UNL     1     -39.474  63.050 -59.598  1.00  0.00     0.019 A 
HETATM   27  C   UNL     1     -39.506  63.252 -60.974  1.00  0.00     0.011 A 
HETATM   28 BR   UNL     1     -38.163  64.294 -61.801  1.00  0.00    -0.051 Br
HETATM   29  C   UNL     1     -40.526  62.701 -61.743  1.00  0.00     0.019 A 
HETATM   30  C   UNL     1     -41.517  61.931 -61.130  1.00  0.00     0.009 A 
ENDBRANCH  23  24
ENDBRANCH   5  23
TORSDOF 5
ENDMDL
MODEL 3
REMARK VINA RESULT:      -8.2      4.019     10.807
REMARK  5 active torsions:
REMARK  status: ('A' for Active; 'I' for Inactive)
REMARK    1  A    between atoms: O_2  and  C_3 
REMARK    2  A    between atoms: C_6  and  C_7 
REMARK    3  A    between atoms: C_11  and  N_12 
REMARK       I    between atoms: N_15  and  C_16 
REMARK    4  A    between atoms: C_16  and  C_17 
REMARK    5  A    between atoms: C_17  and  C_18 
ROOT
HETATM    1  N   UNL     1     -42.301  58.419 -53.323  1.00  0.00    -0.363 N 
HETATM    2  C   UNL     1     -43.695  58.572 -52.841  1.00  0.00     0.144 C 
HETATM    3  C   UNL     1     -43.750  58.708 -51.302  1.00  0.00     0.145 C 
HETATM    4  N   UNL     1     -42.833  59.761 -50.837  1.00  0.00    -0.349 N 
HETATM    5  C   UNL     1     -43.218  61.067 -50.559  1.00  0.00     0.224 C 
HETATM    6  O   UNL     1     -42.409  62.000 -50.596  1.00  0.00    -0.273 OA
HETATM    7  C   UNL     1     -41.449  59.537 -51.275  1.00  0.00     0.145 C 
HETATM    8  C   UNL     1     -41.381  59.471 -52.814  1.00  0.00     0.144 C 
ENDROOT
BRANCH   1   9
HETATM    9  C   UNL     1     -41.811  57.176 -53.607  1.00  0.00     0.122 A 
HETATM   10  N   UNL     1     -41.718  56.712 -54.893  1.00  0.00    -0.262 N 
HETATM   11  N   UNL     1     -41.269  55.452 -54.999  1.00  0.00    -0.173 NA
HETATM   12  H   UNL     1     -41.990  57.197 -55.739  1.00  0.00     0.191 HD
HETATM   13  C   UNL     1     -41.069  55.067 -53.729  1.00  0.00     0.090 A 
HETATM   14  C   UNL     1     -41.407  56.116 -52.827  1.00  0.00     0.084 A 
BRANCH  13  15
HETATM   15  C   UNL     1     -40.600  53.723 -53.401  1.00  0.00    -0.005 A 
HETATM   16  C   UNL     1     -40.265  53.378 -52.087  1.00  0.00     0.016 A 
HETATM   17  C   UNL     1     -39.845  52.078 -51.786  1.00  0.00     0.037 A 
HETATM   18  C   UNL     1     -39.767  51.103 -52.782  1.00  0.00     0.068 A 
HETATM   19  C   UNL     1     -40.081  51.446 -54.097  1.00  0.00     0.037 A 
HETATM   20  C   UNL     1     -40.491  52.750 -54.404  1.00  0.00     0.016 A 
BRANCH  18  21
HETATM   21  O   UNL     1     -39.365  49.870 -52.350  1.00  0.00    -0.356 OA
HETATM   22  C   UNL     1     -39.621  49.560 -50.986  1.00  0.00     0.210 C 
ENDBRANCH  18  21
ENDBRANCH  13  15
ENDBRANCH   1   9
BRANCH   5  23
HETATM   23  C   UNL     1     -44.667  61.340 -50.189  1.00  0.00     0.141 C 
BRANCH  23  24
HETATM   24  C   UNL     1     -44.882  61.987 -48.838  1.00  0.00    -0.049 A 
HETATM   25  C   UNL     1     -44.951  63.380 -48.675  1.00  0.00     0.009 A 
HETATM   26  C   UNL     1     -45.115  63.943 -47.406  1.00  0.00     0.019 A 
HETATM   27  C   UNL     1     -45.182  63.119 -46.287  1.00  0.00     0.011 A 
HETATM   28 BR   UNL     1     -45.388  63.882 -44.570  1.00  0.00    -0.051 Br
HETATM   29  C   UNL     1     -45.085  61.737 -46.424  1.00  0.00     0.019 A 
HETATM   30  C   UNL     1     -44.932  61.175 -47.694  1.00  0.00     0.009 A 
ENDBRANCH  23  24
ENDBRANCH   5  23
TORSDOF 5
ENDMDL
MODEL 4
REMARK VINA RESULT:      -8.1      8.155     10.726
REMARK  5 active torsions:
REMARK  status: ('A' for Active; 'I' for Inactive)
REMARK    1  A    between atoms: O_2  and  C_3 
REMARK    2  A    between atoms: C_6  and  C_7 
REMARK    3  A    between atoms: C_11  and  N_12 
REMARK       I    between atoms: N_15  and  C_16 
REMARK    4  A    between atoms: C_16  and  C_17 
REMARK    5  A    between atoms: C_17  and  C_18 
ROOT
HETATM    1  N   UNL     1     -42.746  57.420 -56.726  1.00  0.00    -0.363 N 
HETATM    2  C   UNL     1     -41.970  57.711 -57.955  1.00  0.00     0.144 C 
HETATM    3  C   UNL     1     -42.786  57.391 -59.229  1.00  0.00     0.145 C 
HETATM    4  N   UNL     1     -44.105  58.042 -59.181  1.00  0.00    -0.349 N 
HETATM    5  C   UNL     1     -44.401  59.257 -59.788  1.00  0.00     0.224 C 
HETATM    6  O   UNL     1     -45.330  59.968 -59.391  1.00  0.00    -0.273 OA
HETATM    7  C   UNL     1     -44.872  57.674 -57.984  1.00  0.00     0.145 C 
HETATM    8  C   UNL     1     -44.089  58.057 -56.711  1.00  0.00     0.144 C 
ENDROOT
BRANCH   1   9
HETATM    9  C   UNL     1     -42.550  56.244 -56.060  1.00  0.00     0.122 A 
HETATM   10  N   UNL     1     -43.533  55.293 -55.967  1.00  0.00    -0.262 N 
HETATM   11  N   UNL     1     -43.202  54.220 -55.232  1.00  0.00    -0.173 NA
HETATM   12  H   UNL     1     -44.469  55.342 -56.349  1.00  0.00     0.191 HD
HETATM   13  C   UNL     1     -41.954  54.481 -54.814  1.00  0.00     0.090 A 
HETATM   14  C   UNL     1     -41.514  55.744 -55.304  1.00  0.00     0.084 A 
BRANCH  13  15
HETATM   15  C   UNL     1     -41.228  53.557 -53.947  1.00  0.00    -0.005 A 
HETATM   16  C   UNL     1     -40.578  52.436 -54.474  1.00  0.00     0.016 A 
HETATM   17  C   UNL     1     -39.862  51.577 -53.632  1.00  0.00     0.037 A 
HETATM   18  C   UNL     1     -39.773  51.829 -52.262  1.00  0.00     0.068 A 
HETATM   19  C   UNL     1     -40.436  52.934 -51.727  1.00  0.00     0.037 A 
HETATM   20  C   UNL     1     -41.163  53.789 -52.567  1.00  0.00     0.016 A 
BRANCH  18  21
HETATM   21  O   UNL     1     -39.027  50.926 -51.557  1.00  0.00    -0.356 OA
HETATM   22  C   UNL     1     -39.736  49.853 -50.948  1.00  0.00     0.210 C 
ENDBRANCH  18  21
ENDBRANCH  13  15
ENDBRANCH   1   9
BRANCH   5  23
HETATM   23  C   UNL     1     -43.564  59.704 -60.976  1.00  0.00     0.141 C 
BRANCH  23  24
HETATM   24  C   UNL     1     -42.493  60.730 -60.666  1.00  0.00    -0.049 A 
HETATM   25  C   UNL     1     -41.781  61.399 -61.674  1.00  0.00     0.009 A 
HETATM   26  C   UNL     1     -40.775  62.313 -61.349  1.00  0.00     0.019 A 
HETATM   27  C   UNL     1     -40.454  62.544 -60.015  1.00  0.00     0.011 A 
HETATM   28 BR   UNL     1     -39.084  63.770 -59.578  1.00  0.00    -0.051 Br
HETATM   29  C   UNL     1     -41.128  61.869 -59.002  1.00  0.00     0.019 A 
HETATM   30  C   UNL     1     -42.141  60.963 -59.328  1.00  0.00     0.009 A 
ENDBRANCH  23  24
ENDBRANCH   5  23
TORSDOF 5
ENDMDL
MODEL 5
REMARK VINA RESULT:      -8.0      1.334      1.930
REMARK  5 active torsions:
REMARK  status: ('A' for Active; 'I' for Inactive)
REMARK    1  A    between atoms: O_2  and  C_3 
REMARK    2  A    between atoms: C_6  and  C_7 
REMARK    3  A    between atoms: C_11  and  N_12 
REMARK       I    between atoms: N_15  and  C_16 
REMARK    4  A    between atoms: C_16  and  C_17 
REMARK    5  A    between atoms: C_17  and  C_18 
ROOT
HETATM    1  N   UNL     1     -43.142  59.378 -52.830  1.00  0.00    -0.363 N 
HETATM    2  C   UNL     1     -41.758  58.885 -53.030  1.00  0.00     0.144 C 
HETATM    3  C   UNL     1     -41.537  57.521 -52.337  1.00  0.00     0.145 C 
HETATM    4  N   UNL     1     -42.582  56.561 -52.728  1.00  0.00    -0.349 N 
HETATM    5  C   UNL     1     -42.437  55.614 -53.734  1.00  0.00     0.224 C 
HETATM    6  O   UNL     1     -43.415  55.138 -54.319  1.00  0.00    -0.273 OA
HETATM    7  C   UNL     1     -43.936  57.056 -52.448  1.00  0.00     0.145 C 
HETATM    8  C   UNL     1     -44.183  58.382 -53.196  1.00  0.00     0.144 C 
ENDROOT
BRANCH   1   9
HETATM    9  C   UNL     1     -43.403  60.297 -51.853  1.00  0.00     0.122 A 
HETATM   10  N   UNL     1     -42.899  61.571 -51.905  1.00  0.00    -0.262 N 
HETATM   11  N   UNL     1     -43.200  62.332 -50.842  1.00  0.00    -0.173 NA
HETATM   12  H   UNL     1     -42.303  61.963 -52.622  1.00  0.00     0.191 HD
HETATM   13  C   UNL     1     -43.923  61.523 -50.053  1.00  0.00     0.090 A 
HETATM   14  C   UNL     1     -44.063  60.236 -50.647  1.00  0.00     0.084 A 
BRANCH  13  15
HETATM   15  C   UNL     1     -44.431  61.969 -48.758  1.00  0.00    -0.005 A 
HETATM   16  C   UNL     1     -44.634  63.328 -48.494  1.00  0.00     0.016 A 
HETATM   17  C   UNL     1     -45.148  63.735 -47.258  1.00  0.00     0.037 A 
HETATM   18  C   UNL     1     -45.480  62.798 -46.277  1.00  0.00     0.068 A 
HETATM   19  C   UNL     1     -45.260  61.443 -46.527  1.00  0.00     0.037 A 
HETATM   20  C   UNL     1     -44.735  61.033 -47.760  1.00  0.00     0.016 A 
BRANCH  18  21
HETATM   21  O   UNL     1     -45.993  63.327 -45.125  1.00  0.00    -0.356 OA
HETATM   22  C   UNL     1     -45.059  63.902 -44.219  1.00  0.00     0.210 C 
ENDBRANCH  18  21
ENDBRANCH  13  15
ENDBRANCH   1   9
BRANCH   5  23
HETATM   23  C   UNL     1     -41.037  55.148 -54.105  1.00  0.00     0.141 C 
BRANCH  23  24
HETATM   24  C   UNL     1     -40.592  53.852 -53.461  1.00  0.00    -0.049 A 
HETATM   25  C   UNL     1     -40.239  52.722 -54.215  1.00  0.00     0.009 A 
HETATM   26  C   UNL     1     -39.867  51.532 -53.584  1.00  0.00     0.019 A 
HETATM   27  C   UNL     1     -39.872  51.454 -52.195  1.00  0.00     0.011 A 
HETATM   28 BR   UNL     1     -39.382  49.839 -51.343  1.00  0.00    -0.051 Br
HETATM   29  C   UNL     1     -40.247  52.554 -51.430  1.00  0.00     0.019 A 
HETATM   30  C   UNL     1     -40.609  53.746 -52.061  1.00  0.00     0.009 A 
ENDBRANCH  23  24
ENDBRANCH   5  23
TORSDOF 5
ENDMDL
MODEL 6
REMARK VINA RESULT:      -7.9      5.553      9.242
REMARK  5 active torsions:
REMARK  status: ('A' for Active; 'I' for Inactive)
REMARK    1  A    between atoms: O_2  and  C_3 
REMARK    2  A    between atoms: C_6  and  C_7 
REMARK    3  A    between atoms: C_11  and  N_12 
REMARK       I    between atoms: N_15  and  C_16 
REMARK    4  A    between atoms: C_16  and  C_17 
REMARK    5  A    between atoms: C_17  and  C_18 
ROOT
HETATM    1  N   UNL     1     -42.497  56.236 -55.329  1.00  0.00    -0.363 N 
HETATM    2  C   UNL     1     -41.244  56.033 -54.564  1.00  0.00     0.144 C 
HETATM    3  C   UNL     1     -41.086  57.089 -53.446  1.00  0.00     0.145 C 
HETATM    4  N   UNL     1     -42.297  57.151 -52.612  1.00  0.00    -0.349 N 
HETATM    5  C   UNL     1     -42.450  56.486 -51.402  1.00  0.00     0.224 C 
HETATM    6  O   UNL     1     -43.567  56.204 -50.956  1.00  0.00    -0.273 OA
HETATM    7  C   UNL     1     -43.508  57.424 -53.397  1.00  0.00     0.145 C 
HETATM    8  C   UNL     1     -43.706  56.333 -54.468  1.00  0.00     0.144 C 
ENDROOT
BRANCH   1   9
HETATM    9  C   UNL     1     -42.467  56.898 -56.524  1.00  0.00     0.122 A 
HETATM   10  N   UNL     1     -42.678  56.252 -57.714  1.00  0.00    -0.262 N 
HETATM   11  N   UNL     1     -42.559  57.032 -58.800  1.00  0.00    -0.173 NA
HETATM   12  H   UNL     1     -42.864  55.266 -57.850  1.00  0.00     0.191 HD
HETATM   13  C   UNL     1     -42.245  58.238 -58.304  1.00  0.00     0.090 A 
HETATM   14  C   UNL     1     -42.168  58.193 -56.882  1.00  0.00     0.084 A 
BRANCH  13  15
HETATM   15  C   UNL     1     -41.997  59.383 -59.176  1.00  0.00    -0.005 A 
HETATM   16  C   UNL     1     -42.115  59.270 -60.565  1.00  0.00     0.016 A 
HETATM   17  C   UNL     1     -41.902  60.384 -61.383  1.00  0.00     0.037 A 
HETATM   18  C   UNL     1     -41.584  61.627 -60.831  1.00  0.00     0.068 A 
HETATM   19  C   UNL     1     -41.445  61.742 -59.448  1.00  0.00     0.037 A 
HETATM   20  C   UNL     1     -41.647  60.624 -58.627  1.00  0.00     0.016 A 
BRANCH  18  21
HETATM   21  O   UNL     1     -41.424  62.636 -61.739  1.00  0.00    -0.356 OA
HETATM   22  C   UNL     1     -40.106  62.843 -62.233  1.00  0.00     0.210 C 
ENDBRANCH  18  21
ENDBRANCH  13  15
ENDBRANCH   1   9
BRANCH   5  23
HETATM   23  C   UNL     1     -41.206  56.112 -50.611  1.00  0.00     0.141 C 
BRANCH  23  24
HETATM   24  C   UNL     1     -40.818  54.649 -50.665  1.00  0.00    -0.049 A 
HETATM   25  C   UNL     1     -40.531  53.992 -51.872  1.00  0.00     0.009 A 
HETATM   26  C   UNL     1     -40.211  52.632 -51.886  1.00  0.00     0.019 A 
HETATM   27  C   UNL     1     -40.201  51.912 -50.695  1.00  0.00     0.011 A 
HETATM   28 BR   UNL     1     -39.781  50.069 -50.717  1.00  0.00    -0.051 Br
HETATM   29  C   UNL     1     -40.510  52.537 -49.491  1.00  0.00     0.019 A 
HETATM   30  C   UNL     1     -40.821  53.899 -49.478  1.00  0.00     0.009 A 
ENDBRANCH  23  24
ENDBRANCH   5  23
TORSDOF 5
ENDMDL
MODEL 7
REMARK VINA RESULT:      -7.6      7.373     10.474
REMARK  5 active torsions:
REMARK  status: ('A' for Active; 'I' for Inactive)
REMARK    1  A    between atoms: O_2  and  C_3 
REMARK    2  A    between atoms: C_6  and  C_7 
REMARK    3  A    between atoms: C_11  and  N_12 
REMARK       I    between atoms: N_15  and  C_16 
REMARK    4  A    between atoms: C_16  and  C_17 
REMARK    5  A    between atoms: C_17  and  C_18 
ROOT
HETATM    1  N   UNL     1     -42.613  57.560 -55.936  1.00  0.00    -0.363 N 
HETATM    2  C   UNL     1     -42.477  57.253 -57.380  1.00  0.00     0.144 C 
HETATM    3  C   UNL     1     -43.822  56.799 -57.992  1.00  0.00     0.145 C 
HETATM    4  N   UNL     1     -44.891  57.762 -57.679  1.00  0.00    -0.349 N 
HETATM    5  C   UNL     1     -45.308  58.773 -58.535  1.00  0.00     0.224 C 
HETATM    6  O   UNL     1     -45.864  59.791 -58.110  1.00  0.00    -0.273 OA
HETATM    7  C   UNL     1     -45.042  57.986 -56.235  1.00  0.00     0.145 C 
HETATM    8  C   UNL     1     -43.720  58.507 -55.635  1.00  0.00     0.144 C 
ENDROOT
BRANCH   1   9
HETATM    9  C   UNL     1     -42.252  56.629 -55.005  1.00  0.00     0.122 A 
HETATM   10  N   UNL     1     -42.431  56.841 -53.662  1.00  0.00    -0.262 N 
HETATM   11  N   UNL     1     -41.972  55.854 -52.877  1.00  0.00    -0.173 NA
HETATM   12  H   UNL     1     -42.821  57.664 -53.220  1.00  0.00     0.191 HD
HETATM   13  C   UNL     1     -41.461  54.961 -53.737  1.00  0.00     0.090 A 
HETATM   14  C   UNL     1     -41.608  55.415 -55.080  1.00  0.00     0.084 A 
BRANCH  13  15
HETATM   15  C   UNL     1     -40.824  53.730 -53.275  1.00  0.00    -0.005 A 
HETATM   16  C   UNL     1     -40.604  53.501 -51.913  1.00  0.00     0.016 A 
HETATM   17  C   UNL     1     -40.019  52.304 -51.486  1.00  0.00     0.037 A 
HETATM   18  C   UNL     1     -39.661  51.316 -52.405  1.00  0.00     0.068 A 
HETATM   19  C   UNL     1     -39.859  51.546 -53.766  1.00  0.00     0.037 A 
HETATM   20  C   UNL     1     -40.434  52.749 -54.197  1.00  0.00     0.016 A 
BRANCH  18  21
HETATM   21  O   UNL     1     -39.121  50.187 -51.854  1.00  0.00    -0.356 OA
HETATM   22  C   UNL     1     -39.643  49.783 -50.594  1.00  0.00     0.210 C 
ENDBRANCH  18  21
ENDBRANCH  13  15
ENDBRANCH   1   9
BRANCH   5  23
HETATM   23  C   UNL     1     -45.083  58.606 -60.030  1.00  0.00     0.141 C 
BRANCH  23  24
HETATM   24  C   UNL     1     -44.043  59.524 -60.636  1.00  0.00    -0.049 A 
HETATM   25  C   UNL     1     -42.667  59.259 -60.552  1.00  0.00     0.009 A 
HETATM   26  C   UNL     1     -41.735  60.149 -61.094  1.00  0.00     0.019 A 
HETATM   27  C   UNL     1     -42.170  61.323 -61.699  1.00  0.00     0.011 A 
HETATM   28 BR   UNL     1     -40.907  62.533 -62.418  1.00  0.00    -0.051 Br
HETATM   29  C   UNL     1     -43.528  61.619 -61.767  1.00  0.00     0.019 A 
HETATM   30  C   UNL     1     -44.459  60.724 -61.234  1.00  0.00     0.009 A 
ENDBRANCH  23  24
ENDBRANCH   5  23
TORSDOF 5
ENDMDL
MODEL 8
REMARK VINA RESULT:      -7.5      4.989     10.965
REMARK  5 active torsions:
REMARK  status: ('A' for Active; 'I' for Inactive)
REMARK    1  A    between atoms: O_2  and  C_3 
REMARK    2  A    between atoms: C_6  and  C_7 
REMARK    3  A    between atoms: C_11  and  N_12 
REMARK       I    between atoms: N_15  and  C_16 
REMARK    4  A    between atoms: C_16  and  C_17 
REMARK    5  A    between atoms: C_17  and  C_18 
ROOT
HETATM    1  N   UNL     1     -43.009  59.478 -52.328  1.00  0.00    -0.363 N 
HETATM    2  C   UNL     1     -43.597  60.524 -53.198  1.00  0.00     0.144 C 
HETATM    3  C   UNL     1     -45.135  60.391 -53.283  1.00  0.00     0.145 C 
HETATM    4  N   UNL     1     -45.729  60.322 -51.938  1.00  0.00    -0.349 N 
HETATM    5  C   UNL     1     -46.268  61.410 -51.263  1.00  0.00     0.224 C 
HETATM    6  O   UNL     1     -46.354  61.429 -50.031  1.00  0.00    -0.273 OA
HETATM    7  C   UNL     1     -45.171  59.229 -51.131  1.00  0.00     0.145 C 
HETATM    8  C   UNL     1     -43.645  59.399 -50.986  1.00  0.00     0.144 C 
ENDROOT
BRANCH   1   9
HETATM    9  C   UNL     1     -42.469  58.354 -52.885  1.00  0.00     0.122 A 
HETATM   10  N   UNL     1     -42.343  58.208 -54.242  1.00  0.00    -0.262 N 
HETATM   11  N   UNL     1     -41.846  57.023 -54.630  1.00  0.00    -0.173 NA
HETATM   12  H   UNL     1     -42.623  58.868 -54.956  1.00  0.00     0.191 HD
HETATM   13  C   UNL     1     -41.647  56.358 -53.482  1.00  0.00     0.090 A 
HETATM   14  C   UNL     1     -42.035  57.155 -52.367  1.00  0.00     0.084 A 
BRANCH  13  15
HETATM   15  C   UNL     1     -41.132  54.992 -53.468  1.00  0.00    -0.005 A 
HETATM   16  C   UNL     1     -40.727  54.363 -54.651  1.00  0.00     0.016 A 
HETATM   17  C   UNL     1     -40.209  53.063 -54.615  1.00  0.00     0.037 A 
HETATM   18  C   UNL     1     -40.074  52.381 -53.404  1.00  0.00     0.068 A 
HETATM   19  C   UNL     1     -40.494  52.995 -52.225  1.00  0.00     0.037 A 
HETATM   20  C   UNL     1     -41.024  54.291 -52.259  1.00  0.00     0.016 A 
BRANCH  18  21
HETATM   21  O   UNL     1     -39.534  51.129 -53.507  1.00  0.00    -0.356 OA
HETATM   22  C   UNL     1     -40.246  50.194 -54.309  1.00  0.00     0.210 C 
ENDBRANCH  18  21
ENDBRANCH  13  15
ENDBRANCH   1   9
BRANCH   5  23
HETATM   23  C   UNL     1     -46.772  62.596 -52.072  1.00  0.00     0.141 C 
BRANCH  23  24
HETATM   24  C   UNL     1     -48.278  62.733 -52.152  1.00  0.00    -0.049 A 
HETATM   25  C   UNL     1     -49.010  63.516 -51.245  1.00  0.00     0.009 A 
HETATM   26  C   UNL     1     -50.403  63.591 -51.330  1.00  0.00     0.019 A 
HETATM   27  C   UNL     1     -51.077  62.861 -52.303  1.00  0.00     0.011 A 
HETATM   28 BR   UNL     1     -52.963  62.951 -52.407  1.00  0.00    -0.051 Br
HETATM   29  C   UNL     1     -50.373  62.055 -53.193  1.00  0.00     0.019 A 
HETATM   30  C   UNL     1     -48.980  61.990 -53.114  1.00  0.00     0.009 A 
ENDBRANCH  23  24
ENDBRANCH   5  23
TORSDOF 5
ENDMDL
MODEL 9
REMARK VINA RESULT:      -7.5      3.082      4.009
REMARK  5 active torsions:
REMARK  status: ('A' for Active; 'I' for Inactive)
REMARK    1  A    between atoms: O_2  and  C_3 
REMARK    2  A    between atoms: C_6  and  C_7 
REMARK    3  A    between atoms: C_11  and  N_12 
REMARK       I    between atoms: N_15  and  C_16 
REMARK    4  A    between atoms: C_16  and  C_17 
REMARK    5  A    between atoms: C_17  and  C_18 
ROOT
HETATM    1  N   UNL     1     -42.491  57.972 -51.746  1.00  0.00    -0.363 N 
HETATM    2  C   UNL     1     -43.122  56.666 -52.053  1.00  0.00     0.144 C 
HETATM    3  C   UNL     1     -43.257  56.448 -53.578  1.00  0.00     0.145 C 
HETATM    4  N   UNL     1     -41.967  56.668 -54.254  1.00  0.00    -0.349 N 
HETATM    5  C   UNL     1     -41.081  55.655 -54.598  1.00  0.00     0.224 C 
HETATM    6  O   UNL     1     -39.876  55.877 -54.753  1.00  0.00    -0.273 OA
HETATM    7  C   UNL     1     -41.409  57.999 -53.981  1.00  0.00     0.145 C 
HETATM    8  C   UNL     1     -41.208  58.192 -52.465  1.00  0.00     0.144 C 
ENDROOT
BRANCH   1   9
HETATM    9  C   UNL     1     -43.270  59.044 -51.416  1.00  0.00     0.122 A 
HETATM   10  N   UNL     1     -43.041  59.783 -50.284  1.00  0.00    -0.262 N 
HETATM   11  N   UNL     1     -43.929  60.768 -50.074  1.00  0.00    -0.173 NA
HETATM   12  H   UNL     1     -42.318  59.634 -49.593  1.00  0.00     0.191 HD
HETATM   13  C   UNL     1     -44.784  60.665 -51.102  1.00  0.00     0.090 A 
HETATM   14  C   UNL     1     -44.411  59.590 -51.960  1.00  0.00     0.084 A 
BRANCH  13  15
HETATM   15  C   UNL     1     -45.937  61.552 -51.232  1.00  0.00    -0.005 A 
HETATM   16  C   UNL     1     -46.784  61.473 -52.342  1.00  0.00     0.016 A 
HETATM   17  C   UNL     1     -47.901  62.312 -52.436  1.00  0.00     0.037 A 
HETATM   18  C   UNL     1     -48.195  63.226 -51.423  1.00  0.00     0.068 A 
HETATM   19  C   UNL     1     -47.343  63.323 -50.323  1.00  0.00     0.037 A 
HETATM   20  C   UNL     1     -46.218  62.492 -50.232  1.00  0.00     0.016 A 
BRANCH  18  21
HETATM   21  O   UNL     1     -49.326  63.968 -51.628  1.00  0.00    -0.356 OA
HETATM   22  C   UNL     1     -50.480  63.259 -52.064  1.00  0.00     0.210 C 
ENDBRANCH  18  21
ENDBRANCH  13  15
ENDBRANCH   1   9
BRANCH   5  23
HETATM   23  C   UNL     1     -41.621  54.248 -54.799  1.00  0.00     0.141 C 
BRANCH  23  24
HETATM   24  C   UNL     1     -41.062  53.198 -53.861  1.00  0.00    -0.049 A 
HETATM   25  C   UNL     1     -40.928  53.418 -52.481  1.00  0.00     0.009 A 
HETATM   26  C   UNL     1     -40.374  52.438 -51.653  1.00  0.00     0.019 A 
HETATM   27  C   UNL     1     -39.925  51.241 -52.202  1.00  0.00     0.011 A 
HETATM   28 BR   UNL     1     -39.163  49.922 -51.082  1.00  0.00    -0.051 Br
HETATM   29  C   UNL     1     -40.021  51.015 -53.572  1.00  0.00     0.019 A 
HETATM   30  C   UNL     1     -40.584  51.991 -54.397  1.00  0.00     0.009 A 
ENDBRANCH  23  24
ENDBRANCH   5  23
TORSDOF 5
ENDMDL
MODEL 10
REMARK VINA RESULT:      -7.4     19.352     21.543
REMARK  5 active torsions:
REMARK  status: ('A' for Active; 'I' for Inactive)
REMARK    1  A    between atoms: O_2  and  C_3 
REMARK    2  A    between atoms: C_6  and  C_7 
REMARK    3  A    between atoms: C_11  and  N_12 
REMARK       I    between atoms: N_15  and  C_16 
REMARK    4  A    between atoms: C_16  and  C_17 
REMARK    5  A    between atoms: C_17  and  C_18 
ROOT
HETATM    1  N   UNL     1     -34.812  39.563 -52.995  1.00  0.00    -0.363 N 
HETATM    2  C   UNL     1     -36.133  39.179 -53.548  1.00  0.00     0.144 C 
HETATM    3  C   UNL     1     -37.121  40.368 -53.531  1.00  0.00     0.145 C 
HETATM    4  N   UNL     1     -36.523  41.553 -54.167  1.00  0.00    -0.349 N 
HETATM    5  C   UNL     1     -36.735  41.923 -55.489  1.00  0.00     0.224 C 
HETATM    6  O   UNL     1     -35.925  42.626 -56.101  1.00  0.00    -0.273 OA
HETATM    7  C   UNL     1     -35.251  41.945 -53.546  1.00  0.00     0.145 C 
HETATM    8  C   UNL     1     -34.240  40.783 -53.625  1.00  0.00     0.144 C 
ENDROOT
BRANCH   1   9
HETATM    9  C   UNL     1     -34.505  39.267 -51.697  1.00  0.00     0.122 A 
HETATM   10  N   UNL     1     -35.453  38.820 -50.813  1.00  0.00    -0.262 N 
HETATM   11  N   UNL     1     -35.002  38.629 -49.564  1.00  0.00    -0.173 NA
HETATM   12  H   UNL     1     -36.436  38.670 -50.997  1.00  0.00     0.191 HD
HETATM   13  C   UNL     1     -33.707  38.975 -49.625  1.00  0.00     0.090 A 
HETATM   14  C   UNL     1     -33.360  39.391 -50.943  1.00  0.00     0.084 A 
BRANCH  13  15
HETATM   15  C   UNL     1     -32.847  38.937 -48.446  1.00  0.00    -0.005 A 
HETATM   16  C   UNL     1     -33.098  38.040 -47.401  1.00  0.00     0.016 A 
HETATM   17  C   UNL     1     -32.247  37.997 -46.291  1.00  0.00     0.037 A 
HETATM   18  C   UNL     1     -31.131  38.833 -46.213  1.00  0.00     0.068 A 
HETATM   19  C   UNL     1     -30.887  39.743 -47.241  1.00  0.00     0.037 A 
HETATM   20  C   UNL     1     -31.744  39.796 -48.349  1.00  0.00     0.016 A 
BRANCH  18  21
HETATM   21  O   UNL     1     -30.371  38.674 -45.087  1.00  0.00    -0.356 OA
HETATM   22  C   UNL     1     -30.129  39.843 -44.314  1.00  0.00     0.210 C 
ENDBRANCH  18  21
ENDBRANCH  13  15
ENDBRANCH   1   9
BRANCH   5  23
HETATM   23  C   UNL     1     -38.004  41.455 -56.185  1.00  0.00     0.141 C 
BRANCH  23  24
HETATM   24  C   UNL     1     -37.808  40.864 -57.565  1.00  0.00    -0.049 A 
HETATM   25  C   UNL     1     -37.486  41.652 -58.681  1.00  0.00     0.009 A 
HETATM   26  C   UNL     1     -37.347  41.075 -59.946  1.00  0.00     0.019 A 
HETATM   27  C   UNL     1     -37.558  39.710 -60.110  1.00  0.00     0.011 A 
HETATM   28 BR   UNL     1     -37.384  38.933 -61.825  1.00  0.00    -0.051 Br
HETATM   29  C   UNL     1     -37.907  38.915 -59.022  1.00  0.00     0.019 A 
HETATM   30  C   UNL     1     -38.035  39.492 -57.756  1.00  0.00     0.009 A 
ENDBRANCH  23  24
ENDBRANCH   5  23
TORSDOF 5
ENDMDL
