MODEL 1
REMARK VINA RESULT:      -9.3      0.000      0.000
REMARK  8 active torsions:
REMARK  status: ('A' for Active; 'I' for Inactive)
REMARK    1  A    between atoms: O_2  and  C_3 
REMARK    2  A    between atoms: C_6  and  N_7 
REMARK    3  A    between atoms: N_7  and  C_8 
REMARK    4  A    between atoms: C_12  and  C_13 
REMARK       I    between atoms: C_13  and  N_14 
REMARK    5  A    between atoms: N_14  and  C_15 
REMARK    6  A    between atoms: C_15  and  C_16 
REMARK    7  A    between atoms: C_16  and  N_17 
REMARK    8  A    between atoms: N_21  and  C_22 
ROOT
HETATM    1  C   UNL     1     -45.167  61.868 -47.439  1.00  0.00     0.129 A 
HETATM    2  N   UNL     1     -44.730  63.013 -47.992  1.00  0.00    -0.231 NA
HETATM    3  C   UNL     1     -44.321  63.042 -49.268  1.00  0.00     0.070 A 
HETATM    4  C   UNL     1     -44.370  61.918 -50.113  1.00  0.00     0.009 A 
HETATM    5  C   UNL     1     -44.915  60.747 -49.538  1.00  0.00     0.048 A 
HETATM    6  C   UNL     1     -45.263  60.709 -48.186  1.00  0.00     0.068 A 
HETATM    7  C   UNL     1     -43.828  64.239 -49.767  1.00  0.00     0.032 A 
HETATM    8  C   UNL     1     -43.358  64.357 -51.076  1.00  0.00     0.002 A 
HETATM    9  C   UNL     1     -43.366  63.250 -51.909  1.00  0.00     0.001 A 
HETATM   10  C   UNL     1     -43.862  62.037 -51.434  1.00  0.00     0.015 A 
ENDROOT
BRANCH   5  11
HETATM   11  C   UNL     1     -45.220  59.518 -50.312  1.00  0.00     0.252 C 
HETATM   12  N   UNL     1     -44.144  58.853 -50.858  1.00  0.00    -0.355 N 
HETATM   13  H   UNL     1     -43.220  59.216 -50.636  1.00  0.00     0.162 HD
HETATM   14  O   UNL     1     -46.377  59.209 -50.580  1.00  0.00    -0.268 OA
BRANCH  12  15
HETATM   15  C   UNL     1     -44.179  57.514 -51.447  1.00  0.00     0.150 C 
BRANCH  15  16
HETATM   16  C   UNL     1     -44.452  57.361 -52.961  1.00  0.00     0.254 C 
BRANCH  16  17
HETATM   17  N   UNL     1     -43.366  56.624 -53.700  1.00  0.00    -0.067 N 
HETATM   18  H   UNL     1     -43.357  57.079 -54.634  1.00  0.00     0.280 HD
HETATM   19  C   UNL     1     -41.974  56.733 -53.101  1.00  0.00     0.254 C 
HETATM   20  C   UNL     1     -40.942  56.046 -54.018  1.00  0.00     0.150 C 
HETATM   21  N   UNL     1     -41.327  54.655 -54.310  1.00  0.00    -0.378 N 
HETATM   22  C   UNL     1     -42.682  54.500 -54.882  1.00  0.00     0.150 C 
HETATM   23  C   UNL     1     -43.738  55.170 -53.973  1.00  0.00     0.254 C 
BRANCH  21  24
HETATM   24  C   UNL     1     -40.769  53.584 -53.618  1.00  0.00     0.031 A 
HETATM   25  C   UNL     1     -40.443  52.397 -54.295  1.00  0.00     0.053 A 
HETATM   26  C   UNL     1     -39.855  51.312 -53.636  1.00  0.00     0.036 A 
HETATM   27 CL   UNL     1     -39.472  49.886 -54.518  1.00  0.00    -0.084 Cl
HETATM   28  C   UNL     1     -39.570  51.381 -52.280  1.00  0.00     0.024 A 
HETATM   29  C   UNL     1     -39.869  52.547 -51.585  1.00  0.00     0.004 A 
HETATM   30  C   UNL     1     -40.454  53.634 -52.250  1.00  0.00     0.029 A 
ENDBRANCH  21  24
ENDBRANCH  16  17
ENDBRANCH  15  16
ENDBRANCH  12  15
ENDBRANCH   5  11
BRANCH   1  31
HETATM   31  N   UNL     1     -45.565  61.817 -46.085  1.00  0.00    -0.341 N 
HETATM   32  H   UNL     1     -45.936  60.897 -45.868  1.00  0.00     0.167 HD
BRANCH  31  33
HETATM   33  C   UNL     1     -44.918  62.399 -44.974  1.00  0.00     0.033 A 
HETATM   34  C   UNL     1     -45.288  63.644 -44.458  1.00  0.00     0.032 A 
HETATM   35  C   UNL     1     -44.698  64.146 -43.293  1.00  0.00     0.039 A 
HETATM   36  C   UNL     1     -43.738  63.405 -42.605  1.00  0.00     0.068 A 
HETATM   37  C   UNL     1     -43.368  62.156 -43.098  1.00  0.00     0.039 A 
HETATM   38  C   UNL     1     -43.964  61.654 -44.264  1.00  0.00     0.032 A 
BRANCH  36  39
HETATM   39  O   UNL     1     -43.255  64.003 -41.476  1.00  0.00    -0.356 OA
HETATM   40  C   UNL     1     -44.203  64.355 -40.477  1.00  0.00     0.210 C 
ENDBRANCH  36  39
ENDBRANCH  31  33
ENDBRANCH   1  31
TORSDOF 8
ENDMDL
MODEL 2
REMARK VINA RESULT:      -9.1      5.350      9.585
REMARK  8 active torsions:
REMARK  status: ('A' for Active; 'I' for Inactive)
REMARK    1  A    between atoms: O_2  and  C_3 
REMARK    2  A    between atoms: C_6  and  N_7 
REMARK    3  A    between atoms: N_7  and  C_8 
REMARK    4  A    between atoms: C_12  and  C_13 
REMARK       I    between atoms: C_13  and  N_14 
REMARK    5  A    between atoms: N_14  and  C_15 
REMARK    6  A    between atoms: C_15  and  C_16 
REMARK    7  A    between atoms: C_16  and  N_17 
REMARK    8  A    between atoms: N_21  and  C_22 
ROOT
HETATM    1  C   UNL     1     -43.395  56.055 -55.710  1.00  0.00     0.129 A 
HETATM    2  N   UNL     1     -43.112  55.575 -56.933  1.00  0.00    -0.231 NA
HETATM    3  C   UNL     1     -42.848  56.407 -57.950  1.00  0.00     0.070 A 
HETATM    4  C   UNL     1     -42.798  57.805 -57.800  1.00  0.00     0.009 A 
HETATM    5  C   UNL     1     -43.013  58.286 -56.489  1.00  0.00     0.048 A 
HETATM    6  C   UNL     1     -43.364  57.414 -55.456  1.00  0.00     0.068 A 
HETATM    7  C   UNL     1     -42.618  55.854 -59.202  1.00  0.00     0.032 A 
HETATM    8  C   UNL     1     -42.359  56.644 -60.323  1.00  0.00     0.002 A 
HETATM    9  C   UNL     1     -42.342  58.025 -60.199  1.00  0.00     0.001 A 
HETATM   10  C   UNL     1     -42.565  58.605 -58.951  1.00  0.00     0.015 A 
ENDROOT
BRANCH   5  11
HETATM   11  C   UNL     1     -42.821  59.703 -56.092  1.00  0.00     0.252 C 
HETATM   12  N   UNL     1     -43.828  60.579 -56.433  1.00  0.00    -0.355 N 
HETATM   13  H   UNL     1     -44.655  60.178 -56.872  1.00  0.00     0.162 HD
HETATM   14  O   UNL     1     -41.752  60.093 -55.631  1.00  0.00    -0.268 OA
BRANCH  12  15
HETATM   15  C   UNL     1     -43.967  61.951 -55.946  1.00  0.00     0.150 C 
BRANCH  15  16
HETATM   16  C   UNL     1     -45.126  62.298 -54.984  1.00  0.00     0.254 C 
BRANCH  16  17
HETATM   17  N   UNL     1     -44.887  61.850 -53.565  1.00  0.00    -0.067 N 
HETATM   18  H   UNL     1     -45.557  62.423 -53.014  1.00  0.00     0.280 HD
HETATM   19  C   UNL     1     -45.167  60.384 -53.284  1.00  0.00     0.254 C 
HETATM   20  C   UNL     1     -45.009  60.088 -51.778  1.00  0.00     0.150 C 
HETATM   21  N   UNL     1     -43.691  60.520 -51.284  1.00  0.00    -0.378 N 
HETATM   22  C   UNL     1     -43.370  61.939 -51.549  1.00  0.00     0.150 C 
HETATM   23  C   UNL     1     -43.508  62.257 -53.055  1.00  0.00     0.254 C 
BRANCH  21  24
HETATM   24  C   UNL     1     -42.643  59.618 -51.121  1.00  0.00     0.031 A 
HETATM   25  C   UNL     1     -41.362  60.077 -50.768  1.00  0.00     0.053 A 
HETATM   26  C   UNL     1     -40.294  59.196 -50.569  1.00  0.00     0.036 A 
HETATM   27 CL   UNL     1     -38.750  59.816 -50.132  1.00  0.00    -0.084 Cl
HETATM   28  C   UNL     1     -40.473  57.828 -50.712  1.00  0.00     0.024 A 
HETATM   29  C   UNL     1     -41.731  57.341 -51.048  1.00  0.00     0.004 A 
HETATM   30  C   UNL     1     -42.800  58.228 -51.242  1.00  0.00     0.029 A 
ENDBRANCH  21  24
ENDBRANCH  16  17
ENDBRANCH  15  16
ENDBRANCH  12  15
ENDBRANCH   5  11
BRANCH   1  31
HETATM   31  N   UNL     1     -43.712  55.190 -54.640  1.00  0.00    -0.341 N 
HETATM   32  H   UNL     1     -44.316  54.443 -54.966  1.00  0.00     0.167 HD
BRANCH  31  33
HETATM   33  C   UNL     1     -42.861  54.763 -53.597  1.00  0.00     0.033 A 
HETATM   34  C   UNL     1     -43.349  54.349 -52.354  1.00  0.00     0.032 A 
HETATM   35  C   UNL     1     -42.490  53.833 -51.379  1.00  0.00     0.039 A 
HETATM   36  C   UNL     1     -41.125  53.697 -51.632  1.00  0.00     0.068 A 
HETATM   37  C   UNL     1     -40.626  54.092 -52.870  1.00  0.00     0.039 A 
HETATM   38  C   UNL     1     -41.489  54.606 -53.847  1.00  0.00     0.032 A 
BRANCH  36  39
HETATM   39  O   UNL     1     -40.403  53.166 -50.601  1.00  0.00    -0.356 OA
HETATM   40  C   UNL     1     -39.940  54.069 -49.606  1.00  0.00     0.210 C 
ENDBRANCH  36  39
ENDBRANCH  31  33
ENDBRANCH   1  31
TORSDOF 8
ENDMDL
MODEL 3
REMARK VINA RESULT:      -9.1      4.132     11.979
REMARK  8 active torsions:
REMARK  status: ('A' for Active; 'I' for Inactive)
REMARK    1  A    between atoms: O_2  and  C_3 
REMARK    2  A    between atoms: C_6  and  N_7 
REMARK    3  A    between atoms: N_7  and  C_8 
REMARK    4  A    between atoms: C_12  and  C_13 
REMARK       I    between atoms: C_13  and  N_14 
REMARK    5  A    between atoms: N_14  and  C_15 
REMARK    6  A    between atoms: C_15  and  C_16 
REMARK    7  A    between atoms: C_16  and  N_17 
REMARK    8  A    between atoms: N_21  and  C_22 
ROOT
HETATM    1  C   UNL     1     -42.730  54.705 -55.169  1.00  0.00     0.129 A 
HETATM    2  N   UNL     1     -42.069  53.539 -55.069  1.00  0.00    -0.231 NA
HETATM    3  C   UNL     1     -41.359  53.248 -53.969  1.00  0.00     0.070 A 
HETATM    4  C   UNL     1     -41.303  54.097 -52.849  1.00  0.00     0.009 A 
HETATM    5  C   UNL     1     -42.075  55.277 -52.939  1.00  0.00     0.048 A 
HETATM    6  C   UNL     1     -42.745  55.605 -54.119  1.00  0.00     0.068 A 
HETATM    7  C   UNL     1     -40.653  52.054 -53.947  1.00  0.00     0.032 A 
HETATM    8  C   UNL     1     -39.869  51.679 -52.855  1.00  0.00     0.002 A 
HETATM    9  C   UNL     1     -39.773  52.522 -51.758  1.00  0.00     0.001 A 
HETATM   10  C   UNL     1     -40.479  53.724 -51.753  1.00  0.00     0.015 A 
ENDROOT
BRANCH   5  11
HETATM   11  C   UNL     1     -42.292  56.205 -51.801  1.00  0.00     0.252 C 
HETATM   12  N   UNL     1     -41.424  57.270 -51.702  1.00  0.00    -0.355 N 
HETATM   13  H   UNL     1     -40.742  57.377 -52.450  1.00  0.00     0.162 HD
HETATM   14  O   UNL     1     -43.099  55.942 -50.914  1.00  0.00    -0.268 OA
BRANCH  12  15
HETATM   15  C   UNL     1     -41.587  58.425 -50.819  1.00  0.00     0.150 C 
BRANCH  15  16
HETATM   16  C   UNL     1     -41.627  59.844 -51.431  1.00  0.00     0.254 C 
BRANCH  16  17
HETATM   17  N   UNL     1     -42.968  60.518 -51.307  1.00  0.00    -0.067 N 
HETATM   18  H   UNL     1     -43.208  60.764 -52.288  1.00  0.00     0.280 HD
HETATM   19  C   UNL     1     -44.086  59.658 -50.742  1.00  0.00     0.254 C 
HETATM   20  C   UNL     1     -45.425  60.422 -50.790  1.00  0.00     0.150 C 
HETATM   21  N   UNL     1     -45.320  61.728 -50.119  1.00  0.00    -0.378 N 
HETATM   22  C   UNL     1     -44.235  62.594 -50.627  1.00  0.00     0.150 C 
HETATM   23  C   UNL     1     -42.878  61.855 -50.577  1.00  0.00     0.254 C 
BRANCH  21  24
HETATM   24  C   UNL     1     -45.765  61.914 -48.813  1.00  0.00     0.031 A 
HETATM   25  C   UNL     1     -45.042  61.377 -47.735  1.00  0.00     0.053 A 
HETATM   26  C   UNL     1     -45.445  61.569 -46.409  1.00  0.00     0.036 A 
HETATM   27 CL   UNL     1     -44.515  60.893 -45.130  1.00  0.00    -0.084 Cl
HETATM   28  C   UNL     1     -46.583  62.308 -46.119  1.00  0.00     0.024 A 
HETATM   29  C   UNL     1     -47.313  62.863 -47.163  1.00  0.00     0.004 A 
HETATM   30  C   UNL     1     -46.903  62.672 -48.490  1.00  0.00     0.029 A 
ENDBRANCH  21  24
ENDBRANCH  16  17
ENDBRANCH  15  16
ENDBRANCH  12  15
ENDBRANCH   5  11
BRANCH   1  31
HETATM   31  N   UNL     1     -43.449  55.039 -56.337  1.00  0.00    -0.341 N 
HETATM   32  H   UNL     1     -44.422  55.210 -56.107  1.00  0.00     0.167 HD
BRANCH  31  33
HETATM   33  C   UNL     1     -43.015  55.838 -57.417  1.00  0.00     0.033 A 
HETATM   34  C   UNL     1     -43.184  55.452 -58.750  1.00  0.00     0.032 A 
HETATM   35  C   UNL     1     -42.839  56.310 -59.799  1.00  0.00     0.039 A 
HETATM   36  C   UNL     1     -42.336  57.585 -59.538  1.00  0.00     0.068 A 
HETATM   37  C   UNL     1     -42.174  57.990 -58.216  1.00  0.00     0.039 A 
HETATM   38  C   UNL     1     -42.524  57.128 -57.167  1.00  0.00     0.032 A 
BRANCH  36  39
HETATM   39  O   UNL     1     -42.054  58.326 -60.651  1.00  0.00    -0.356 OA
HETATM   40  C   UNL     1     -42.044  59.740 -60.498  1.00  0.00     0.210 C 
ENDBRANCH  36  39
ENDBRANCH  31  33
ENDBRANCH   1  31
TORSDOF 8
ENDMDL
MODEL 4
REMARK VINA RESULT:      -9.1      5.887     10.286
REMARK  8 active torsions:
REMARK  status: ('A' for Active; 'I' for Inactive)
REMARK    1  A    between atoms: O_2  and  C_3 
REMARK    2  A    between atoms: C_6  and  N_7 
REMARK    3  A    between atoms: N_7  and  C_8 
REMARK    4  A    between atoms: C_12  and  C_13 
REMARK       I    between atoms: C_13  and  N_14 
REMARK    5  A    between atoms: N_14  and  C_15 
REMARK    6  A    between atoms: C_15  and  C_16 
REMARK    7  A    between atoms: C_16  and  N_17 
REMARK    8  A    between atoms: N_21  and  C_22 
ROOT
HETATM    1  C   UNL     1     -41.993  60.205 -57.317  1.00  0.00     0.129 A 
HETATM    2  N   UNL     1     -42.226  59.506 -58.442  1.00  0.00    -0.231 NA
HETATM    3  C   UNL     1     -42.516  58.198 -58.386  1.00  0.00     0.070 A 
HETATM    4  C   UNL     1     -42.647  57.495 -57.173  1.00  0.00     0.009 A 
HETATM    5  C   UNL     1     -42.485  58.267 -56.000  1.00  0.00     0.048 A 
HETATM    6  C   UNL     1     -42.106  59.609 -56.074  1.00  0.00     0.068 A 
HETATM    7  C   UNL     1     -42.691  57.518 -59.582  1.00  0.00     0.032 A 
HETATM    8  C   UNL     1     -42.971  56.151 -59.621  1.00  0.00     0.002 A 
HETATM    9  C   UNL     1     -43.068  55.437 -58.437  1.00  0.00     0.001 A 
HETATM   10  C   UNL     1     -42.903  56.099 -57.221  1.00  0.00     0.015 A 
ENDROOT
BRANCH   5  11
HETATM   11  C   UNL     1     -42.764  57.755 -54.636  1.00  0.00     0.252 C 
HETATM   12  N   UNL     1     -43.683  58.461 -53.890  1.00  0.00    -0.355 N 
HETATM   13  H   UNL     1     -44.148  59.239 -54.353  1.00  0.00     0.162 HD
HETATM   14  O   UNL     1     -42.092  56.850 -54.149  1.00  0.00    -0.268 OA
BRANCH  12  15
HETATM   15  C   UNL     1     -44.283  58.015 -52.633  1.00  0.00     0.150 C 
BRANCH  15  16
HETATM   16  C   UNL     1     -43.523  58.251 -51.307  1.00  0.00     0.254 C 
BRANCH  16  17
HETATM   17  N   UNL     1     -42.956  56.993 -50.704  1.00  0.00    -0.067 N 
HETATM   18  H   UNL     1     -43.124  57.115 -49.686  1.00  0.00     0.280 HD
HETATM   19  C   UNL     1     -43.614  55.698 -51.147  1.00  0.00     0.254 C 
HETATM   20  C   UNL     1     -43.029  54.505 -50.362  1.00  0.00     0.150 C 
HETATM   21  N   UNL     1     -41.561  54.462 -50.470  1.00  0.00    -0.378 N 
HETATM   22  C   UNL     1     -40.878  55.709 -50.062  1.00  0.00     0.150 C 
HETATM   23  C   UNL     1     -41.438  56.918 -50.845  1.00  0.00     0.254 C 
BRANCH  21  24
HETATM   24  C   UNL     1     -40.922  53.615 -51.371  1.00  0.00     0.031 A 
HETATM   25  C   UNL     1     -40.896  53.928 -52.741  1.00  0.00     0.053 A 
HETATM   26  C   UNL     1     -40.239  53.114 -53.669  1.00  0.00     0.036 A 
HETATM   27 CL   UNL     1     -40.235  53.552 -55.333  1.00  0.00    -0.084 Cl
HETATM   28  C   UNL     1     -39.582  51.964 -53.257  1.00  0.00     0.024 A 
HETATM   29  C   UNL     1     -39.578  51.634 -51.907  1.00  0.00     0.004 A 
HETATM   30  C   UNL     1     -40.235  52.455 -50.979  1.00  0.00     0.029 A 
ENDBRANCH  21  24
ENDBRANCH  16  17
ENDBRANCH  15  16
ENDBRANCH  12  15
ENDBRANCH   5  11
BRANCH   1  31
HETATM   31  N   UNL     1     -41.650  61.573 -57.366  1.00  0.00    -0.341 N 
HETATM   32  H   UNL     1     -41.147  61.834 -56.523  1.00  0.00     0.167 HD
BRANCH  31  33
HETATM   33  C   UNL     1     -41.218  62.314 -58.487  1.00  0.00     0.033 A 
HETATM   34  C   UNL     1     -39.870  62.428 -58.838  1.00  0.00     0.032 A 
HETATM   35  C   UNL     1     -39.483  63.081 -60.012  1.00  0.00     0.039 A 
HETATM   36  C   UNL     1     -40.438  63.618 -60.876  1.00  0.00     0.068 A 
HETATM   37  C   UNL     1     -41.787  63.502 -60.547  1.00  0.00     0.039 A 
HETATM   38  C   UNL     1     -42.172  62.843 -59.371  1.00  0.00     0.032 A 
BRANCH  36  39
HETATM   39  O   UNL     1     -39.927  64.215 -61.993  1.00  0.00    -0.356 OA
HETATM   40  C   UNL     1     -38.529  64.471 -62.004  1.00  0.00     0.210 C 
ENDBRANCH  36  39
ENDBRANCH  31  33
ENDBRANCH   1  31
TORSDOF 8
ENDMDL
MODEL 5
REMARK VINA RESULT:      -9.1      5.779     10.123
REMARK  8 active torsions:
REMARK  status: ('A' for Active; 'I' for Inactive)
REMARK    1  A    between atoms: O_2  and  C_3 
REMARK    2  A    between atoms: C_6  and  N_7 
REMARK    3  A    between atoms: N_7  and  C_8 
REMARK    4  A    between atoms: C_12  and  C_13 
REMARK       I    between atoms: C_13  and  N_14 
REMARK    5  A    between atoms: N_14  and  C_15 
REMARK    6  A    between atoms: C_15  and  C_16 
REMARK    7  A    between atoms: C_16  and  N_17 
REMARK    8  A    between atoms: N_21  and  C_22 
ROOT
HETATM    1  C   UNL     1     -40.776  54.367 -51.344  1.00  0.00     0.129 A 
HETATM    2  N   UNL     1     -40.267  53.172 -50.998  1.00  0.00    -0.231 NA
HETATM    3  C   UNL     1     -40.114  52.204 -51.912  1.00  0.00     0.070 A 
HETATM    4  C   UNL     1     -40.417  52.385 -53.275  1.00  0.00     0.009 A 
HETATM    5  C   UNL     1     -40.868  53.676 -53.633  1.00  0.00     0.048 A 
HETATM    6  C   UNL     1     -41.097  54.649 -52.659  1.00  0.00     0.068 A 
HETATM    7  C   UNL     1     -39.636  50.973 -51.485  1.00  0.00     0.032 A 
HETATM    8  C   UNL     1     -39.468  49.901 -52.362  1.00  0.00     0.002 A 
HETATM    9  C   UNL     1     -39.796  50.052 -53.700  1.00  0.00     0.001 A 
HETATM   10  C   UNL     1     -40.272  51.280 -54.156  1.00  0.00     0.015 A 
ENDROOT
BRANCH   5  11
HETATM   11  C   UNL     1     -41.062  54.117 -55.037  1.00  0.00     0.252 C 
HETATM   12  N   UNL     1     -42.346  54.459 -55.401  1.00  0.00    -0.355 N 
HETATM   13  H   UNL     1     -43.050  54.447 -54.666  1.00  0.00     0.162 HD
HETATM   14  O   UNL     1     -40.157  54.025 -55.861  1.00  0.00    -0.268 OA
BRANCH  12  15
HETATM   15  C   UNL     1     -42.729  55.138 -56.639  1.00  0.00     0.150 C 
BRANCH  15  16
HETATM   16  C   UNL     1     -43.296  56.574 -56.568  1.00  0.00     0.254 C 
BRANCH  16  17
HETATM   17  N   UNL     1     -43.629  57.159 -57.916  1.00  0.00    -0.067 N 
HETATM   18  H   UNL     1     -44.321  56.490 -58.307  1.00  0.00     0.280 HD
HETATM   19  C   UNL     1     -44.258  58.541 -57.894  1.00  0.00     0.254 C 
HETATM   20  C   UNL     1     -44.666  58.966 -59.321  1.00  0.00     0.150 C 
HETATM   21  N   UNL     1     -43.529  58.875 -60.252  1.00  0.00    -0.378 N 
HETATM   22  C   UNL     1     -42.875  57.549 -60.295  1.00  0.00     0.150 C 
HETATM   23  C   UNL     1     -42.444  57.107 -58.877  1.00  0.00     0.254 C 
BRANCH  21  24
HETATM   24  C   UNL     1     -42.785  59.997 -60.605  1.00  0.00     0.031 A 
HETATM   25  C   UNL     1     -41.917  60.593 -59.674  1.00  0.00     0.053 A 
HETATM   26  C   UNL     1     -41.134  61.704 -60.004  1.00  0.00     0.036 A 
HETATM   27 CL   UNL     1     -40.084  62.387 -58.824  1.00  0.00    -0.084 Cl
HETATM   28  C   UNL     1     -41.190  62.252 -61.277  1.00  0.00     0.024 A 
HETATM   29  C   UNL     1     -42.028  61.677 -62.225  1.00  0.00     0.004 A 
HETATM   30  C   UNL     1     -42.808  60.561 -61.891  1.00  0.00     0.029 A 
ENDBRANCH  21  24
ENDBRANCH  16  17
ENDBRANCH  15  16
ENDBRANCH  12  15
ENDBRANCH   5  11
BRANCH   1  31
HETATM   31  N   UNL     1     -40.977  55.382 -50.382  1.00  0.00    -0.341 N 
HETATM   32  H   UNL     1     -40.174  55.436 -49.764  1.00  0.00     0.167 HD
BRANCH  31  33
HETATM   33  C   UNL     1     -41.581  56.643 -50.574  1.00  0.00     0.033 A 
HETATM   34  C   UNL     1     -40.850  57.834 -50.564  1.00  0.00     0.032 A 
HETATM   35  C   UNL     1     -41.460  59.057 -50.860  1.00  0.00     0.039 A 
HETATM   36  C   UNL     1     -42.813  59.115 -51.195  1.00  0.00     0.068 A 
HETATM   37  C   UNL     1     -43.552  57.935 -51.222  1.00  0.00     0.039 A 
HETATM   38  C   UNL     1     -42.937  56.711 -50.928  1.00  0.00     0.032 A 
BRANCH  36  39
HETATM   39  O   UNL     1     -43.279  60.368 -51.476  1.00  0.00    -0.356 OA
HETATM   40  C   UNL     1     -42.776  60.994 -52.650  1.00  0.00     0.210 C 
ENDBRANCH  36  39
ENDBRANCH  31  33
ENDBRANCH   1  31
TORSDOF 8
ENDMDL
MODEL 6
REMARK VINA RESULT:      -9.0      5.237     11.321
REMARK  8 active torsions:
REMARK  status: ('A' for Active; 'I' for Inactive)
REMARK    1  A    between atoms: O_2  and  C_3 
REMARK    2  A    between atoms: C_6  and  N_7 
REMARK    3  A    between atoms: N_7  and  C_8 
REMARK    4  A    between atoms: C_12  and  C_13 
REMARK       I    between atoms: C_13  and  N_14 
REMARK    5  A    between atoms: N_14  and  C_15 
REMARK    6  A    between atoms: C_15  and  C_16 
REMARK    7  A    between atoms: C_16  and  N_17 
REMARK    8  A    between atoms: N_21  and  C_22 
ROOT
HETATM    1  C   UNL     1     -42.543  54.177 -54.840  1.00  0.00     0.129 A 
HETATM    2  N   UNL     1     -41.874  53.022 -55.001  1.00  0.00    -0.231 NA
HETATM    3  C   UNL     1     -41.076  52.555 -54.032  1.00  0.00     0.070 A 
HETATM    4  C   UNL     1     -40.928  53.195 -52.787  1.00  0.00     0.009 A 
HETATM    5  C   UNL     1     -41.707  54.360 -52.605  1.00  0.00     0.048 A 
HETATM    6  C   UNL     1     -42.473  54.879 -53.651  1.00  0.00     0.068 A 
HETATM    7  C   UNL     1     -40.368  51.387 -54.277  1.00  0.00     0.032 A 
HETATM    8  C   UNL     1     -39.495  50.839 -53.336  1.00  0.00     0.002 A 
HETATM    9  C   UNL     1     -39.311  51.478 -52.119  1.00  0.00     0.001 A 
HETATM   10  C   UNL     1     -40.016  52.649 -51.845  1.00  0.00     0.015 A 
ENDROOT
BRANCH   5  11
HETATM   11  C   UNL     1     -41.831  55.070 -51.308  1.00  0.00     0.252 C 
HETATM   12  N   UNL     1     -41.043  56.188 -51.141  1.00  0.00    -0.355 N 
HETATM   13  H   UNL     1     -40.486  56.480 -51.942  1.00  0.00     0.162 HD
HETATM   14  O   UNL     1     -42.480  54.591 -50.382  1.00  0.00    -0.268 OA
BRANCH  12  15
HETATM   15  C   UNL     1     -41.169  57.167 -50.062  1.00  0.00     0.150 C 
BRANCH  15  16
HETATM   16  C   UNL     1     -41.146  58.674 -50.402  1.00  0.00     0.254 C 
BRANCH  16  17
HETATM   17  N   UNL     1     -42.499  59.234 -50.757  1.00  0.00    -0.067 N 
HETATM   18  H   UNL     1     -43.013  59.218 -49.854  1.00  0.00     0.280 HD
HETATM   19  C   UNL     1     -42.502  60.659 -51.284  1.00  0.00     0.254 C 
HETATM   20  C   UNL     1     -43.950  61.152 -51.485  1.00  0.00     0.150 C 
HETATM   21  N   UNL     1     -44.716  60.229 -52.339  1.00  0.00    -0.378 N 
HETATM   22  C   UNL     1     -44.728  58.826 -51.870  1.00  0.00     0.150 C 
HETATM   23  C   UNL     1     -43.286  58.304 -51.675  1.00  0.00     0.254 C 
BRANCH  21  24
HETATM   24  C   UNL     1     -44.910  60.481 -53.693  1.00  0.00     0.031 A 
HETATM   25  C   UNL     1     -45.191  59.425 -54.578  1.00  0.00     0.053 A 
HETATM   26  C   UNL     1     -45.418  59.647 -55.940  1.00  0.00     0.036 A 
HETATM   27 CL   UNL     1     -45.764  58.315 -56.973  1.00  0.00    -0.084 Cl
HETATM   28  C   UNL     1     -45.378  60.932 -56.461  1.00  0.00     0.024 A 
HETATM   29  C   UNL     1     -45.116  61.999 -55.610  1.00  0.00     0.004 A 
HETATM   30  C   UNL     1     -44.892  61.773 -54.245  1.00  0.00     0.029 A 
ENDBRANCH  21  24
ENDBRANCH  16  17
ENDBRANCH  15  16
ENDBRANCH  12  15
ENDBRANCH   5  11
BRANCH   1  31
HETATM   31  N   UNL     1     -43.357  54.700 -55.869  1.00  0.00    -0.341 N 
HETATM   32  H   UNL     1     -44.288  54.887 -55.512  1.00  0.00     0.167 HD
BRANCH  31  33
HETATM   33  C   UNL     1     -42.988  55.612 -56.881  1.00  0.00     0.033 A 
HETATM   34  C   UNL     1     -43.211  55.358 -58.237  1.00  0.00     0.032 A 
HETATM   35  C   UNL     1     -42.930  56.326 -59.207  1.00  0.00     0.039 A 
HETATM   36  C   UNL     1     -42.438  57.579 -58.842  1.00  0.00     0.068 A 
HETATM   37  C   UNL     1     -42.223  57.852 -57.493  1.00  0.00     0.039 A 
HETATM   38  C   UNL     1     -42.509  56.881 -56.523  1.00  0.00     0.032 A 
BRANCH  36  39
HETATM   39  O   UNL     1     -42.221  58.434 -59.884  1.00  0.00    -0.356 OA
HETATM   40  C   UNL     1     -43.366  59.041 -60.469  1.00  0.00     0.210 C 
ENDBRANCH  36  39
ENDBRANCH  31  33
ENDBRANCH   1  31
TORSDOF 8
ENDMDL
MODEL 7
REMARK VINA RESULT:      -8.8      5.731     10.400
REMARK  8 active torsions:
REMARK  status: ('A' for Active; 'I' for Inactive)
REMARK    1  A    between atoms: O_2  and  C_3 
REMARK    2  A    between atoms: C_6  and  N_7 
REMARK    3  A    between atoms: N_7  and  C_8 
REMARK    4  A    between atoms: C_12  and  C_13 
REMARK       I    between atoms: C_13  and  N_14 
REMARK    5  A    between atoms: N_14  and  C_15 
REMARK    6  A    between atoms: C_15  and  C_16 
REMARK    7  A    between atoms: C_16  and  N_17 
REMARK    8  A    between atoms: N_21  and  C_22 
ROOT
HETATM    1  C   UNL     1     -42.633  56.480 -56.756  1.00  0.00     0.129 A 
HETATM    2  N   UNL     1     -42.887  55.558 -57.701  1.00  0.00    -0.231 NA
HETATM    3  C   UNL     1     -43.858  55.756 -58.604  1.00  0.00     0.070 A 
HETATM    4  C   UNL     1     -44.622  56.936 -58.659  1.00  0.00     0.009 A 
HETATM    5  C   UNL     1     -44.280  57.929 -57.712  1.00  0.00     0.048 A 
HETATM    6  C   UNL     1     -43.322  57.679 -56.728  1.00  0.00     0.068 A 
HETATM    7  C   UNL     1     -44.111  54.745 -59.520  1.00  0.00     0.032 A 
HETATM    8  C   UNL     1     -45.117  54.854 -60.481  1.00  0.00     0.002 A 
HETATM    9  C   UNL     1     -45.904  55.995 -60.525  1.00  0.00     0.001 A 
HETATM   10  C   UNL     1     -45.665  57.028 -59.620  1.00  0.00     0.015 A 
ENDROOT
BRANCH   5  11
HETATM   11  C   UNL     1     -44.841  59.303 -57.725  1.00  0.00     0.252 C 
HETATM   12  N   UNL     1     -45.637  59.653 -56.656  1.00  0.00    -0.355 N 
HETATM   13  H   UNL     1     -45.727  58.967 -55.909  1.00  0.00     0.162 HD
HETATM   14  O   UNL     1     -44.728  60.024 -58.712  1.00  0.00    -0.268 OA
BRANCH  12  15
HETATM   15  C   UNL     1     -46.094  61.005 -56.340  1.00  0.00     0.150 C 
BRANCH  15  16
HETATM   16  C   UNL     1     -45.059  62.073 -55.916  1.00  0.00     0.254 C 
BRANCH  16  17
HETATM   17  N   UNL     1     -44.455  61.823 -54.559  1.00  0.00    -0.067 N 
HETATM   18  H   UNL     1     -44.078  62.753 -54.286  1.00  0.00     0.280 HD
HETATM   19  C   UNL     1     -45.424  61.365 -53.483  1.00  0.00     0.254 C 
HETATM   20  C   UNL     1     -44.706  61.271 -52.121  1.00  0.00     0.150 C 
HETATM   21  N   UNL     1     -43.508  60.420 -52.205  1.00  0.00    -0.378 N 
HETATM   22  C   UNL     1     -42.542  60.822 -53.250  1.00  0.00     0.150 C 
HETATM   23  C   UNL     1     -43.235  60.909 -54.629  1.00  0.00     0.254 C 
BRANCH  21  24
HETATM   24  C   UNL     1     -43.527  59.092 -51.789  1.00  0.00     0.031 A 
HETATM   25  C   UNL     1     -42.333  58.449 -51.419  1.00  0.00     0.053 A 
HETATM   26  C   UNL     1     -42.320  57.124 -50.970  1.00  0.00     0.036 A 
HETATM   27 CL   UNL     1     -40.829  56.391 -50.524  1.00  0.00    -0.084 Cl
HETATM   28  C   UNL     1     -43.500  56.402 -50.872  1.00  0.00     0.024 A 
HETATM   29  C   UNL     1     -44.699  57.014 -51.218  1.00  0.00     0.004 A 
HETATM   30  C   UNL     1     -44.708  58.343 -51.664  1.00  0.00     0.029 A 
ENDBRANCH  21  24
ENDBRANCH  16  17
ENDBRANCH  15  16
ENDBRANCH  12  15
ENDBRANCH   5  11
BRANCH   1  31
HETATM   31  N   UNL     1     -41.639  56.266 -55.776  1.00  0.00    -0.341 N 
HETATM   32  H   UNL     1     -41.545  57.091 -55.193  1.00  0.00     0.167 HD
BRANCH  31  33
HETATM   33  C   UNL     1     -41.380  55.080 -55.056  1.00  0.00     0.033 A 
HETATM   34  C   UNL     1     -40.334  54.214 -55.389  1.00  0.00     0.032 A 
HETATM   35  C   UNL     1     -40.038  53.102 -54.594  1.00  0.00     0.039 A 
HETATM   36  C   UNL     1     -40.767  52.843 -53.433  1.00  0.00     0.068 A 
HETATM   37  C   UNL     1     -41.804  53.704 -53.080  1.00  0.00     0.039 A 
HETATM   38  C   UNL     1     -42.096  54.819 -53.878  1.00  0.00     0.032 A 
BRANCH  36  39
HETATM   39  O   UNL     1     -40.365  51.735 -52.742  1.00  0.00    -0.356 OA
HETATM   40  C   UNL     1     -39.611  51.955 -51.557  1.00  0.00     0.210 C 
ENDBRANCH  36  39
ENDBRANCH  31  33
ENDBRANCH   1  31
TORSDOF 8
ENDMDL
MODEL 8
REMARK VINA RESULT:      -8.8      5.866     10.206
REMARK  8 active torsions:
REMARK  status: ('A' for Active; 'I' for Inactive)
REMARK    1  A    between atoms: O_2  and  C_3 
REMARK    2  A    between atoms: C_6  and  N_7 
REMARK    3  A    between atoms: N_7  and  C_8 
REMARK    4  A    between atoms: C_12  and  C_13 
REMARK       I    between atoms: C_13  and  N_14 
REMARK    5  A    between atoms: N_14  and  C_15 
REMARK    6  A    between atoms: C_15  and  C_16 
REMARK    7  A    between atoms: C_16  and  N_17 
REMARK    8  A    between atoms: N_21  and  C_22 
ROOT
HETATM    1  C   UNL     1     -40.815  54.501 -51.335  1.00  0.00     0.129 A 
HETATM    2  N   UNL     1     -40.293  53.324 -50.945  1.00  0.00    -0.231 NA
HETATM    3  C   UNL     1     -40.143  52.320 -51.821  1.00  0.00     0.070 A 
HETATM    4  C   UNL     1     -40.462  52.442 -53.186  1.00  0.00     0.009 A 
HETATM    5  C   UNL     1     -40.927  53.714 -53.593  1.00  0.00     0.048 A 
HETATM    6  C   UNL     1     -41.152  54.725 -52.657  1.00  0.00     0.068 A 
HETATM    7  C   UNL     1     -39.652  51.112 -51.348  1.00  0.00     0.032 A 
HETATM    8  C   UNL     1     -39.485  50.005 -52.181  1.00  0.00     0.002 A 
HETATM    9  C   UNL     1     -39.829  50.098 -53.521  1.00  0.00     0.001 A 
HETATM   10  C   UNL     1     -40.319  51.303 -54.022  1.00  0.00     0.015 A 
ENDROOT
BRANCH   5  11
HETATM   11  C   UNL     1     -41.140  54.095 -55.011  1.00  0.00     0.252 C 
HETATM   12  N   UNL     1     -42.434  54.392 -55.380  1.00  0.00    -0.355 N 
HETATM   13  H   UNL     1     -43.133  54.392 -54.639  1.00  0.00     0.162 HD
HETATM   14  O   UNL     1     -40.238  53.991 -55.837  1.00  0.00    -0.268 OA
BRANCH  12  15
HETATM   15  C   UNL     1     -42.840  55.013 -56.640  1.00  0.00     0.150 C 
BRANCH  15  16
HETATM   16  C   UNL     1     -43.200  56.516 -56.661  1.00  0.00     0.254 C 
BRANCH  16  17
HETATM   17  N   UNL     1     -42.447  57.303 -57.701  1.00  0.00    -0.067 N 
HETATM   18  H   UNL     1     -41.451  57.146 -57.451  1.00  0.00     0.280 HD
HETATM   19  C   UNL     1     -42.656  56.859 -59.139  1.00  0.00     0.254 C 
HETATM   20  C   UNL     1     -41.735  57.658 -60.085  1.00  0.00     0.150 C 
HETATM   21  N   UNL     1     -41.914  59.108 -59.907  1.00  0.00    -0.378 N 
HETATM   22  C   UNL     1     -41.735  59.584 -58.518  1.00  0.00     0.150 C 
HETATM   23  C   UNL     1     -42.658  58.807 -57.552  1.00  0.00     0.254 C 
BRANCH  21  24
HETATM   24  C   UNL     1     -42.712  59.854 -60.770  1.00  0.00     0.031 A 
HETATM   25  C   UNL     1     -42.124  60.650 -61.768  1.00  0.00     0.053 A 
HETATM   26  C   UNL     1     -42.897  61.390 -62.669  1.00  0.00     0.036 A 
HETATM   27 CL   UNL     1     -42.121  62.341 -63.875  1.00  0.00    -0.084 Cl
HETATM   28  C   UNL     1     -44.282  61.355 -62.604  1.00  0.00     0.024 A 
HETATM   29  C   UNL     1     -44.894  60.567 -61.636  1.00  0.00     0.004 A 
HETATM   30  C   UNL     1     -44.116  59.823 -60.738  1.00  0.00     0.029 A 
ENDBRANCH  21  24
ENDBRANCH  16  17
ENDBRANCH  15  16
ENDBRANCH  12  15
ENDBRANCH   5  11
BRANCH   1  31
HETATM   31  N   UNL     1     -41.013  55.552 -50.414  1.00  0.00    -0.341 N 
HETATM   32  H   UNL     1     -40.337  55.485 -49.660  1.00  0.00     0.167 HD
BRANCH  31  33
HETATM   33  C   UNL     1     -41.353  56.893 -50.698  1.00  0.00     0.033 A 
HETATM   34  C   UNL     1     -42.643  57.276 -51.077  1.00  0.00     0.032 A 
HETATM   35  C   UNL     1     -42.973  58.624 -51.248  1.00  0.00     0.039 A 
HETATM   36  C   UNL     1     -42.026  59.624 -51.024  1.00  0.00     0.068 A 
HETATM   37  C   UNL     1     -40.740  59.259 -50.632  1.00  0.00     0.039 A 
HETATM   38  C   UNL     1     -40.413  57.907 -50.458  1.00  0.00     0.032 A 
BRANCH  36  39
HETATM   39  O   UNL     1     -42.484  60.897 -51.212  1.00  0.00    -0.356 OA
HETATM   40  C   UNL     1     -43.315  61.122 -52.343  1.00  0.00     0.210 C 
ENDBRANCH  36  39
ENDBRANCH  31  33
ENDBRANCH   1  31
TORSDOF 8
ENDMDL
MODEL 9
REMARK VINA RESULT:      -8.8      5.408      9.660
REMARK  8 active torsions:
REMARK  status: ('A' for Active; 'I' for Inactive)
REMARK    1  A    between atoms: O_2  and  C_3 
REMARK    2  A    between atoms: C_6  and  N_7 
REMARK    3  A    between atoms: N_7  and  C_8 
REMARK    4  A    between atoms: C_12  and  C_13 
REMARK       I    between atoms: C_13  and  N_14 
REMARK    5  A    between atoms: N_14  and  C_15 
REMARK    6  A    between atoms: C_15  and  C_16 
REMARK    7  A    between atoms: C_16  and  N_17 
REMARK    8  A    between atoms: N_21  and  C_22 
ROOT
HETATM    1  C   UNL     1     -43.242  56.448 -57.416  1.00  0.00     0.129 A 
HETATM    2  N   UNL     1     -42.597  56.707 -58.568  1.00  0.00    -0.231 NA
HETATM    3  C   UNL     1     -42.673  57.920 -59.134  1.00  0.00     0.070 A 
HETATM    4  C   UNL     1     -43.369  58.995 -58.550  1.00  0.00     0.009 A 
HETATM    5  C   UNL     1     -43.966  58.726 -57.298  1.00  0.00     0.048 A 
HETATM    6  C   UNL     1     -43.947  57.439 -56.758  1.00  0.00     0.068 A 
HETATM    7  C   UNL     1     -42.033  58.112 -60.350  1.00  0.00     0.032 A 
HETATM    8  C   UNL     1     -42.077  59.333 -61.024  1.00  0.00     0.002 A 
HETATM    9  C   UNL     1     -42.789  60.391 -60.480  1.00  0.00     0.001 A 
HETATM   10  C   UNL     1     -43.435  60.226 -59.256  1.00  0.00     0.015 A 
ENDROOT
BRANCH   5  11
HETATM   11  C   UNL     1     -44.584  59.770 -56.442  1.00  0.00     0.252 C 
HETATM   12  N   UNL     1     -44.073  59.902 -55.169  1.00  0.00    -0.355 N 
HETATM   13  H   UNL     1     -43.271  59.321 -54.934  1.00  0.00     0.162 HD
HETATM   14  O   UNL     1     -45.596  60.365 -56.800  1.00  0.00    -0.268 OA
BRANCH  12  15
HETATM   15  C   UNL     1     -44.356  61.001 -54.247  1.00  0.00     0.150 C 
BRANCH  15  16
HETATM   16  C   UNL     1     -43.180  61.799 -53.638  1.00  0.00     0.254 C 
BRANCH  16  17
HETATM   17  N   UNL     1     -42.292  60.976 -52.742  1.00  0.00    -0.067 N 
HETATM   18  H   UNL     1     -41.446  61.569 -52.627  1.00  0.00     0.280 HD
HETATM   19  C   UNL     1     -42.853  60.671 -51.363  1.00  0.00     0.254 C 
HETATM   20  C   UNL     1     -41.800  59.939 -50.507  1.00  0.00     0.150 C 
HETATM   21  N   UNL     1     -41.294  58.738 -51.192  1.00  0.00    -0.378 N 
HETATM   22  C   UNL     1     -40.751  58.985 -52.545  1.00  0.00     0.150 C 
HETATM   23  C   UNL     1     -41.795  59.707 -53.428  1.00  0.00     0.254 C 
BRANCH  21  24
HETATM   24  C   UNL     1     -41.779  57.469 -50.890  1.00  0.00     0.031 A 
HETATM   25  C   UNL     1     -41.058  56.620 -50.033  1.00  0.00     0.053 A 
HETATM   26  C   UNL     1     -41.530  55.350 -49.687  1.00  0.00     0.036 A 
HETATM   27 CL   UNL     1     -40.606  54.358 -48.628  1.00  0.00    -0.084 Cl
HETATM   28  C   UNL     1     -42.741  54.889 -50.182  1.00  0.00     0.024 A 
HETATM   29  C   UNL     1     -43.485  55.710 -51.021  1.00  0.00     0.004 A 
HETATM   30  C   UNL     1     -43.010  56.984 -51.363  1.00  0.00     0.029 A 
ENDBRANCH  21  24
ENDBRANCH  16  17
ENDBRANCH  15  16
ENDBRANCH  12  15
ENDBRANCH   5  11
BRANCH   1  31
HETATM   31  N   UNL     1     -43.201  55.164 -56.830  1.00  0.00    -0.341 N 
HETATM   32  H   UNL     1     -43.266  54.452 -57.550  1.00  0.00     0.167 HD
BRANCH  31  33
HETATM   33  C   UNL     1     -42.413  54.740 -55.739  1.00  0.00     0.033 A 
HETATM   34  C   UNL     1     -41.095  55.168 -55.554  1.00  0.00     0.032 A 
HETATM   35  C   UNL     1     -40.376  54.813 -54.408  1.00  0.00     0.039 A 
HETATM   36  C   UNL     1     -40.965  54.038 -53.410  1.00  0.00     0.068 A 
HETATM   37  C   UNL     1     -42.281  53.614 -53.573  1.00  0.00     0.039 A 
HETATM   38  C   UNL     1     -43.001  53.974 -54.720  1.00  0.00     0.032 A 
BRANCH  36  39
HETATM   39  O   UNL     1     -40.158  53.776 -52.339  1.00  0.00    -0.356 OA
HETATM   40  C   UNL     1     -40.178  52.451 -51.825  1.00  0.00     0.210 C 
ENDBRANCH  36  39
ENDBRANCH  31  33
ENDBRANCH   1  31
TORSDOF 8
ENDMDL
MODEL 10
REMARK VINA RESULT:      -8.8      5.248      9.695
REMARK  8 active torsions:
REMARK  status: ('A' for Active; 'I' for Inactive)
REMARK    1  A    between atoms: O_2  and  C_3 
REMARK    2  A    between atoms: C_6  and  N_7 
REMARK    3  A    between atoms: N_7  and  C_8 
REMARK    4  A    between atoms: C_12  and  C_13 
REMARK       I    between atoms: C_13  and  N_14 
REMARK    5  A    between atoms: N_14  and  C_15 
REMARK    6  A    between atoms: C_15  and  C_16 
REMARK    7  A    between atoms: C_16  and  N_17 
REMARK    8  A    between atoms: N_21  and  C_22 
ROOT
HETATM    1  C   UNL     1     -42.417  55.320 -51.856  1.00  0.00     0.129 A 
HETATM    2  N   UNL     1     -41.429  54.495 -51.466  1.00  0.00    -0.231 NA
HETATM    3  C   UNL     1     -40.973  53.539 -52.287  1.00  0.00     0.070 A 
HETATM    4  C   UNL     1     -41.447  53.370 -53.602  1.00  0.00     0.009 A 
HETATM    5  C   UNL     1     -42.423  54.302 -54.023  1.00  0.00     0.048 A 
HETATM    6  C   UNL     1     -42.944  55.243 -53.132  1.00  0.00     0.068 A 
HETATM    7  C   UNL     1     -39.992  52.682 -51.809  1.00  0.00     0.032 A 
HETATM    8  C   UNL     1     -39.475  51.643 -52.584  1.00  0.00     0.002 A 
HETATM    9  C   UNL     1     -39.957  51.441 -53.868  1.00  0.00     0.001 A 
HETATM   10  C   UNL     1     -40.939  52.292 -54.375  1.00  0.00     0.015 A 
ENDROOT
BRANCH   5  11
HETATM   11  C   UNL     1     -42.910  54.406 -55.421  1.00  0.00     0.252 C 
HETATM   12  N   UNL     1     -42.687  55.605 -56.062  1.00  0.00    -0.355 N 
HETATM   13  H   UNL     1     -42.149  56.304 -55.553  1.00  0.00     0.162 HD
HETATM   14  O   UNL     1     -43.611  53.527 -55.914  1.00  0.00    -0.268 OA
BRANCH  12  15
HETATM   15  C   UNL     1     -42.861  55.852 -57.493  1.00  0.00     0.150 C 
BRANCH  15  16
HETATM   16  C   UNL     1     -43.915  56.882 -57.959  1.00  0.00     0.254 C 
BRANCH  16  17
HETATM   17  N   UNL     1     -43.512  58.312 -57.713  1.00  0.00    -0.067 N 
HETATM   18  H   UNL     1     -43.959  58.538 -56.802  1.00  0.00     0.280 HD
HETATM   19  C   UNL     1     -42.019  58.561 -57.589  1.00  0.00     0.254 C 
HETATM   20  C   UNL     1     -41.751  60.033 -57.213  1.00  0.00     0.150 C 
HETATM   21  N   UNL     1     -42.403  60.954 -58.158  1.00  0.00    -0.378 N 
HETATM   22  C   UNL     1     -43.857  60.739 -58.322  1.00  0.00     0.150 C 
HETATM   23  C   UNL     1     -44.151  59.272 -58.713  1.00  0.00     0.254 C 
BRANCH  21  24
HETATM   24  C   UNL     1     -41.697  61.552 -59.198  1.00  0.00     0.031 A 
HETATM   25  C   UNL     1     -40.590  62.373 -58.922  1.00  0.00     0.053 A 
HETATM   26  C   UNL     1     -39.841  62.966 -59.944  1.00  0.00     0.036 A 
HETATM   27 CL   UNL     1     -38.492  63.957 -59.545  1.00  0.00    -0.084 Cl
HETATM   28  C   UNL     1     -40.171  62.753 -61.274  1.00  0.00     0.024 A 
HETATM   29  C   UNL     1     -41.252  61.934 -61.580  1.00  0.00     0.004 A 
HETATM   30  C   UNL     1     -41.998  61.339 -60.553  1.00  0.00     0.029 A 
ENDBRANCH  21  24
ENDBRANCH  16  17
ENDBRANCH  15  16
ENDBRANCH  12  15
ENDBRANCH   5  11
BRANCH   1  31
HETATM   31  N   UNL     1     -42.931  56.306 -50.987  1.00  0.00    -0.341 N 
HETATM   32  H   UNL     1     -42.349  56.375 -50.158  1.00  0.00     0.167 HD
BRANCH  31  33
HETATM   33  C   UNL     1     -43.501  57.550 -51.335  1.00  0.00     0.033 A 
HETATM   34  C   UNL     1     -44.865  57.817 -51.187  1.00  0.00     0.032 A 
HETATM   35  C   UNL     1     -45.381  59.091 -51.442  1.00  0.00     0.039 A 
HETATM   36  C   UNL     1     -44.542  60.135 -51.830  1.00  0.00     0.068 A 
HETATM   37  C   UNL     1     -43.178  59.888 -51.969  1.00  0.00     0.039 A 
HETATM   38  C   UNL     1     -42.663  58.611 -51.710  1.00  0.00     0.032 A 
BRANCH  36  39
HETATM   39  O   UNL     1     -45.171  61.331 -52.032  1.00  0.00    -0.356 OA
HETATM   40  C   UNL     1     -44.888  62.372 -51.107  1.00  0.00     0.210 C 
ENDBRANCH  36  39
ENDBRANCH  31  33
ENDBRANCH   1  31
TORSDOF 8
ENDMDL
