MODEL 1
REMARK VINA RESULT:      -8.3      0.000      0.000
REMARK  10 active torsions:
REMARK  status: ('A' for Active; 'I' for Inactive)
REMARK    1  A    between atoms: C_8  and  N_9 
REMARK    2  A    between atoms: C_10  and  S_11 
REMARK    3  A    between atoms: S_11  and  C_12 
REMARK    4  A    between atoms: C_12  and  C_13 
REMARK       I    between atoms: C_13  and  N_14 
REMARK    5  A    between atoms: N_14  and  C_15 
REMARK    6  A    between atoms: C_15  and  C_16 
REMARK    7  A    between atoms: C_16  and  C_17 
REMARK    8  A    between atoms: C_20  and  S_21 
REMARK    9  A    between atoms: S_21  and  N_22 
REMARK   10  A    between atoms: C_31  and  N_32 
ROOT
HETATM    1  N   UNL     1     -42.036  57.461 -52.233  1.00  0.00    -0.275 N 
HETATM    2  C   UNL     1     -41.658  57.567 -53.540  1.00  0.00     0.177 A 
HETATM    3  N   UNL     1     -41.093  56.577 -54.266  1.00  0.00    -0.204 NA
HETATM    4  C   UNL     1     -40.948  55.458 -53.558  1.00  0.00     0.162 A 
HETATM    5  C   UNL     1     -41.299  55.260 -52.239  1.00  0.00     0.081 A 
HETATM    6  C   UNL     1     -41.906  56.304 -51.522  1.00  0.00     0.124 A 
HETATM    7  N   UNL     1     -40.403  54.289 -54.004  1.00  0.00    -0.260 N 
HETATM    8  H   UNL     1     -40.046  54.080 -54.931  1.00  0.00     0.191 HD
HETATM    9  N   UNL     1     -40.337  53.343 -53.056  1.00  0.00    -0.177 NA
HETATM   10  C   UNL     1     -40.870  53.923 -51.973  1.00  0.00     0.068 A 
HETATM   11  C   UNL     1     -40.924  53.161 -50.698  1.00  0.00     0.073 C 
ENDROOT
BRANCH   2  12
HETATM   12  S   UNL     1     -41.741  59.143 -54.414  1.00  0.00    -0.082 SA
BRANCH  12  13
HETATM   13  C   UNL     1     -42.890  58.705 -55.762  1.00  0.00     0.185 C 
BRANCH  13  14
HETATM   14  C   UNL     1     -43.061  59.853 -56.747  1.00  0.00     0.227 C 
HETATM   15  N   UNL     1     -41.981  60.030 -57.588  1.00  0.00    -0.360 N 
HETATM   16  H   UNL     1     -41.287  59.294 -57.649  1.00  0.00     0.162 HD
HETATM   17  O   UNL     1     -44.073  60.550 -56.790  1.00  0.00    -0.273 OA
BRANCH  15  18
HETATM   18  C   UNL     1     -41.997  61.023 -58.654  1.00  0.00     0.127 C 
BRANCH  18  19
HETATM   19  C   UNL     1     -41.824  60.374 -60.028  1.00  0.00     0.058 C 
BRANCH  19  20
HETATM   20  C   UNL     1     -42.579  59.076 -60.152  1.00  0.00    -0.057 A 
HETATM   21  C   UNL     1     -43.978  59.074 -60.261  1.00  0.00     0.009 A 
HETATM   22  C   UNL     1     -44.679  57.871 -60.369  1.00  0.00     0.025 A 
HETATM   23  C   UNL     1     -43.978  56.663 -60.371  1.00  0.00     0.074 A 
HETATM   24  C   UNL     1     -42.588  56.647 -60.248  1.00  0.00     0.025 A 
HETATM   25  C   UNL     1     -41.892  57.853 -60.142  1.00  0.00     0.009 A 
BRANCH  23  26
HETATM   26  S   UNL     1     -44.867  55.134 -60.457  1.00  0.00     0.239 S 
HETATM   27  O   UNL     1     -44.981  54.735 -61.839  1.00  0.00    -0.206 OA
HETATM   28  O   UNL     1     -44.372  54.245 -59.432  1.00  0.00    -0.206 OA
BRANCH  26  29
HETATM   29  N   UNL     1     -46.405  55.595 -59.973  1.00  0.00    -0.225 NA
HETATM   30  H   UNL     1     -46.696  55.042 -59.165  1.00  0.00     0.136 HD
HETATM   31  H   UNL     1     -46.431  56.602 -59.805  1.00  0.00     0.136 HD
ENDBRANCH  26  29
ENDBRANCH  23  26
ENDBRANCH  19  20
ENDBRANCH  18  19
ENDBRANCH  15  18
ENDBRANCH  13  14
ENDBRANCH  12  13
ENDBRANCH   2  12
BRANCH   1  32
HETATM   32  C   UNL     1     -42.483  58.635 -51.530  1.00  0.00     0.051 A 
HETATM   33  C   UNL     1     -43.852  58.935 -51.426  1.00  0.00    -0.013 A 
HETATM   34  C   UNL     1     -44.922  58.079 -52.042  1.00  0.00     0.052 C 
HETATM   35  C   UNL     1     -44.184  60.114 -50.736  1.00  0.00     0.042 A 
HETATM   36 CL   UNL     1     -45.822  60.640 -50.583  1.00  0.00    -0.084 Cl
HETATM   37  C   UNL     1     -43.196  60.912 -50.143  1.00  0.00     0.024 A 
HETATM   38  C   UNL     1     -41.850  60.561 -50.231  1.00  0.00     0.004 A 
HETATM   39  C   UNL     1     -41.485  59.417 -50.931  1.00  0.00     0.031 A 
ENDBRANCH   1  32
BRANCH   6  40
HETATM   40  N   UNL     1     -42.295  56.183 -50.192  1.00  0.00    -0.384 N 
HETATM   41  H   UNL     1     -43.143  56.661 -49.903  1.00  0.00     0.157 HD
HETATM   42  H   UNL     1     -41.603  56.101 -49.455  1.00  0.00     0.157 HD
ENDBRANCH   6  40
TORSDOF 10
ENDMDL
MODEL 2
REMARK VINA RESULT:      -8.3      3.949      8.881
REMARK  10 active torsions:
REMARK  status: ('A' for Active; 'I' for Inactive)
REMARK    1  A    between atoms: C_8  and  N_9 
REMARK    2  A    between atoms: C_10  and  S_11 
REMARK    3  A    between atoms: S_11  and  C_12 
REMARK    4  A    between atoms: C_12  and  C_13 
REMARK       I    between atoms: C_13  and  N_14 
REMARK    5  A    between atoms: N_14  and  C_15 
REMARK    6  A    between atoms: C_15  and  C_16 
REMARK    7  A    between atoms: C_16  and  C_17 
REMARK    8  A    between atoms: C_20  and  S_21 
REMARK    9  A    between atoms: S_21  and  N_22 
REMARK   10  A    between atoms: C_31  and  N_32 
ROOT
HETATM    1  N   UNL     1     -42.652  59.462 -58.951  1.00  0.00    -0.275 N 
HETATM    2  C   UNL     1     -42.512  59.788 -57.633  1.00  0.00     0.177 A 
HETATM    3  N   UNL     1     -41.822  60.853 -57.168  1.00  0.00    -0.204 NA
HETATM    4  C   UNL     1     -41.289  61.573 -58.154  1.00  0.00     0.162 A 
HETATM    5  C   UNL     1     -41.379  61.321 -59.506  1.00  0.00     0.081 A 
HETATM    6  C   UNL     1     -42.124  60.218 -59.955  1.00  0.00     0.124 A 
HETATM    7  N   UNL     1     -40.531  62.699 -58.008  1.00  0.00    -0.260 N 
HETATM    8  H   UNL     1     -40.273  63.171 -57.148  1.00  0.00     0.191 HD
HETATM    9  N   UNL     1     -40.083  63.186 -59.174  1.00  0.00    -0.177 NA
HETATM   10  C   UNL     1     -40.584  62.352 -60.095  1.00  0.00     0.068 A 
HETATM   11  C   UNL     1     -40.250  62.572 -61.526  1.00  0.00     0.073 C 
ENDROOT
BRANCH   2  12
HETATM   12  S   UNL     1     -43.128  58.704 -56.329  1.00  0.00    -0.082 SA
BRANCH  12  13
HETATM   13  C   UNL     1     -42.719  59.704 -54.858  1.00  0.00     0.185 C 
BRANCH  13  14
HETATM   14  C   UNL     1     -41.648  59.035 -54.007  1.00  0.00     0.227 C 
HETATM   15  N   UNL     1     -41.633  57.660 -54.113  1.00  0.00    -0.360 N 
HETATM   16  H   UNL     1     -42.147  57.225 -54.870  1.00  0.00     0.162 HD
HETATM   17  O   UNL     1     -40.866  59.668 -53.300  1.00  0.00    -0.273 OA
BRANCH  15  18
HETATM   18  C   UNL     1     -40.624  56.852 -53.441  1.00  0.00     0.127 C 
BRANCH  18  19
HETATM   19  C   UNL     1     -41.257  55.852 -52.472  1.00  0.00     0.058 C 
BRANCH  19  20
HETATM   20  C   UNL     1     -40.848  54.430 -52.764  1.00  0.00    -0.057 A 
HETATM   21  C   UNL     1     -40.816  53.956 -54.085  1.00  0.00     0.009 A 
HETATM   22  C   UNL     1     -40.445  52.637 -54.355  1.00  0.00     0.025 A 
HETATM   23  C   UNL     1     -40.100  51.789 -53.301  1.00  0.00     0.074 A 
HETATM   24  C   UNL     1     -40.141  52.241 -51.980  1.00  0.00     0.025 A 
HETATM   25  C   UNL     1     -40.511  53.561 -51.716  1.00  0.00     0.009 A 
BRANCH  23  26
HETATM   26  S   UNL     1     -39.676  50.102 -53.634  1.00  0.00     0.239 S 
HETATM   27  O   UNL     1     -38.525  50.071 -54.505  1.00  0.00    -0.206 OA
HETATM   28  O   UNL     1     -39.738  49.350 -52.404  1.00  0.00    -0.206 OA
BRANCH  26  29
HETATM   29  N   UNL     1     -40.978  49.591 -54.561  1.00  0.00    -0.225 NA
HETATM   30  H   UNL     1     -41.480  48.847 -54.074  1.00  0.00     0.136 HD
HETATM   31  H   UNL     1     -41.569  50.388 -54.801  1.00  0.00     0.136 HD
ENDBRANCH  26  29
ENDBRANCH  23  26
ENDBRANCH  19  20
ENDBRANCH  18  19
ENDBRANCH  15  18
ENDBRANCH  13  14
ENDBRANCH  12  13
ENDBRANCH   2  12
BRANCH   1  32
HETATM   32  C   UNL     1     -43.281  58.216 -59.306  1.00  0.00     0.051 A 
HETATM   33  C   UNL     1     -44.664  58.149 -59.541  1.00  0.00    -0.013 A 
HETATM   34  C   UNL     1     -45.570  59.342 -59.425  1.00  0.00     0.052 C 
HETATM   35  C   UNL     1     -45.183  56.883 -59.864  1.00  0.00     0.042 A 
HETATM   36 CL   UNL     1     -46.874  56.637 -60.118  1.00  0.00    -0.084 Cl
HETATM   37  C   UNL     1     -44.347  55.764 -59.992  1.00  0.00     0.024 A 
HETATM   38  C   UNL     1     -42.972  55.878 -59.792  1.00  0.00     0.004 A 
HETATM   39  C   UNL     1     -42.430  57.109 -59.444  1.00  0.00     0.031 A 
ENDBRANCH   1  32
BRANCH   6  40
HETATM   40  N   UNL     1     -42.268  59.899 -61.301  1.00  0.00    -0.384 N 
HETATM   41  H   UNL     1     -41.481  59.458 -61.768  1.00  0.00     0.157 HD
HETATM   42  H   UNL     1     -42.832  60.477 -61.914  1.00  0.00     0.157 HD
ENDBRANCH   6  40
TORSDOF 10
ENDMDL
MODEL 3
REMARK VINA RESULT:      -8.3      4.171      8.395
REMARK  10 active torsions:
REMARK  status: ('A' for Active; 'I' for Inactive)
REMARK    1  A    between atoms: C_8  and  N_9 
REMARK    2  A    between atoms: C_10  and  S_11 
REMARK    3  A    between atoms: S_11  and  C_12 
REMARK    4  A    between atoms: C_12  and  C_13 
REMARK       I    between atoms: C_13  and  N_14 
REMARK    5  A    between atoms: N_14  and  C_15 
REMARK    6  A    between atoms: C_15  and  C_16 
REMARK    7  A    between atoms: C_16  and  C_17 
REMARK    8  A    between atoms: C_20  and  S_21 
REMARK    9  A    between atoms: S_21  and  N_22 
REMARK   10  A    between atoms: C_31  and  N_32 
ROOT
HETATM    1  N   UNL     1     -42.527  55.807 -54.964  1.00  0.00    -0.275 N 
HETATM    2  C   UNL     1     -42.053  57.086 -54.985  1.00  0.00     0.177 A 
HETATM    3  N   UNL     1     -42.065  57.900 -56.063  1.00  0.00    -0.204 NA
HETATM    4  C   UNL     1     -42.609  57.311 -57.128  1.00  0.00     0.162 A 
HETATM    5  C   UNL     1     -43.111  56.030 -57.200  1.00  0.00     0.081 A 
HETATM    6  C   UNL     1     -43.104  55.220 -56.052  1.00  0.00     0.124 A 
HETATM    7  N   UNL     1     -42.757  57.867 -58.366  1.00  0.00    -0.260 N 
HETATM    8  H   UNL     1     -42.501  58.802 -58.665  1.00  0.00     0.191 HD
HETATM    9  N   UNL     1     -43.291  57.023 -59.260  1.00  0.00    -0.177 NA
HETATM   10  C   UNL     1     -43.504  55.897 -58.567  1.00  0.00     0.068 A 
HETATM   11  C   UNL     1     -44.062  54.711 -59.268  1.00  0.00     0.073 C 
ENDROOT
BRANCH   2  12
HETATM   12  S   UNL     1     -41.195  57.790 -53.562  1.00  0.00    -0.082 SA
BRANCH  12  13
HETATM   13  C   UNL     1     -41.245  59.562 -53.998  1.00  0.00     0.185 C 
BRANCH  13  14
HETATM   14  C   UNL     1     -42.532  60.219 -53.518  1.00  0.00     0.227 C 
HETATM   15  N   UNL     1     -42.684  61.522 -53.946  1.00  0.00    -0.360 N 
HETATM   16  H   UNL     1     -42.085  61.863 -54.690  1.00  0.00     0.162 HD
HETATM   17  O   UNL     1     -43.359  59.636 -52.820  1.00  0.00    -0.273 OA
BRANCH  15  18
HETATM   18  C   UNL     1     -43.891  62.285 -53.660  1.00  0.00     0.127 C 
BRANCH  18  19
HETATM   19  C   UNL     1     -43.700  63.211 -52.458  1.00  0.00     0.058 C 
BRANCH  19  20
HETATM   20  C   UNL     1     -44.238  62.617 -51.182  1.00  0.00    -0.057 A 
HETATM   21  C   UNL     1     -45.619  62.600 -50.932  1.00  0.00     0.009 A 
HETATM   22  C   UNL     1     -46.118  62.055 -49.747  1.00  0.00     0.025 A 
HETATM   23  C   UNL     1     -45.233  61.522 -48.808  1.00  0.00     0.074 A 
HETATM   24  C   UNL     1     -43.856  61.544 -49.034  1.00  0.00     0.025 A 
HETATM   25  C   UNL     1     -43.362  62.089 -50.222  1.00  0.00     0.009 A 
BRANCH  23  26
HETATM   26  S   UNL     1     -45.858  60.876 -47.282  1.00  0.00     0.239 S 
HETATM   27  O   UNL     1     -44.787  60.838 -46.315  1.00  0.00    -0.206 OA
HETATM   28  O   UNL     1     -47.135  61.487 -47.001  1.00  0.00    -0.206 OA
BRANCH  26  29
HETATM   29  N   UNL     1     -46.182  59.280 -47.684  1.00  0.00    -0.225 NA
HETATM   30  H   UNL     1     -47.179  59.164 -47.873  1.00  0.00     0.136 HD
HETATM   31  H   UNL     1     -45.586  58.988 -48.460  1.00  0.00     0.136 HD
ENDBRANCH  26  29
ENDBRANCH  23  26
ENDBRANCH  19  20
ENDBRANCH  18  19
ENDBRANCH  15  18
ENDBRANCH  13  14
ENDBRANCH  12  13
ENDBRANCH   2  12
BRANCH   1  32
HETATM   32  C   UNL     1     -42.314  54.994 -53.795  1.00  0.00     0.051 A 
HETATM   33  C   UNL     1     -41.180  54.172 -53.686  1.00  0.00    -0.013 A 
HETATM   34  C   UNL     1     -40.139  54.073 -54.764  1.00  0.00     0.052 C 
HETATM   35  C   UNL     1     -41.075  53.403 -52.513  1.00  0.00     0.042 A 
HETATM   36 CL   UNL     1     -39.766  52.302 -52.269  1.00  0.00    -0.084 Cl
HETATM   37  C   UNL     1     -42.030  53.499 -51.492  1.00  0.00     0.024 A 
HETATM   38  C   UNL     1     -43.122  54.357 -51.618  1.00  0.00     0.004 A 
HETATM   39  C   UNL     1     -43.272  55.110 -52.776  1.00  0.00     0.031 A 
ENDBRANCH   1  32
BRANCH   6  40
HETATM   40  N   UNL     1     -43.597  53.919 -56.039  1.00  0.00    -0.384 N 
HETATM   41  H   UNL     1     -43.647  53.426 -56.925  1.00  0.00     0.157 HD
HETATM   42  H   UNL     1     -44.314  53.642 -55.379  1.00  0.00     0.157 HD
ENDBRANCH   6  40
TORSDOF 10
ENDMDL
MODEL 4
REMARK VINA RESULT:      -8.2      3.541      6.600
REMARK  10 active torsions:
REMARK  status: ('A' for Active; 'I' for Inactive)
REMARK    1  A    between atoms: C_8  and  N_9 
REMARK    2  A    between atoms: C_10  and  S_11 
REMARK    3  A    between atoms: S_11  and  C_12 
REMARK    4  A    between atoms: C_12  and  C_13 
REMARK       I    between atoms: C_13  and  N_14 
REMARK    5  A    between atoms: N_14  and  C_15 
REMARK    6  A    between atoms: C_15  and  C_16 
REMARK    7  A    between atoms: C_16  and  C_17 
REMARK    8  A    between atoms: C_20  and  S_21 
REMARK    9  A    between atoms: S_21  and  N_22 
REMARK   10  A    between atoms: C_31  and  N_32 
ROOT
HETATM    1  N   UNL     1     -40.881  53.589 -52.522  1.00  0.00    -0.275 N 
HETATM    2  C   UNL     1     -40.650  53.622 -53.866  1.00  0.00     0.177 A 
HETATM    3  N   UNL     1     -40.131  52.604 -54.588  1.00  0.00    -0.204 NA
HETATM    4  C   UNL     1     -39.871  51.537 -53.833  1.00  0.00     0.162 A 
HETATM    5  C   UNL     1     -40.070  51.415 -52.475  1.00  0.00     0.081 A 
HETATM    6  C   UNL     1     -40.634  52.485 -51.760  1.00  0.00     0.124 A 
HETATM    7  N   UNL     1     -39.335  50.358 -54.265  1.00  0.00    -0.260 N 
HETATM    8  H   UNL     1     -39.072  50.101 -55.210  1.00  0.00     0.191 HD
HETATM    9  N   UNL     1     -39.134  49.478 -53.273  1.00  0.00    -0.177 NA
HETATM   10  C   UNL     1     -39.568  50.110 -52.176  1.00  0.00     0.068 A 
HETATM   11  C   UNL     1     -39.458  49.431 -50.859  1.00  0.00     0.073 C 
ENDROOT
BRANCH   2  12
HETATM   12  S   UNL     1     -40.882  55.136 -54.821  1.00  0.00    -0.082 SA
BRANCH  12  13
HETATM   13  C   UNL     1     -42.422  54.724 -55.708  1.00  0.00     0.185 C 
BRANCH  13  14
HETATM   14  C   UNL     1     -43.137  55.977 -56.198  1.00  0.00     0.227 C 
HETATM   15  N   UNL     1     -43.901  56.595 -55.230  1.00  0.00    -0.360 N 
HETATM   16  H   UNL     1     -43.768  56.328 -54.262  1.00  0.00     0.162 HD
HETATM   17  O   UNL     1     -43.032  56.397 -57.349  1.00  0.00    -0.273 OA
BRANCH  15  18
HETATM   18  C   UNL     1     -44.588  57.854 -55.487  1.00  0.00     0.127 C 
BRANCH  18  19
HETATM   19  C   UNL     1     -43.756  59.052 -55.027  1.00  0.00     0.058 C 
BRANCH  19  20
HETATM   20  C   UNL     1     -44.158  59.542 -53.660  1.00  0.00    -0.057 A 
HETATM   21  C   UNL     1     -43.184  59.821 -52.689  1.00  0.00     0.009 A 
HETATM   22  C   UNL     1     -43.557  60.268 -51.419  1.00  0.00     0.025 A 
HETATM   23  C   UNL     1     -44.910  60.441 -51.119  1.00  0.00     0.074 A 
HETATM   24  C   UNL     1     -45.892  60.154 -52.070  1.00  0.00     0.025 A 
HETATM   25  C   UNL     1     -45.514  59.709 -53.338  1.00  0.00     0.009 A 
BRANCH  23  26
HETATM   26  S   UNL     1     -45.389  60.961 -49.496  1.00  0.00     0.239 S 
HETATM   27  O   UNL     1     -44.217  61.405 -48.781  1.00  0.00    -0.206 OA
HETATM   28  O   UNL     1     -46.587  61.760 -49.593  1.00  0.00    -0.206 OA
BRANCH  26  29
HETATM   29  N   UNL     1     -45.849  59.512 -48.787  1.00  0.00    -0.225 NA
HETATM   30  H   UNL     1     -45.265  58.752 -49.137  1.00  0.00     0.136 HD
HETATM   31  H   UNL     1     -45.831  59.601 -47.770  1.00  0.00     0.136 HD
ENDBRANCH  26  29
ENDBRANCH  23  26
ENDBRANCH  19  20
ENDBRANCH  18  19
ENDBRANCH  15  18
ENDBRANCH  13  14
ENDBRANCH  12  13
ENDBRANCH   2  12
BRANCH   1  32
HETATM   32  C   UNL     1     -41.292  54.793 -51.847  1.00  0.00     0.051 A 
HETATM   33  C   UNL     1     -42.653  55.113 -51.711  1.00  0.00    -0.013 A 
HETATM   34  C   UNL     1     -43.752  54.250 -52.262  1.00  0.00     0.052 C 
HETATM   35  C   UNL     1     -42.949  56.320 -51.053  1.00  0.00     0.042 A 
HETATM   36 CL   UNL     1     -44.576  56.872 -50.867  1.00  0.00    -0.084 Cl
HETATM   37  C   UNL     1     -41.934  57.126 -50.519  1.00  0.00     0.024 A 
HETATM   38  C   UNL     1     -40.595  56.755 -50.638  1.00  0.00     0.004 A 
HETATM   39  C   UNL     1     -40.266  55.583 -51.307  1.00  0.00     0.031 A 
ENDBRANCH   1  32
BRANCH   6  40
HETATM   40  N   UNL     1     -40.873  52.439 -50.391  1.00  0.00    -0.384 N 
HETATM   41  H   UNL     1     -40.961  51.524 -49.958  1.00  0.00     0.157 HD
HETATM   42  H   UNL     1     -41.424  53.158 -49.936  1.00  0.00     0.157 HD
ENDBRANCH   6  40
TORSDOF 10
ENDMDL
MODEL 5
REMARK VINA RESULT:      -8.1      4.025      9.189
REMARK  10 active torsions:
REMARK  status: ('A' for Active; 'I' for Inactive)
REMARK    1  A    between atoms: C_8  and  N_9 
REMARK    2  A    between atoms: C_10  and  S_11 
REMARK    3  A    between atoms: S_11  and  C_12 
REMARK    4  A    between atoms: C_12  and  C_13 
REMARK       I    between atoms: C_13  and  N_14 
REMARK    5  A    between atoms: N_14  and  C_15 
REMARK    6  A    between atoms: C_15  and  C_16 
REMARK    7  A    between atoms: C_16  and  C_17 
REMARK    8  A    between atoms: C_20  and  S_21 
REMARK    9  A    between atoms: S_21  and  N_22 
REMARK   10  A    between atoms: C_31  and  N_32 
ROOT
HETATM    1  N   UNL     1     -43.889  59.307 -58.879  1.00  0.00    -0.275 N 
HETATM    2  C   UNL     1     -43.696  59.496 -57.541  1.00  0.00     0.177 A 
HETATM    3  N   UNL     1     -42.798  60.349 -57.001  1.00  0.00    -0.204 NA
HETATM    4  C   UNL     1     -42.112  61.009 -57.933  1.00  0.00     0.162 A 
HETATM    5  C   UNL     1     -42.239  60.884 -59.300  1.00  0.00     0.081 A 
HETATM    6  C   UNL     1     -43.200  60.005 -59.826  1.00  0.00     0.124 A 
HETATM    7  N   UNL     1     -41.130  61.931 -57.708  1.00  0.00    -0.260 N 
HETATM    8  H   UNL     1     -40.785  62.270 -56.816  1.00  0.00     0.191 HD
HETATM    9  N   UNL     1     -40.576  62.395 -58.837  1.00  0.00    -0.177 NA
HETATM   10  C   UNL     1     -41.234  61.761 -59.814  1.00  0.00     0.068 A 
HETATM   11  C   UNL     1     -40.846  62.009 -61.227  1.00  0.00     0.073 C 
ENDROOT
BRANCH   2  12
HETATM   12  S   UNL     1     -44.545  58.476 -56.318  1.00  0.00    -0.082 SA
BRANCH  12  13
HETATM   13  C   UNL     1     -43.337  58.538 -54.952  1.00  0.00     0.185 C 
BRANCH  13  14
HETATM   14  C   UNL     1     -42.434  57.311 -54.948  1.00  0.00     0.227 C 
HETATM   15  N   UNL     1     -42.914  56.266 -55.710  1.00  0.00    -0.360 N 
HETATM   16  H   UNL     1     -43.667  56.447 -56.364  1.00  0.00     0.162 HD
HETATM   17  O   UNL     1     -41.374  57.266 -54.327  1.00  0.00    -0.273 OA
BRANCH  15  18
HETATM   18  C   UNL     1     -42.147  55.042 -55.898  1.00  0.00     0.127 C 
BRANCH  18  19
HETATM   19  C   UNL     1     -42.723  53.886 -55.079  1.00  0.00     0.058 C 
BRANCH  19  20
HETATM   20  C   UNL     1     -42.145  53.820 -53.689  1.00  0.00    -0.057 A 
HETATM   21  C   UNL     1     -42.878  54.299 -52.591  1.00  0.00     0.009 A 
HETATM   22  C   UNL     1     -42.340  54.245 -51.303  1.00  0.00     0.025 A 
HETATM   23  C   UNL     1     -41.066  53.707 -51.110  1.00  0.00     0.074 A 
HETATM   24  C   UNL     1     -40.319  53.240 -52.194  1.00  0.00     0.025 A 
HETATM   25  C   UNL     1     -40.861  53.295 -53.479  1.00  0.00     0.009 A 
BRANCH  23  26
HETATM   26  S   UNL     1     -40.361  53.682 -49.487  1.00  0.00     0.239 S 
HETATM   27  O   UNL     1     -40.595  52.388 -48.893  1.00  0.00    -0.206 OA
HETATM   28  O   UNL     1     -39.051  54.287 -49.534  1.00  0.00    -0.206 OA
BRANCH  26  29
HETATM   29  N   UNL     1     -41.344  54.762 -48.661  1.00  0.00    -0.225 NA
HETATM   30  H   UNL     1     -42.287  54.742 -49.053  1.00  0.00     0.136 HD
HETATM   31  H   UNL     1     -41.317  54.563 -47.661  1.00  0.00     0.136 HD
ENDBRANCH  26  29
ENDBRANCH  23  26
ENDBRANCH  19  20
ENDBRANCH  18  19
ENDBRANCH  15  18
ENDBRANCH  13  14
ENDBRANCH  12  13
ENDBRANCH   2  12
BRANCH   1  32
HETATM   32  C   UNL     1     -44.768  58.257 -59.323  1.00  0.00     0.051 A 
HETATM   33  C   UNL     1     -44.289  56.950 -59.514  1.00  0.00    -0.013 A 
HETATM   34  C   UNL     1     -42.854  56.567 -59.288  1.00  0.00     0.052 C 
HETATM   35  C   UNL     1     -45.222  56.002 -59.968  1.00  0.00     0.042 A 
HETATM   36 CL   UNL     1     -44.762  54.371 -60.305  1.00  0.00    -0.084 Cl
HETATM   37  C   UNL     1     -46.568  56.342 -60.166  1.00  0.00     0.024 A 
HETATM   38  C   UNL     1     -47.016  57.640 -59.927  1.00  0.00     0.004 A 
HETATM   39  C   UNL     1     -46.114  58.609 -59.505  1.00  0.00     0.031 A 
ENDBRANCH   1  32
BRANCH   6  40
HETATM   40  N   UNL     1     -43.395  59.826 -61.192  1.00  0.00    -0.384 N 
HETATM   41  H   UNL     1     -42.643  59.398 -61.724  1.00  0.00     0.157 HD
HETATM   42  H   UNL     1     -43.948  60.484 -61.728  1.00  0.00     0.157 HD
ENDBRANCH   6  40
TORSDOF 10
ENDMDL
MODEL 6
REMARK VINA RESULT:      -8.0      1.302      1.819
REMARK  10 active torsions:
REMARK  status: ('A' for Active; 'I' for Inactive)
REMARK    1  A    between atoms: C_8  and  N_9 
REMARK    2  A    between atoms: C_10  and  S_11 
REMARK    3  A    between atoms: S_11  and  C_12 
REMARK    4  A    between atoms: C_12  and  C_13 
REMARK       I    between atoms: C_13  and  N_14 
REMARK    5  A    between atoms: N_14  and  C_15 
REMARK    6  A    between atoms: C_15  and  C_16 
REMARK    7  A    between atoms: C_16  and  C_17 
REMARK    8  A    between atoms: C_20  and  S_21 
REMARK    9  A    between atoms: S_21  and  N_22 
REMARK   10  A    between atoms: C_31  and  N_32 
ROOT
HETATM    1  N   UNL     1     -42.837  56.960 -53.184  1.00  0.00    -0.275 N 
HETATM    2  C   UNL     1     -42.831  57.175 -54.531  1.00  0.00     0.177 A 
HETATM    3  N   UNL     1     -42.176  56.413 -55.435  1.00  0.00    -0.204 NA
HETATM    4  C   UNL     1     -41.527  55.402 -54.859  1.00  0.00     0.162 A 
HETATM    5  C   UNL     1     -41.476  55.109 -53.513  1.00  0.00     0.081 A 
HETATM    6  C   UNL     1     -42.190  55.909 -52.605  1.00  0.00     0.124 A 
HETATM    7  N   UNL     1     -40.767  54.466 -55.499  1.00  0.00    -0.260 N 
HETATM    8  H   UNL     1     -40.593  54.377 -56.494  1.00  0.00     0.191 HD
HETATM    9  N   UNL     1     -40.188  53.596 -54.660  1.00  0.00    -0.177 NA
HETATM   10  C   UNL     1     -40.603  53.980 -53.446  1.00  0.00     0.068 A 
HETATM   11  C   UNL     1     -40.114  53.247 -52.249  1.00  0.00     0.073 C 
ENDROOT
BRANCH   2  12
HETATM   12  S   UNL     1     -43.604  58.639 -55.250  1.00  0.00    -0.082 SA
BRANCH  12  13
HETATM   13  C   UNL     1     -42.134  59.478 -55.933  1.00  0.00     0.185 C 
BRANCH  13  14
HETATM   14  C   UNL     1     -42.515  60.486 -57.009  1.00  0.00     0.227 C 
HETATM   15  N   UNL     1     -41.521  60.706 -57.940  1.00  0.00    -0.360 N 
HETATM   16  H   UNL     1     -40.741  60.060 -57.981  1.00  0.00     0.162 HD
HETATM   17  O   UNL     1     -43.611  61.042 -57.044  1.00  0.00    -0.273 OA
BRANCH  15  18
HETATM   18  C   UNL     1     -41.733  61.570 -59.094  1.00  0.00     0.127 C 
BRANCH  18  19
HETATM   19  C   UNL     1     -41.634  60.791 -60.406  1.00  0.00     0.058 C 
BRANCH  19  20
HETATM   20  C   UNL     1     -42.476  59.541 -60.398  1.00  0.00    -0.057 A 
HETATM   21  C   UNL     1     -43.877  59.627 -60.418  1.00  0.00     0.009 A 
HETATM   22  C   UNL     1     -44.658  58.468 -60.403  1.00  0.00     0.025 A 
HETATM   23  C   UNL     1     -44.036  57.219 -60.373  1.00  0.00     0.074 A 
HETATM   24  C   UNL     1     -42.643  57.117 -60.338  1.00  0.00     0.025 A 
HETATM   25  C   UNL     1     -41.868  58.278 -60.354  1.00  0.00     0.009 A 
BRANCH  23  26
HETATM   26  S   UNL     1     -45.022  55.750 -60.304  1.00  0.00     0.239 S 
HETATM   27  O   UNL     1     -46.348  56.095 -59.850  1.00  0.00    -0.206 OA
HETATM   28  O   UNL     1     -44.789  54.972 -61.498  1.00  0.00    -0.206 OA
BRANCH  26  29
HETATM   29  N   UNL     1     -44.302  54.903 -59.048  1.00  0.00    -0.225 NA
HETATM   30  H   UNL     1     -44.671  55.229 -58.153  1.00  0.00     0.136 HD
HETATM   31  H   UNL     1     -44.418  53.899 -59.192  1.00  0.00     0.136 HD
ENDBRANCH  26  29
ENDBRANCH  23  26
ENDBRANCH  19  20
ENDBRANCH  18  19
ENDBRANCH  15  18
ENDBRANCH  13  14
ENDBRANCH  12  13
ENDBRANCH   2  12
BRANCH   1  32
HETATM   32  C   UNL     1     -43.447  57.934 -52.316  1.00  0.00     0.051 A 
HETATM   33  C   UNL     1     -42.728  59.058 -51.876  1.00  0.00    -0.013 A 
HETATM   34  C   UNL     1     -41.297  59.310 -52.257  1.00  0.00     0.052 C 
HETATM   35  C   UNL     1     -43.408  59.938 -51.017  1.00  0.00     0.042 A 
HETATM   36 CL   UNL     1     -42.631  61.329 -50.347  1.00  0.00    -0.084 Cl
HETATM   37  C   UNL     1     -44.749  59.724 -50.667  1.00  0.00     0.024 A 
HETATM   38  C   UNL     1     -45.444  58.619 -51.157  1.00  0.00     0.004 A 
HETATM   39  C   UNL     1     -44.793  57.713 -51.985  1.00  0.00     0.031 A 
ENDBRANCH   1  32
BRANCH   6  40
HETATM   40  N   UNL     1     -42.195  55.677 -51.233  1.00  0.00    -0.384 N 
HETATM   41  H   UNL     1     -43.088  55.719 -50.751  1.00  0.00     0.157 HD
HETATM   42  H   UNL     1     -41.408  55.954 -50.657  1.00  0.00     0.157 HD
ENDBRANCH   6  40
TORSDOF 10
ENDMDL
MODEL 7
REMARK VINA RESULT:      -7.9      4.168      8.120
REMARK  10 active torsions:
REMARK  status: ('A' for Active; 'I' for Inactive)
REMARK    1  A    between atoms: C_8  and  N_9 
REMARK    2  A    between atoms: C_10  and  S_11 
REMARK    3  A    between atoms: S_11  and  C_12 
REMARK    4  A    between atoms: C_12  and  C_13 
REMARK       I    between atoms: C_13  and  N_14 
REMARK    5  A    between atoms: N_14  and  C_15 
REMARK    6  A    between atoms: C_15  and  C_16 
REMARK    7  A    between atoms: C_16  and  C_17 
REMARK    8  A    between atoms: C_20  and  S_21 
REMARK    9  A    between atoms: S_21  and  N_22 
REMARK   10  A    between atoms: C_31  and  N_32 
ROOT
HETATM    1  N   UNL     1     -43.387  59.136 -53.945  1.00  0.00    -0.275 N 
HETATM    2  C   UNL     1     -42.352  59.565 -53.167  1.00  0.00     0.177 A 
HETATM    3  N   UNL     1     -42.409  60.605 -52.306  1.00  0.00    -0.204 NA
HETATM    4  C   UNL     1     -43.612  61.176 -52.291  1.00  0.00     0.162 A 
HETATM    5  C   UNL     1     -44.712  60.812 -53.039  1.00  0.00     0.081 A 
HETATM    6  C   UNL     1     -44.623  59.710 -53.906  1.00  0.00     0.124 A 
HETATM    7  N   UNL     1     -43.983  62.251 -51.536  1.00  0.00    -0.260 N 
HETATM    8  H   UNL     1     -43.422  62.766 -50.865  1.00  0.00     0.191 HD
HETATM    9  N   UNL     1     -45.244  62.644 -51.764  1.00  0.00    -0.177 NA
HETATM   10  C   UNL     1     -45.698  61.783 -52.684  1.00  0.00     0.068 A 
HETATM   11  C   UNL     1     -47.078  61.948 -53.210  1.00  0.00     0.073 C 
ENDROOT
BRANCH   2  12
HETATM   12  S   UNL     1     -40.701  58.854 -53.327  1.00  0.00    -0.082 SA
BRANCH  12  13
HETATM   13  C   UNL     1     -40.083  59.083 -51.625  1.00  0.00     0.185 C 
BRANCH  13  14
HETATM   14  C   UNL     1     -40.759  58.127 -50.651  1.00  0.00     0.227 C 
HETATM   15  N   UNL     1     -41.030  56.886 -51.189  1.00  0.00    -0.360 N 
HETATM   16  H   UNL     1     -40.588  56.628 -52.064  1.00  0.00     0.162 HD
HETATM   17  O   UNL     1     -41.029  58.436 -49.492  1.00  0.00    -0.273 OA
BRANCH  15  18
HETATM   18  C   UNL     1     -41.595  55.811 -50.385  1.00  0.00     0.127 C 
BRANCH  18  19
HETATM   19  C   UNL     1     -40.519  54.822 -49.933  1.00  0.00     0.058 C 
BRANCH  19  20
HETATM   20  C   UNL     1     -40.335  53.686 -50.906  1.00  0.00    -0.057 A 
HETATM   21  C   UNL     1     -40.507  53.895 -52.284  1.00  0.00     0.009 A 
HETATM   22  C   UNL     1     -40.344  52.840 -53.185  1.00  0.00     0.025 A 
HETATM   23  C   UNL     1     -40.005  51.573 -52.709  1.00  0.00     0.074 A 
HETATM   24  C   UNL     1     -39.845  51.345 -51.341  1.00  0.00     0.025 A 
HETATM   25  C   UNL     1     -40.008  52.403 -50.444  1.00  0.00     0.009 A 
BRANCH  23  26
HETATM   26  S   UNL     1     -39.846  50.223 -53.844  1.00  0.00     0.239 S 
HETATM   27  O   UNL     1     -41.144  49.919 -54.396  1.00  0.00    -0.206 OA
HETATM   28  O   UNL     1     -38.683  50.439 -54.672  1.00  0.00    -0.206 OA
BRANCH  26  29
HETATM   29  N   UNL     1     -39.462  48.949 -52.822  1.00  0.00    -0.225 NA
HETATM   30  H   UNL     1     -39.005  49.304 -51.980  1.00  0.00     0.136 HD
HETATM   31  H   UNL     1     -40.296  48.395 -52.627  1.00  0.00     0.136 HD
ENDBRANCH  26  29
ENDBRANCH  23  26
ENDBRANCH  19  20
ENDBRANCH  18  19
ENDBRANCH  15  18
ENDBRANCH  13  14
ENDBRANCH  12  13
ENDBRANCH   2  12
BRANCH   1  32
HETATM   32  C   UNL     1     -43.151  58.115 -54.933  1.00  0.00     0.051 A 
HETATM   33  C   UNL     1     -43.334  56.757 -54.623  1.00  0.00    -0.013 A 
HETATM   34  C   UNL     1     -43.764  56.282 -53.264  1.00  0.00     0.052 C 
HETATM   35  C   UNL     1     -43.059  55.838 -55.651  1.00  0.00     0.042 A 
HETATM   36 CL   UNL     1     -43.181  54.133 -55.396  1.00  0.00    -0.084 Cl
HETATM   37  C   UNL     1     -42.674  56.268 -56.929  1.00  0.00     0.024 A 
HETATM   38  C   UNL     1     -42.542  57.627 -57.211  1.00  0.00     0.004 A 
HETATM   39  C   UNL     1     -42.778  58.561 -56.210  1.00  0.00     0.031 A 
ENDBRANCH   1  32
BRANCH   6  40
HETATM   40  N   UNL     1     -45.687  59.276 -54.690  1.00  0.00    -0.384 N 
HETATM   41  H   UNL     1     -46.130  59.955 -55.301  1.00  0.00     0.157 HD
HETATM   42  H   UNL     1     -46.318  58.557 -54.356  1.00  0.00     0.157 HD
ENDBRANCH   6  40
TORSDOF 10
ENDMDL
MODEL 8
REMARK VINA RESULT:      -7.7      2.268      4.431
REMARK  10 active torsions:
REMARK  status: ('A' for Active; 'I' for Inactive)
REMARK    1  A    between atoms: C_8  and  N_9 
REMARK    2  A    between atoms: C_10  and  S_11 
REMARK    3  A    between atoms: S_11  and  C_12 
REMARK    4  A    between atoms: C_12  and  C_13 
REMARK       I    between atoms: C_13  and  N_14 
REMARK    5  A    between atoms: N_14  and  C_15 
REMARK    6  A    between atoms: C_15  and  C_16 
REMARK    7  A    between atoms: C_16  and  C_17 
REMARK    8  A    between atoms: C_20  and  S_21 
REMARK    9  A    between atoms: S_21  and  N_22 
REMARK   10  A    between atoms: C_31  and  N_32 
ROOT
HETATM    1  N   UNL     1     -42.529  56.115 -54.072  1.00  0.00    -0.275 N 
HETATM    2  C   UNL     1     -42.275  55.679 -55.340  1.00  0.00     0.177 A 
HETATM    3  N   UNL     1     -41.544  54.586 -55.651  1.00  0.00    -0.204 NA
HETATM    4  C   UNL     1     -41.094  53.959 -54.565  1.00  0.00     0.162 A 
HETATM    5  C   UNL     1     -41.300  54.325 -53.252  1.00  0.00     0.081 A 
HETATM    6  C   UNL     1     -42.085  55.454 -52.965  1.00  0.00     0.124 A 
HETATM    7  N   UNL     1     -40.322  52.834 -54.548  1.00  0.00    -0.260 N 
HETATM    8  H   UNL     1     -39.989  52.293 -55.339  1.00  0.00     0.191 HD
HETATM    9  N   UNL     1     -39.973  52.454 -53.310  1.00  0.00    -0.177 NA
HETATM   10  C   UNL     1     -40.554  53.358 -52.511  1.00  0.00     0.068 A 
HETATM   11  C   UNL     1     -40.342  53.266 -51.043  1.00  0.00     0.073 C 
ENDROOT
BRANCH   2  12
HETATM   12  S   UNL     1     -42.782  56.639 -56.781  1.00  0.00    -0.082 SA
BRANCH  12  13
HETATM   13  C   UNL     1     -43.007  55.299 -57.999  1.00  0.00     0.185 C 
BRANCH  13  14
HETATM   14  C   UNL     1     -43.740  55.789 -59.241  1.00  0.00     0.227 C 
HETATM   15  N   UNL     1     -45.101  55.934 -59.061  1.00  0.00    -0.360 N 
HETATM   16  H   UNL     1     -45.470  55.927 -58.117  1.00  0.00     0.162 HD
HETATM   17  O   UNL     1     -43.167  56.038 -60.300  1.00  0.00    -0.273 OA
BRANCH  15  18
HETATM   18  C   UNL     1     -45.957  56.474 -60.108  1.00  0.00     0.127 C 
BRANCH  18  19
HETATM   19  C   UNL     1     -46.633  57.774 -59.667  1.00  0.00     0.058 C 
BRANCH  19  20
HETATM   20  C   UNL     1     -45.655  58.762 -59.084  1.00  0.00    -0.057 A 
HETATM   21  C   UNL     1     -45.716  59.106 -57.725  1.00  0.00     0.009 A 
HETATM   22  C   UNL     1     -44.815  60.027 -57.186  1.00  0.00     0.025 A 
HETATM   23  C   UNL     1     -43.846  60.605 -58.008  1.00  0.00     0.074 A 
HETATM   24  C   UNL     1     -43.782  60.285 -59.366  1.00  0.00     0.025 A 
HETATM   25  C   UNL     1     -44.684  59.362 -59.899  1.00  0.00     0.009 A 
BRANCH  23  26
HETATM   26  S   UNL     1     -42.734  61.810 -57.340  1.00  0.00     0.239 S 
HETATM   27  O   UNL     1     -42.113  62.528 -58.427  1.00  0.00    -0.206 OA
HETATM   28  O   UNL     1     -43.377  62.480 -56.235  1.00  0.00    -0.206 OA
BRANCH  26  29
HETATM   29  N   UNL     1     -41.536  60.847 -56.670  1.00  0.00    -0.225 NA
HETATM   30  H   UNL     1     -40.729  61.420 -56.419  1.00  0.00     0.136 HD
HETATM   31  H   UNL     1     -41.914  60.315 -55.885  1.00  0.00     0.136 HD
ENDBRANCH  26  29
ENDBRANCH  23  26
ENDBRANCH  19  20
ENDBRANCH  18  19
ENDBRANCH  15  18
ENDBRANCH  13  14
ENDBRANCH  12  13
ENDBRANCH   2  12
BRANCH   1  32
HETATM   32  C   UNL     1     -43.191  57.380 -53.880  1.00  0.00     0.051 A 
HETATM   33  C   UNL     1     -42.451  58.562 -53.717  1.00  0.00    -0.013 A 
HETATM   34  C   UNL     1     -40.949  58.590 -53.714  1.00  0.00     0.052 C 
HETATM   35  C   UNL     1     -43.191  59.741 -53.517  1.00  0.00     0.042 A 
HETATM   36 CL   UNL     1     -42.414  61.259 -53.241  1.00  0.00    -0.084 Cl
HETATM   37  C   UNL     1     -44.593  59.732 -53.534  1.00  0.00     0.024 A 
HETATM   38  C   UNL     1     -45.293  58.544 -53.740  1.00  0.00     0.004 A 
HETATM   39  C   UNL     1     -44.593  57.357 -53.912  1.00  0.00     0.031 A 
ENDBRANCH   1  32
BRANCH   6  40
HETATM   40  N   UNL     1     -42.345  55.886 -51.668  1.00  0.00    -0.384 N 
HETATM   41  H   UNL     1     -43.052  55.387 -51.138  1.00  0.00     0.157 HD
HETATM   42  H   UNL     1     -42.269  56.867 -51.423  1.00  0.00     0.157 HD
ENDBRANCH   6  40
TORSDOF 10
ENDMDL
MODEL 9
REMARK VINA RESULT:      -7.7      4.155      7.183
REMARK  10 active torsions:
REMARK  status: ('A' for Active; 'I' for Inactive)
REMARK    1  A    between atoms: C_8  and  N_9 
REMARK    2  A    between atoms: C_10  and  S_11 
REMARK    3  A    between atoms: S_11  and  C_12 
REMARK    4  A    between atoms: C_12  and  C_13 
REMARK       I    between atoms: C_13  and  N_14 
REMARK    5  A    between atoms: N_14  and  C_15 
REMARK    6  A    between atoms: C_15  and  C_16 
REMARK    7  A    between atoms: C_16  and  C_17 
REMARK    8  A    between atoms: C_20  and  S_21 
REMARK    9  A    between atoms: S_21  and  N_22 
REMARK   10  A    between atoms: C_31  and  N_32 
ROOT
HETATM    1  N   UNL     1     -43.883  60.651 -51.363  1.00  0.00    -0.275 N 
HETATM    2  C   UNL     1     -43.975  61.154 -52.628  1.00  0.00     0.177 A 
HETATM    3  N   UNL     1     -44.817  62.139 -53.010  1.00  0.00    -0.204 NA
HETATM    4  C   UNL     1     -45.559  62.584 -51.997  1.00  0.00     0.162 A 
HETATM    5  C   UNL     1     -45.534  62.138 -50.693  1.00  0.00     0.081 A 
HETATM    6  C   UNL     1     -44.629  61.128 -50.326  1.00  0.00     0.124 A 
HETATM    7  N   UNL     1     -46.507  63.564 -52.064  1.00  0.00    -0.260 N 
HETATM    8  H   UNL     1     -46.780  64.114 -52.871  1.00  0.00     0.191 HD
HETATM    9  N   UNL     1     -47.135  63.769 -50.897  1.00  0.00    -0.177 NA
HETATM   10  C   UNL     1     -46.560  62.901 -50.055  1.00  0.00     0.068 A 
HETATM   11  C   UNL     1     -47.047  62.824 -48.653  1.00  0.00     0.073 C 
ENDROOT
BRANCH   2  12
HETATM   12  S   UNL     1     -43.055  60.423 -53.997  1.00  0.00    -0.082 SA
BRANCH  12  13
HETATM   13  C   UNL     1     -44.338  59.335 -54.705  1.00  0.00     0.185 C 
BRANCH  13  14
HETATM   14  C   UNL     1     -43.831  57.910 -54.878  1.00  0.00     0.227 C 
HETATM   15  N   UNL     1     -42.477  57.830 -55.131  1.00  0.00    -0.360 N 
HETATM   16  H   UNL     1     -41.902  58.649 -54.970  1.00  0.00     0.162 HD
HETATM   17  O   UNL     1     -44.563  56.926 -54.791  1.00  0.00    -0.273 OA
BRANCH  15  18
HETATM   18  C   UNL     1     -41.794  56.548 -55.239  1.00  0.00     0.127 C 
BRANCH  18  19
HETATM   19  C   UNL     1     -41.052  56.195 -53.949  1.00  0.00     0.058 C 
BRANCH  19  20
HETATM   20  C   UNL     1     -40.698  54.732 -53.869  1.00  0.00    -0.057 A 
HETATM   21  C   UNL     1     -40.458  53.994 -55.038  1.00  0.00     0.009 A 
HETATM   22  C   UNL     1     -40.138  52.636 -54.965  1.00  0.00     0.025 A 
HETATM   23  C   UNL     1     -40.053  52.014 -53.717  1.00  0.00     0.074 A 
HETATM   24  C   UNL     1     -40.303  52.732 -52.546  1.00  0.00     0.025 A 
HETATM   25  C   UNL     1     -40.622  54.089 -52.625  1.00  0.00     0.009 A 
BRANCH  23  26
HETATM   26  S   UNL     1     -39.696  50.283 -53.623  1.00  0.00     0.239 S 
HETATM   27  O   UNL     1     -38.505  50.007 -54.391  1.00  0.00    -0.206 OA
HETATM   28  O   UNL     1     -39.856  49.844 -52.257  1.00  0.00    -0.206 OA
BRANCH  26  29
HETATM   29  N   UNL     1     -40.973  49.614 -54.481  1.00  0.00    -0.225 NA
HETATM   30  H   UNL     1     -40.638  49.251 -55.375  1.00  0.00     0.136 HD
HETATM   31  H   UNL     1     -41.446  48.913 -53.911  1.00  0.00     0.136 HD
ENDBRANCH  26  29
ENDBRANCH  23  26
ENDBRANCH  19  20
ENDBRANCH  18  19
ENDBRANCH  15  18
ENDBRANCH  13  14
ENDBRANCH  12  13
ENDBRANCH   2  12
BRANCH   1  32
HETATM   32  C   UNL     1     -43.055  59.497 -51.121  1.00  0.00     0.051 A 
HETATM   33  C   UNL     1     -43.598  58.202 -51.156  1.00  0.00    -0.013 A 
HETATM   34  C   UNL     1     -45.052  57.935 -51.427  1.00  0.00     0.052 C 
HETATM   35  C   UNL     1     -42.711  57.144 -50.888  1.00  0.00     0.042 A 
HETATM   36 CL   UNL     1     -43.251  55.504 -50.837  1.00  0.00    -0.084 Cl
HETATM   37  C   UNL     1     -41.350  57.379 -50.651  1.00  0.00     0.024 A 
HETATM   38  C   UNL     1     -40.839  58.676 -50.664  1.00  0.00     0.004 A 
HETATM   39  C   UNL     1     -41.693  59.746 -50.897  1.00  0.00     0.031 A 
ENDBRANCH   1  32
BRANCH   6  40
HETATM   40  N   UNL     1     -44.537  60.628 -49.031  1.00  0.00    -0.384 N 
HETATM   41  H   UNL     1     -45.229  59.945 -48.739  1.00  0.00     0.157 HD
HETATM   42  H   UNL     1     -44.193  61.207 -48.274  1.00  0.00     0.157 HD
ENDBRANCH   6  40
TORSDOF 10
ENDMDL
MODEL 10
REMARK VINA RESULT:      -7.5      2.417      3.198
REMARK  10 active torsions:
REMARK  status: ('A' for Active; 'I' for Inactive)
REMARK    1  A    between atoms: C_8  and  N_9 
REMARK    2  A    between atoms: C_10  and  S_11 
REMARK    3  A    between atoms: S_11  and  C_12 
REMARK    4  A    between atoms: C_12  and  C_13 
REMARK       I    between atoms: C_13  and  N_14 
REMARK    5  A    between atoms: N_14  and  C_15 
REMARK    6  A    between atoms: C_15  and  C_16 
REMARK    7  A    between atoms: C_16  and  C_17 
REMARK    8  A    between atoms: C_20  and  S_21 
REMARK    9  A    between atoms: S_21  and  N_22 
REMARK   10  A    between atoms: C_31  and  N_32 
ROOT
HETATM    1  N   UNL     1     -41.883  56.685 -51.974  1.00  0.00    -0.275 N 
HETATM    2  C   UNL     1     -41.759  56.378 -53.298  1.00  0.00     0.177 A 
HETATM    3  N   UNL     1     -41.284  55.209 -53.780  1.00  0.00    -0.204 NA
HETATM    4  C   UNL     1     -40.949  54.365 -52.805  1.00  0.00     0.162 A 
HETATM    5  C   UNL     1     -41.039  54.588 -51.448  1.00  0.00     0.081 A 
HETATM    6  C   UNL     1     -41.561  55.807 -50.982  1.00  0.00     0.124 A 
HETATM    7  N   UNL     1     -40.431  53.112 -52.968  1.00  0.00    -0.260 N 
HETATM    8  H   UNL     1     -40.240  52.624 -53.837  1.00  0.00     0.191 HD
HETATM    9  N   UNL     1     -40.139  52.508 -51.807  1.00  0.00    -0.177 NA
HETATM   10  C   UNL     1     -40.495  53.398 -50.873  1.00  0.00     0.068 A 
HETATM   11  C   UNL     1     -40.271  53.072 -49.440  1.00  0.00     0.073 C 
ENDROOT
BRANCH   2  12
HETATM   12  S   UNL     1     -42.089  57.604 -54.580  1.00  0.00    -0.082 SA
BRANCH  12  13
HETATM   13  C   UNL     1     -42.832  56.539 -55.862  1.00  0.00     0.185 C 
BRANCH  13  14
HETATM   14  C   UNL     1     -42.569  57.081 -57.260  1.00  0.00     0.227 C 
HETATM   15  N   UNL     1     -42.646  56.123 -58.251  1.00  0.00    -0.360 N 
HETATM   16  H   UNL     1     -43.069  55.229 -58.030  1.00  0.00     0.162 HD
HETATM   17  O   UNL     1     -42.320  58.264 -57.481  1.00  0.00    -0.273 OA
BRANCH  15  18
HETATM   18  C   UNL     1     -42.511  56.468 -59.660  1.00  0.00     0.127 C 
BRANCH  18  19
HETATM   19  C   UNL     1     -43.827  56.273 -60.415  1.00  0.00     0.058 C 
BRANCH  19  20
HETATM   20  C   UNL     1     -44.854  57.318 -60.061  1.00  0.00    -0.057 A 
HETATM   21  C   UNL     1     -44.608  58.675 -60.325  1.00  0.00     0.009 A 
HETATM   22  C   UNL     1     -45.557  59.644 -59.990  1.00  0.00     0.025 A 
HETATM   23  C   UNL     1     -46.758  59.256 -59.394  1.00  0.00     0.074 A 
HETATM   24  C   UNL     1     -47.011  57.911 -59.112  1.00  0.00     0.025 A 
HETATM   25  C   UNL     1     -46.060  56.946 -59.449  1.00  0.00     0.009 A 
BRANCH  23  26
HETATM   26  S   UNL     1     -47.942  60.485 -58.924  1.00  0.00     0.239 S 
HETATM   27  O   UNL     1     -47.242  61.688 -58.539  1.00  0.00    -0.206 OA
HETATM   28  O   UNL     1     -49.021  60.490 -59.883  1.00  0.00    -0.206 OA
BRANCH  26  29
HETATM   29  N   UNL     1     -48.575  59.840 -57.511  1.00  0.00    -0.225 NA
HETATM   30  H   UNL     1     -47.842  59.355 -56.991  1.00  0.00     0.136 HD
HETATM   31  H   UNL     1     -49.039  60.572 -56.971  1.00  0.00     0.136 HD
ENDBRANCH  26  29
ENDBRANCH  23  26
ENDBRANCH  19  20
ENDBRANCH  18  19
ENDBRANCH  15  18
ENDBRANCH  13  14
ENDBRANCH  12  13
ENDBRANCH   2  12
BRANCH   1  32
HETATM   32  C   UNL     1     -42.258  58.023 -51.592  1.00  0.00     0.051 A 
HETATM   33  C   UNL     1     -43.609  58.379 -51.453  1.00  0.00    -0.013 A 
HETATM   34  C   UNL     1     -44.736  57.417 -51.702  1.00  0.00     0.052 C 
HETATM   35  C   UNL     1     -43.870  59.714 -51.095  1.00  0.00     0.042 A 
HETATM   36 CL   UNL     1     -45.485  60.310 -50.948  1.00  0.00    -0.084 Cl
HETATM   37  C   UNL     1     -42.828  60.617 -50.843  1.00  0.00     0.024 A 
HETATM   38  C   UNL     1     -41.497  60.215 -50.951  1.00  0.00     0.004 A 
HETATM   39  C   UNL     1     -41.204  58.911 -51.331  1.00  0.00     0.031 A 
ENDBRANCH   1  32
BRANCH   6  40
HETATM   40  N   UNL     1     -41.690  56.107 -49.630  1.00  0.00    -0.384 N 
HETATM   41  H   UNL     1     -40.843  56.308 -49.108  1.00  0.00     0.157 HD
HETATM   42  H   UNL     1     -42.420  55.680 -49.071  1.00  0.00     0.157 HD
ENDBRANCH   6  40
TORSDOF 10
ENDMDL
