MODEL 1
REMARK VINA RESULT:      -8.0      0.000      0.000
REMARK  3 active torsions:
REMARK  status: ('A' for Active; 'I' for Inactive)
REMARK    1  A    between atoms: C_6  and  C_7 
REMARK       I    between atoms: C_7  and  N_8 
REMARK    2  A    between atoms: N_8  and  C_9 
REMARK    3  A    between atoms: C_11  and  C_12 
REMARK       I    between atoms: C_12  and  N_13 
ROOT
HETATM    1  C   UNL     1     -41.743  55.112 -52.674  1.00  0.00     0.258 C 
HETATM    2  N   UNL     1     -41.041  56.142 -53.267  1.00  0.00    -0.307 N 
HETATM    3  O   UNL     1     -42.755  55.176 -51.989  1.00  0.00    -0.267 OA
HETATM    4  H   UNL     1     -40.237  55.900 -53.826  1.00  0.00     0.170 HD
ENDROOT
BRANCH   2   5
HETATM    5  C   UNL     1     -41.357  57.500 -53.146  1.00  0.00     0.131 A 
HETATM    6  N   UNL     1     -41.411  58.074 -51.937  1.00  0.00    -0.226 NA
HETATM    7  C   UNL     1     -41.717  59.396 -51.875  1.00  0.00     0.126 A 
HETATM    8  C   UNL     1     -41.966  60.184 -52.986  1.00  0.00     0.037 A 
HETATM    9  C   UNL     1     -41.904  59.576 -54.233  1.00  0.00     0.006 A 
HETATM   10  C   UNL     1     -41.600  58.216 -54.316  1.00  0.00     0.050 A 
BRANCH   7  11
HETATM   11  C   UNL     1     -41.776  59.980 -50.499  1.00  0.00     0.268 C 
HETATM   12  N   UNL     1     -41.199  59.212 -49.525  1.00  0.00    -0.365 N 
HETATM   13  H   UNL     1     -40.768  58.326 -49.786  1.00  0.00     0.159 HD
HETATM   14  H   UNL     1     -41.186  59.523 -48.566  1.00  0.00     0.159 HD
HETATM   15  O   UNL     1     -42.304  61.058 -50.259  1.00  0.00    -0.266 OA
ENDBRANCH   7  11
ENDBRANCH   2   5
BRANCH   1  16
HETATM   16  C   UNL     1     -41.154  53.775 -52.956  1.00  0.00     0.044 A 
HETATM   17  C   UNL     1     -40.298  53.167 -52.013  1.00  0.00    -0.045 A 
HETATM   18  C   UNL     1     -39.709  51.934 -52.333  1.00  0.00     0.014 A 
HETATM   19  C   UNL     1     -39.987  53.797 -50.683  1.00  0.00     0.049 C 
HETATM   20  C   UNL     1     -39.983  51.296 -53.549  1.00  0.00    -0.061 A 
HETATM   21  C   UNL     1     -39.386  49.952 -53.849  1.00  0.00     0.048 C 
HETATM   22  C   UNL     1     -40.876  51.890 -54.450  1.00  0.00     0.014 A 
HETATM   23  C   UNL     1     -41.461  53.135 -54.174  1.00  0.00    -0.045 A 
HETATM   24  C   UNL     1     -42.421  53.734 -55.165  1.00  0.00     0.049 C 
ENDBRANCH   1  16
TORSDOF 3
ENDMDL
MODEL 2
REMARK VINA RESULT:      -8.0      1.416      2.779
REMARK  3 active torsions:
REMARK  status: ('A' for Active; 'I' for Inactive)
REMARK    1  A    between atoms: C_6  and  C_7 
REMARK       I    between atoms: C_7  and  N_8 
REMARK    2  A    between atoms: N_8  and  C_9 
REMARK    3  A    between atoms: C_11  and  C_12 
REMARK       I    between atoms: C_12  and  N_13 
ROOT
HETATM    1  C   UNL     1     -41.762  55.026 -52.172  1.00  0.00     0.258 C 
HETATM    2  N   UNL     1     -40.996  56.142 -52.444  1.00  0.00    -0.307 N 
HETATM    3  O   UNL     1     -42.826  54.961 -51.572  1.00  0.00    -0.267 OA
HETATM    4  H   UNL     1     -40.153  56.012 -52.982  1.00  0.00     0.170 HD
ENDROOT
BRANCH   2   5
HETATM    5  C   UNL     1     -41.298  57.442 -52.024  1.00  0.00     0.131 A 
HETATM    6  N   UNL     1     -42.048  58.242 -52.794  1.00  0.00    -0.226 NA
HETATM    7  C   UNL     1     -42.317  59.493 -52.337  1.00  0.00     0.126 A 
HETATM    8  C   UNL     1     -41.870  59.983 -51.122  1.00  0.00     0.037 A 
HETATM    9  C   UNL     1     -41.096  59.142 -50.333  1.00  0.00     0.006 A 
HETATM   10  C   UNL     1     -40.802  57.856 -50.791  1.00  0.00     0.050 A 
BRANCH   7  11
HETATM   11  C   UNL     1     -43.146  60.346 -53.243  1.00  0.00     0.268 C 
HETATM   12  N   UNL     1     -42.439  61.259 -53.977  1.00  0.00    -0.365 N 
HETATM   13  H   UNL     1     -41.425  61.295 -53.875  1.00  0.00     0.159 HD
HETATM   14  H   UNL     1     -42.910  61.877 -54.619  1.00  0.00     0.159 HD
HETATM   15  O   UNL     1     -44.364  60.241 -53.322  1.00  0.00    -0.266 OA
ENDBRANCH   7  11
ENDBRANCH   2   5
BRANCH   1  16
HETATM   16  C   UNL     1     -41.174  53.775 -52.723  1.00  0.00     0.044 A 
HETATM   17  C   UNL     1     -41.530  53.337 -54.016  1.00  0.00    -0.045 A 
HETATM   18  C   UNL     1     -41.007  52.123 -54.486  1.00  0.00     0.014 A 
HETATM   19  C   UNL     1     -42.456  54.122 -54.906  1.00  0.00     0.049 C 
HETATM   20  C   UNL     1     -40.125  51.366 -53.704  1.00  0.00    -0.061 A 
HETATM   21  C   UNL     1     -39.534  50.097 -54.246  1.00  0.00     0.048 C 
HETATM   22  C   UNL     1     -39.743  51.843 -52.445  1.00  0.00     0.014 A 
HETATM   23  C   UNL     1     -40.267  53.039 -51.934  1.00  0.00    -0.045 A 
HETATM   24  C   UNL     1     -39.824  53.519 -50.579  1.00  0.00     0.049 C 
ENDBRANCH   1  16
TORSDOF 3
ENDMDL
MODEL 3
REMARK VINA RESULT:      -8.0      1.342      2.058
REMARK  3 active torsions:
REMARK  status: ('A' for Active; 'I' for Inactive)
REMARK    1  A    between atoms: C_6  and  C_7 
REMARK       I    between atoms: C_7  and  N_8 
REMARK    2  A    between atoms: N_8  and  C_9 
REMARK    3  A    between atoms: C_11  and  C_12 
REMARK       I    between atoms: C_12  and  N_13 
ROOT
HETATM    1  C   UNL     1     -41.768  55.181 -52.010  1.00  0.00     0.258 C 
HETATM    2  N   UNL     1     -40.978  56.277 -52.293  1.00  0.00    -0.307 N 
HETATM    3  O   UNL     1     -42.838  55.147 -51.418  1.00  0.00    -0.267 OA
HETATM    4  H   UNL     1     -40.133  56.121 -52.822  1.00  0.00     0.170 HD
ENDROOT
BRANCH   2   5
HETATM    5  C   UNL     1     -41.258  57.589 -51.897  1.00  0.00     0.131 A 
HETATM    6  N   UNL     1     -41.840  58.442 -52.751  1.00  0.00    -0.226 NA
HETATM    7  C   UNL     1     -42.096  59.702 -52.314  1.00  0.00     0.126 A 
HETATM    8  C   UNL     1     -41.797  60.153 -51.040  1.00  0.00     0.037 A 
HETATM    9  C   UNL     1     -41.195  59.258 -50.164  1.00  0.00     0.006 A 
HETATM   10  C   UNL     1     -40.917  57.961 -50.599  1.00  0.00     0.050 A 
BRANCH   7  11
HETATM   11  C   UNL     1     -42.734  60.613 -53.314  1.00  0.00     0.268 C 
HETATM   12  N   UNL     1     -42.109  60.658 -54.531  1.00  0.00    -0.365 N 
HETATM   13  H   UNL     1     -41.283  60.080 -54.682  1.00  0.00     0.159 HD
HETATM   14  H   UNL     1     -42.468  61.241 -55.271  1.00  0.00     0.159 HD
HETATM   15  O   UNL     1     -43.735  61.273 -53.065  1.00  0.00    -0.266 OA
ENDBRANCH   7  11
ENDBRANCH   2   5
BRANCH   1  16
HETATM   16  C   UNL     1     -41.201  53.909 -52.535  1.00  0.00     0.044 A 
HETATM   17  C   UNL     1     -40.325  53.144 -51.736  1.00  0.00    -0.045 A 
HETATM   18  C   UNL     1     -39.759  51.981 -52.280  1.00  0.00     0.014 A 
HETATM   19  C   UNL     1     -39.971  53.534 -50.327  1.00  0.00     0.049 C 
HETATM   20  C   UNL     1     -40.073  51.564 -53.579  1.00  0.00    -0.061 A 
HETATM   21  C   UNL     1     -39.498  50.288 -54.123  1.00  0.00     0.048 C 
HETATM   22  C   UNL     1     -40.984  52.308 -54.338  1.00  0.00     0.014 A 
HETATM   23  C   UNL     1     -41.549  53.490 -53.835  1.00  0.00    -0.045 A 
HETATM   24  C   UNL     1     -42.530  54.256 -54.680  1.00  0.00     0.049 C 
ENDBRANCH   1  16
TORSDOF 3
ENDMDL
MODEL 4
REMARK VINA RESULT:      -7.8      2.500      3.126
REMARK  3 active torsions:
REMARK  status: ('A' for Active; 'I' for Inactive)
REMARK    1  A    between atoms: C_6  and  C_7 
REMARK       I    between atoms: C_7  and  N_8 
REMARK    2  A    between atoms: N_8  and  C_9 
REMARK    3  A    between atoms: C_11  and  C_12 
REMARK       I    between atoms: C_12  and  N_13 
ROOT
HETATM    1  C   UNL     1     -41.431  55.205 -52.399  1.00  0.00     0.258 C 
HETATM    2  N   UNL     1     -42.812  55.205 -52.418  1.00  0.00    -0.307 N 
HETATM    3  O   UNL     1     -40.668  56.146 -52.567  1.00  0.00    -0.267 OA
HETATM    4  H   UNL     1     -43.283  54.334 -52.229  1.00  0.00     0.170 HD
ENDROOT
BRANCH   2   5
HETATM    5  C   UNL     1     -43.608  56.324 -52.688  1.00  0.00     0.131 A 
HETATM    6  N   UNL     1     -44.069  57.081 -51.684  1.00  0.00    -0.226 NA
HETATM    7  C   UNL     1     -44.833  58.159 -52.000  1.00  0.00     0.126 A 
HETATM    8  C   UNL     1     -45.155  58.523 -53.296  1.00  0.00     0.037 A 
HETATM    9  C   UNL     1     -44.670  57.730 -54.328  1.00  0.00     0.006 A 
HETATM   10  C   UNL     1     -43.890  56.613 -54.021  1.00  0.00     0.050 A 
BRANCH   7  11
HETATM   11  C   UNL     1     -45.329  58.960 -50.839  1.00  0.00     0.268 C 
HETATM   12  N   UNL     1     -44.398  59.789 -50.274  1.00  0.00    -0.365 N 
HETATM   13  H   UNL     1     -43.460  59.819 -50.670  1.00  0.00     0.159 HD
HETATM   14  H   UNL     1     -44.640  60.372 -49.487  1.00  0.00     0.159 HD
HETATM   15  O   UNL     1     -46.477  58.880 -50.421  1.00  0.00    -0.266 OA
ENDBRANCH   7  11
ENDBRANCH   2   5
BRANCH   1  16
HETATM   16  C   UNL     1     -40.858  53.862 -52.112  1.00  0.00     0.044 A 
HETATM   17  C   UNL     1     -40.411  53.045 -53.172  1.00  0.00    -0.045 A 
HETATM   18  C   UNL     1     -39.931  51.760 -52.876  1.00  0.00     0.014 A 
HETATM   19  C   UNL     1     -40.437  53.498 -54.606  1.00  0.00     0.049 C 
HETATM   20  C   UNL     1     -39.867  51.299 -51.556  1.00  0.00    -0.061 A 
HETATM   21  C   UNL     1     -39.300  49.941 -51.256  1.00  0.00     0.048 C 
HETATM   22  C   UNL     1     -40.266  52.144 -50.513  1.00  0.00     0.014 A 
HETATM   23  C   UNL     1     -40.776  53.424 -50.775  1.00  0.00    -0.045 A 
HETATM   24  C   UNL     1     -41.187  54.303 -49.626  1.00  0.00     0.049 C 
ENDBRANCH   1  16
TORSDOF 3
ENDMDL
MODEL 5
REMARK VINA RESULT:      -7.7      2.376      2.380
REMARK  3 active torsions:
REMARK  status: ('A' for Active; 'I' for Inactive)
REMARK    1  A    between atoms: C_6  and  C_7 
REMARK       I    between atoms: C_7  and  N_8 
REMARK    2  A    between atoms: N_8  and  C_9 
REMARK    3  A    between atoms: C_11  and  C_12 
REMARK       I    between atoms: C_12  and  N_13 
ROOT
HETATM    1  C   UNL     1     -41.709  55.963 -53.032  1.00  0.00     0.258 C 
HETATM    2  N   UNL     1     -43.089  55.999 -53.067  1.00  0.00    -0.307 N 
HETATM    3  O   UNL     1     -40.927  56.895 -52.906  1.00  0.00    -0.267 OA
HETATM    4  H   UNL     1     -43.579  55.121 -53.148  1.00  0.00     0.170 HD
ENDROOT
BRANCH   2   5
HETATM    5  C   UNL     1     -43.861  57.164 -53.004  1.00  0.00     0.131 A 
HETATM    6  N   UNL     1     -44.175  57.702 -51.818  1.00  0.00    -0.226 NA
HETATM    7  C   UNL     1     -44.922  58.836 -51.813  1.00  0.00     0.126 A 
HETATM    8  C   UNL     1     -45.369  59.471 -52.959  1.00  0.00     0.037 A 
HETATM    9  C   UNL     1     -45.034  58.904 -54.182  1.00  0.00     0.006 A 
HETATM   10  C   UNL     1     -44.274  57.733 -54.206  1.00  0.00     0.050 A 
BRANCH   7  11
HETATM   11  C   UNL     1     -45.253  59.383 -50.461  1.00  0.00     0.268 C 
HETATM   12  N   UNL     1     -44.320  60.242 -49.945  1.00  0.00    -0.365 N 
HETATM   13  H   UNL     1     -43.491  60.458 -50.497  1.00  0.00     0.159 HD
HETATM   14  H   UNL     1     -44.456  60.665 -49.040  1.00  0.00     0.159 HD
HETATM   15  O   UNL     1     -46.277  59.086 -49.858  1.00  0.00    -0.266 OA
ENDBRANCH   7  11
ENDBRANCH   2   5
BRANCH   1  16
HETATM   16  C   UNL     1     -41.164  54.583 -53.147  1.00  0.00     0.044 A 
HETATM   17  C   UNL     1     -40.812  53.864 -51.986  1.00  0.00    -0.045 A 
HETATM   18  C   UNL     1     -40.244  52.589 -52.129  1.00  0.00     0.014 A 
HETATM   19  C   UNL     1     -41.014  54.418 -50.602  1.00  0.00     0.049 C 
HETATM   20  C   UNL     1     -40.055  52.020 -53.394  1.00  0.00    -0.061 A 
HETATM   21  C   UNL     1     -39.496  50.632 -53.523  1.00  0.00     0.048 C 
HETATM   22  C   UNL     1     -40.459  52.727 -54.532  1.00  0.00     0.014 A 
HETATM   23  C   UNL     1     -41.004  54.015 -54.428  1.00  0.00    -0.045 A 
HETATM   24  C   UNL     1     -41.433  54.738 -55.675  1.00  0.00     0.049 C 
ENDBRANCH   1  16
TORSDOF 3
ENDMDL
MODEL 6
REMARK VINA RESULT:      -7.6      2.941      4.122
REMARK  3 active torsions:
REMARK  status: ('A' for Active; 'I' for Inactive)
REMARK    1  A    between atoms: C_6  and  C_7 
REMARK       I    between atoms: C_7  and  N_8 
REMARK    2  A    between atoms: N_8  and  C_9 
REMARK    3  A    between atoms: C_11  and  C_12 
REMARK       I    between atoms: C_12  and  N_13 
ROOT
HETATM    1  C   UNL     1     -41.445  55.620 -52.936  1.00  0.00     0.258 C 
HETATM    2  N   UNL     1     -42.825  55.630 -52.971  1.00  0.00    -0.307 N 
HETATM    3  O   UNL     1     -40.672  56.545 -53.140  1.00  0.00    -0.267 OA
HETATM    4  H   UNL     1     -43.307  54.773 -52.745  1.00  0.00     0.170 HD
ENDROOT
BRANCH   2   5
HETATM    5  C   UNL     1     -43.609  56.741 -53.302  1.00  0.00     0.131 A 
HETATM    6  N   UNL     1     -44.056  56.901 -54.555  1.00  0.00    -0.226 NA
HETATM    7  C   UNL     1     -44.818  57.993 -54.823  1.00  0.00     0.126 A 
HETATM    8  C   UNL     1     -45.165  58.943 -53.877  1.00  0.00     0.037 A 
HETATM    9  C   UNL     1     -44.697  58.763 -52.582  1.00  0.00     0.006 A 
HETATM   10  C   UNL     1     -43.905  57.651 -52.290  1.00  0.00     0.050 A 
BRANCH   7  11
HETATM   11  C   UNL     1     -45.277  58.127 -56.239  1.00  0.00     0.268 C 
HETATM   12  N   UNL     1     -46.592  57.811 -56.449  1.00  0.00    -0.365 N 
HETATM   13  H   UNL     1     -47.163  57.524 -55.654  1.00  0.00     0.159 HD
HETATM   14  H   UNL     1     -46.995  57.873 -57.371  1.00  0.00     0.159 HD
HETATM   15  O   UNL     1     -44.536  58.487 -57.145  1.00  0.00    -0.266 OA
ENDBRANCH   7  11
ENDBRANCH   2   5
BRANCH   1  16
HETATM   16  C   UNL     1     -40.887  54.287 -52.580  1.00  0.00     0.044 A 
HETATM   17  C   UNL     1     -40.487  53.394 -53.597  1.00  0.00    -0.045 A 
HETATM   18  C   UNL     1     -40.022  52.122 -53.233  1.00  0.00     0.014 A 
HETATM   19  C   UNL     1     -40.551  53.754 -55.056  1.00  0.00     0.049 C 
HETATM   20  C   UNL     1     -39.924  51.746 -51.888  1.00  0.00    -0.061 A 
HETATM   21  C   UNL     1     -39.372  50.400 -51.517  1.00  0.00     0.048 C 
HETATM   22  C   UNL     1     -40.275  52.664 -50.891  1.00  0.00     0.014 A 
HETATM   23  C   UNL     1     -40.770  53.935 -51.220  1.00  0.00    -0.045 A 
HETATM   24  C   UNL     1     -41.129  54.894 -50.119  1.00  0.00     0.049 C 
ENDBRANCH   1  16
TORSDOF 3
ENDMDL
MODEL 7
REMARK VINA RESULT:      -7.5      3.002      3.858
REMARK  3 active torsions:
REMARK  status: ('A' for Active; 'I' for Inactive)
REMARK    1  A    between atoms: C_6  and  C_7 
REMARK       I    between atoms: C_7  and  N_8 
REMARK    2  A    between atoms: N_8  and  C_9 
REMARK    3  A    between atoms: C_11  and  C_12 
REMARK       I    between atoms: C_12  and  N_13 
ROOT
HETATM    1  C   UNL     1     -41.561  55.550 -52.980  1.00  0.00     0.258 C 
HETATM    2  N   UNL     1     -42.941  55.583 -53.025  1.00  0.00    -0.307 N 
HETATM    3  O   UNL     1     -40.771  56.455 -53.211  1.00  0.00    -0.267 OA
HETATM    4  H   UNL     1     -43.438  54.742 -52.773  1.00  0.00     0.170 HD
ENDROOT
BRANCH   2   5
HETATM    5  C   UNL     1     -43.703  56.694 -53.402  1.00  0.00     0.131 A 
HETATM    6  N   UNL     1     -44.159  56.804 -54.657  1.00  0.00    -0.226 NA
HETATM    7  C   UNL     1     -44.899  57.899 -54.970  1.00  0.00     0.126 A 
HETATM    8  C   UNL     1     -45.216  58.900 -54.068  1.00  0.00     0.037 A 
HETATM    9  C   UNL     1     -44.739  58.772 -52.769  1.00  0.00     0.006 A 
HETATM   10  C   UNL     1     -43.969  57.657 -52.432  1.00  0.00     0.050 A 
BRANCH   7  11
HETATM   11  C   UNL     1     -45.369  57.976 -56.387  1.00  0.00     0.268 C 
HETATM   12  N   UNL     1     -46.724  57.865 -56.549  1.00  0.00    -0.365 N 
HETATM   13  H   UNL     1     -47.312  57.752 -55.724  1.00  0.00     0.159 HD
HETATM   14  H   UNL     1     -47.137  57.908 -57.468  1.00  0.00     0.159 HD
HETATM   15  O   UNL     1     -44.605  58.122 -57.333  1.00  0.00    -0.266 OA
ENDBRANCH   7  11
ENDBRANCH   2   5
BRANCH   1  16
HETATM   16  C   UNL     1     -41.028  54.222 -52.572  1.00  0.00     0.044 A 
HETATM   17  C   UNL     1     -41.027  53.850 -51.212  1.00  0.00    -0.045 A 
HETATM   18  C   UNL     1     -40.463  52.617 -50.850  1.00  0.00     0.014 A 
HETATM   19  C   UNL     1     -41.600  54.730 -50.134  1.00  0.00     0.049 C 
HETATM   20  C   UNL     1     -39.935  51.752 -51.817  1.00  0.00    -0.061 A 
HETATM   21  C   UNL     1     -39.385  50.414 -51.416  1.00  0.00     0.048 C 
HETATM   22  C   UNL     1     -39.993  52.116 -53.168  1.00  0.00     0.014 A 
HETATM   23  C   UNL     1     -40.525  53.353 -53.562  1.00  0.00    -0.045 A 
HETATM   24  C   UNL     1     -40.576  53.702 -55.024  1.00  0.00     0.049 C 
ENDBRANCH   1  16
TORSDOF 3
ENDMDL
MODEL 8
REMARK VINA RESULT:      -7.4      3.612      5.659
REMARK  3 active torsions:
REMARK  status: ('A' for Active; 'I' for Inactive)
REMARK    1  A    between atoms: C_6  and  C_7 
REMARK       I    between atoms: C_7  and  N_8 
REMARK    2  A    between atoms: N_8  and  C_9 
REMARK    3  A    between atoms: C_11  and  C_12 
REMARK       I    between atoms: C_12  and  N_13 
ROOT
HETATM    1  C   UNL     1     -43.022  55.130 -54.132  1.00  0.00     0.258 C 
HETATM    2  N   UNL     1     -42.540  56.176 -54.892  1.00  0.00    -0.307 N 
HETATM    3  O   UNL     1     -44.001  54.426 -54.340  1.00  0.00    -0.267 OA
HETATM    4  H   UNL     1     -41.694  56.631 -54.582  1.00  0.00     0.170 HD
ENDROOT
BRANCH   2   5
HETATM    5  C   UNL     1     -43.139  56.660 -56.061  1.00  0.00     0.131 A 
HETATM    6  N   UNL     1     -42.728  56.225 -57.259  1.00  0.00    -0.226 NA
HETATM    7  C   UNL     1     -43.347  56.721 -58.361  1.00  0.00     0.126 A 
HETATM    8  C   UNL     1     -44.380  57.641 -58.318  1.00  0.00     0.037 A 
HETATM    9  C   UNL     1     -44.798  58.082 -57.069  1.00  0.00     0.006 A 
HETATM   10  C   UNL     1     -44.168  57.589 -55.925  1.00  0.00     0.050 A 
BRANCH   7  11
HETATM   11  C   UNL     1     -42.838  56.210 -59.671  1.00  0.00     0.268 C 
HETATM   12  N   UNL     1     -41.582  56.641 -60.006  1.00  0.00    -0.365 N 
HETATM   13  H   UNL     1     -41.083  57.253 -59.362  1.00  0.00     0.159 HD
HETATM   14  H   UNL     1     -41.152  56.348 -60.869  1.00  0.00     0.159 HD
HETATM   15  O   UNL     1     -43.492  55.468 -60.393  1.00  0.00    -0.266 OA
ENDBRANCH   7  11
ENDBRANCH   2   5
BRANCH   1  16
HETATM   16  C   UNL     1     -42.190  54.860 -52.928  1.00  0.00     0.044 A 
HETATM   17  C   UNL     1     -41.120  53.943 -53.000  1.00  0.00    -0.045 A 
HETATM   18  C   UNL     1     -40.392  53.663 -51.834  1.00  0.00     0.014 A 
HETATM   19  C   UNL     1     -40.739  53.248 -54.279  1.00  0.00     0.049 C 
HETATM   20  C   UNL     1     -40.694  54.298 -50.624  1.00  0.00    -0.061 A 
HETATM   21  C   UNL     1     -39.867  54.025 -49.400  1.00  0.00     0.048 C 
HETATM   22  C   UNL     1     -41.725  55.245 -50.584  1.00  0.00     0.014 A 
HETATM   23  C   UNL     1     -42.491  55.528 -51.724  1.00  0.00    -0.045 A 
HETATM   24  C   UNL     1     -43.585  56.557 -51.640  1.00  0.00     0.049 C 
ENDBRANCH   1  16
TORSDOF 3
ENDMDL
MODEL 9
REMARK VINA RESULT:      -7.3      3.551      5.350
REMARK  3 active torsions:
REMARK  status: ('A' for Active; 'I' for Inactive)
REMARK    1  A    between atoms: C_6  and  C_7 
REMARK       I    between atoms: C_7  and  N_8 
REMARK    2  A    between atoms: N_8  and  C_9 
REMARK    3  A    between atoms: C_11  and  C_12 
REMARK       I    between atoms: C_12  and  N_13 
ROOT
HETATM    1  C   UNL     1     -41.457  55.432 -54.117  1.00  0.00     0.258 C 
HETATM    2  N   UNL     1     -42.631  55.186 -54.802  1.00  0.00    -0.307 N 
HETATM    3  O   UNL     1     -40.658  56.344 -54.279  1.00  0.00    -0.267 OA
HETATM    4  H   UNL     1     -43.186  54.395 -54.513  1.00  0.00     0.170 HD
ENDROOT
BRANCH   2   5
HETATM    5  C   UNL     1     -43.106  55.949 -55.875  1.00  0.00     0.131 A 
HETATM    6  N   UNL     1     -42.912  55.536 -57.134  1.00  0.00    -0.226 NA
HETATM    7  C   UNL     1     -43.398  56.310 -58.139  1.00  0.00     0.126 A 
HETATM    8  C   UNL     1     -44.088  57.493 -57.936  1.00  0.00     0.037 A 
HETATM    9  C   UNL     1     -44.285  57.909 -56.625  1.00  0.00     0.006 A 
HETATM   10  C   UNL     1     -43.784  57.130 -55.580  1.00  0.00     0.050 A 
BRANCH   7  11
HETATM   11  C   UNL     1     -43.140  55.807 -59.523  1.00  0.00     0.268 C 
HETATM   12  N   UNL     1     -44.042  54.881 -59.974  1.00  0.00    -0.365 N 
HETATM   13  H   UNL     1     -44.813  54.607 -59.366  1.00  0.00     0.159 HD
HETATM   14  H   UNL     1     -43.953  54.485 -60.897  1.00  0.00     0.159 HD
HETATM   15  O   UNL     1     -42.195  56.188 -60.202  1.00  0.00    -0.266 OA
ENDBRANCH   7  11
ENDBRANCH   2   5
BRANCH   1  16
HETATM   16  C   UNL     1     -41.196  54.434 -53.044  1.00  0.00     0.044 A 
HETATM   17  C   UNL     1     -41.654  54.673 -51.732  1.00  0.00    -0.045 A 
HETATM   18  C   UNL     1     -41.340  53.744 -50.728  1.00  0.00     0.014 A 
HETATM   19  C   UNL     1     -42.458  55.892 -51.368  1.00  0.00     0.049 C 
HETATM   20  C   UNL     1     -40.612  52.584 -51.019  1.00  0.00    -0.061 A 
HETATM   21  C   UNL     1     -40.334  51.576 -49.942  1.00  0.00     0.048 C 
HETATM   22  C   UNL     1     -40.212  52.338 -52.338  1.00  0.00     0.014 A 
HETATM   23  C   UNL     1     -40.484  53.259 -53.361  1.00  0.00    -0.045 A 
HETATM   24  C   UNL     1     -40.043  52.953 -54.766  1.00  0.00     0.049 C 
ENDBRANCH   1  16
TORSDOF 3
ENDMDL
MODEL 10
REMARK VINA RESULT:      -7.3      2.691      6.929
REMARK  3 active torsions:
REMARK  status: ('A' for Active; 'I' for Inactive)
REMARK    1  A    between atoms: C_6  and  C_7 
REMARK       I    between atoms: C_7  and  N_8 
REMARK    2  A    between atoms: N_8  and  C_9 
REMARK    3  A    between atoms: C_11  and  C_12 
REMARK       I    between atoms: C_12  and  N_13 
ROOT
HETATM    1  C   UNL     1     -41.910  54.702 -53.157  1.00  0.00     0.258 C 
HETATM    2  N   UNL     1     -40.641  54.185 -53.327  1.00  0.00    -0.307 N 
HETATM    3  O   UNL     1     -42.948  54.104 -52.907  1.00  0.00    -0.267 OA
HETATM    4  H   UNL     1     -39.889  54.836 -53.500  1.00  0.00     0.170 HD
ENDROOT
BRANCH   2   5
HETATM    5  C   UNL     1     -40.318  52.824 -53.284  1.00  0.00     0.131 A 
HETATM    6  N   UNL     1     -40.181  52.202 -52.105  1.00  0.00    -0.226 NA
HETATM    7  C   UNL     1     -39.873  50.879 -52.119  1.00  0.00     0.126 A 
HETATM    8  C   UNL     1     -39.701  50.138 -53.276  1.00  0.00     0.037 A 
HETATM    9  C   UNL     1     -39.848  50.796 -54.490  1.00  0.00     0.006 A 
HETATM   10  C   UNL     1     -40.156  52.158 -54.495  1.00  0.00     0.050 A 
BRANCH   7  11
HETATM   11  C   UNL     1     -39.719  50.239 -50.776  1.00  0.00     0.268 C 
HETATM   12  N   UNL     1     -38.735  49.291 -50.701  1.00  0.00    -0.365 N 
HETATM   13  H   UNL     1     -38.178  49.092 -51.532  1.00  0.00     0.159 HD
HETATM   14  H   UNL     1     -38.553  48.806 -49.836  1.00  0.00     0.159 HD
HETATM   15  O   UNL     1     -40.420  50.535 -49.816  1.00  0.00    -0.266 OA
ENDBRANCH   7  11
ENDBRANCH   2   5
BRANCH   1  16
HETATM   16  C   UNL     1     -41.952  56.184 -53.286  1.00  0.00     0.044 A 
HETATM   17  C   UNL     1     -41.783  56.997 -52.146  1.00  0.00    -0.045 A 
HETATM   18  C   UNL     1     -41.888  58.389 -52.288  1.00  0.00     0.014 A 
HETATM   19  C   UNL     1     -41.503  56.426 -50.783  1.00  0.00     0.049 C 
HETATM   20  C   UNL     1     -42.126  58.971 -53.539  1.00  0.00    -0.061 A 
HETATM   21  C   UNL     1     -42.181  60.465 -53.679  1.00  0.00     0.048 C 
HETATM   22  C   UNL     1     -42.239  58.151 -54.668  1.00  0.00     0.014 A 
HETATM   23  C   UNL     1     -42.167  56.755 -54.557  1.00  0.00    -0.045 A 
HETATM   24  C   UNL     1     -42.285  55.909 -55.796  1.00  0.00     0.049 C 
ENDBRANCH   1  16
TORSDOF 3
ENDMDL
