MODEL 1
REMARK VINA RESULT:      -7.9      0.000      0.000
REMARK  4 active torsions:
REMARK  status: ('A' for Active; 'I' for Inactive)
REMARK    1  A    between atoms: C_3  and  N_4 
REMARK       I    between atoms: N_4  and  C_5 
REMARK    2  A    between atoms: C_5  and  C_6 
REMARK    3  A    between atoms: C_7  and  C_8 
REMARK    4  A    between atoms: C_16  and  C_17 
ROOT
HETATM    1  C   UNL     1     -39.794  51.724 -53.446  1.00  0.00     0.003 A 
HETATM    2  C   UNL     1     -40.573  52.343 -54.425  1.00  0.00     0.029 A 
HETATM    3  C   UNL     1     -41.418  53.399 -54.086  1.00  0.00     0.035 A 
HETATM    4  C   UNL     1     -41.478  53.819 -52.747  1.00  0.00     0.042 A 
HETATM    5  C   UNL     1     -40.704  53.205 -51.748  1.00  0.00    -0.021 A 
HETATM    6  C   UNL     1     -39.857  52.152 -52.118  1.00  0.00     0.012 A 
ENDROOT
BRANCH   3   7
HETATM    7  N   UNL     1     -42.210  54.101 -55.018  1.00  0.00    -0.327 N 
HETATM    8  C   UNL     1     -42.032  55.392 -55.469  1.00  0.00     0.227 C 
HETATM    9  O   UNL     1     -41.108  56.149 -55.205  1.00  0.00    -0.273 OA
HETATM   10  H   UNL     1     -43.012  53.603 -55.379  1.00  0.00     0.169 HD
BRANCH   8  11
HETATM   11  C   UNL     1     -43.138  55.861 -56.359  1.00  0.00     0.089 A 
HETATM   12  C   UNL     1     -42.861  56.148 -57.828  1.00  0.00     0.057 A 
HETATM   13  C   UNL     1     -43.133  57.275 -56.854  1.00  0.00     0.027 A 
BRANCH  12  14
HETATM   14  C   UNL     1     -43.950  55.809 -58.827  1.00  0.00     0.057 A 
HETATM   15  O   UNL     1     -44.959  56.654 -59.187  1.00  0.00    -0.327 OA
HETATM   16  C   UNL     1     -45.716  56.000 -60.105  1.00  0.00     0.142 A 
HETATM   17  C   UNL     1     -45.211  54.743 -60.337  1.00  0.00     0.027 A 
HETATM   18  C   UNL     1     -44.068  54.617 -59.509  1.00  0.00     0.035 A 
ENDBRANCH  12  14
ENDBRANCH   8  11
ENDBRANCH   3   7
BRANCH   5  19
HETATM   19  C   UNL     1     -40.784  53.668 -50.367  1.00  0.00     0.010 A 
HETATM   20  C   UNL     1     -40.559  52.985 -49.145  1.00  0.00     0.152 A 
HETATM   21  N   UNL     1     -40.725  53.763 -48.072  1.00  0.00    -0.187 NA
HETATM   22  N   UNL     1     -41.060  54.950 -48.598  1.00  0.00    -0.289 N 
HETATM   23  H   UNL     1     -41.243  55.723 -47.965  1.00  0.00     0.188 HD
HETATM   24  C   UNL     1     -41.107  54.946 -49.962  1.00  0.00     0.123 A 
ENDBRANCH   5  19
TORSDOF 4
ENDMDL
MODEL 2
REMARK VINA RESULT:      -7.8      2.225      3.243
REMARK  4 active torsions:
REMARK  status: ('A' for Active; 'I' for Inactive)
REMARK    1  A    between atoms: C_3  and  N_4 
REMARK       I    between atoms: N_4  and  C_5 
REMARK    2  A    between atoms: C_5  and  C_6 
REMARK    3  A    between atoms: C_7  and  C_8 
REMARK    4  A    between atoms: C_16  and  C_17 
ROOT
HETATM    1  C   UNL     1     -40.601  54.527 -50.901  1.00  0.00     0.003 A 
HETATM    2  C   UNL     1     -41.156  55.292 -51.928  1.00  0.00     0.029 A 
HETATM    3  C   UNL     1     -41.318  54.747 -53.201  1.00  0.00     0.035 A 
HETATM    4  C   UNL     1     -40.907  53.424 -53.431  1.00  0.00     0.042 A 
HETATM    5  C   UNL     1     -40.344  52.640 -52.409  1.00  0.00    -0.021 A 
HETATM    6  C   UNL     1     -40.201  53.210 -51.138  1.00  0.00     0.012 A 
ENDROOT
BRANCH   3   7
HETATM    7  N   UNL     1     -41.900  55.439 -54.283  1.00  0.00    -0.327 N 
HETATM    8  C   UNL     1     -43.171  55.281 -54.796  1.00  0.00     0.227 C 
HETATM    9  O   UNL     1     -44.061  54.564 -54.363  1.00  0.00    -0.273 OA
HETATM   10  H   UNL     1     -41.307  56.115 -54.745  1.00  0.00     0.169 HD
BRANCH   8  11
HETATM   11  C   UNL     1     -43.409  56.089 -56.031  1.00  0.00     0.089 A 
HETATM   12  C   UNL     1     -42.800  55.650 -57.355  1.00  0.00     0.057 A 
HETATM   13  C   UNL     1     -42.278  56.871 -56.627  1.00  0.00     0.027 A 
BRANCH  12  14
HETATM   14  C   UNL     1     -43.615  55.882 -58.613  1.00  0.00     0.057 A 
HETATM   15  O   UNL     1     -43.980  57.109 -59.082  1.00  0.00    -0.327 OA
HETATM   16  C   UNL     1     -44.681  56.905 -60.226  1.00  0.00     0.142 A 
HETATM   17  C   UNL     1     -44.777  55.561 -60.498  1.00  0.00     0.027 A 
HETATM   18  C   UNL     1     -44.088  54.897 -59.453  1.00  0.00     0.035 A 
ENDBRANCH  12  14
ENDBRANCH   8  11
ENDBRANCH   3   7
BRANCH   5  19
HETATM   19  C   UNL     1     -39.932  51.267 -52.679  1.00  0.00     0.010 A 
HETATM   20  C   UNL     1     -39.771  50.570 -53.903  1.00  0.00     0.152 A 
HETATM   21  N   UNL     1     -39.366  49.308 -53.738  1.00  0.00    -0.187 NA
HETATM   22  N   UNL     1     -39.265  49.186 -52.407  1.00  0.00    -0.289 N 
HETATM   23  H   UNL     1     -38.967  48.293 -52.026  1.00  0.00     0.188 HD
HETATM   24  C   UNL     1     -39.590  50.326 -51.730  1.00  0.00     0.123 A 
ENDBRANCH   5  19
TORSDOF 4
ENDMDL
MODEL 3
REMARK VINA RESULT:      -7.4      2.637      3.987
REMARK  4 active torsions:
REMARK  status: ('A' for Active; 'I' for Inactive)
REMARK    1  A    between atoms: C_3  and  N_4 
REMARK       I    between atoms: N_4  and  C_5 
REMARK    2  A    between atoms: C_5  and  C_6 
REMARK    3  A    between atoms: C_7  and  C_8 
REMARK    4  A    between atoms: C_16  and  C_17 
ROOT
HETATM    1  C   UNL     1     -41.003  55.000 -52.154  1.00  0.00     0.003 A 
HETATM    2  C   UNL     1     -41.314  55.647 -53.350  1.00  0.00     0.029 A 
HETATM    3  C   UNL     1     -41.234  54.961 -54.561  1.00  0.00     0.035 A 
HETATM    4  C   UNL     1     -40.828  53.616 -54.555  1.00  0.00     0.042 A 
HETATM    5  C   UNL     1     -40.507  52.950 -53.359  1.00  0.00    -0.021 A 
HETATM    6  C   UNL     1     -40.604  53.662 -52.157  1.00  0.00     0.012 A 
ENDROOT
BRANCH   3   7
HETATM    7  N   UNL     1     -41.565  55.528 -55.809  1.00  0.00    -0.327 N 
HETATM    8  C   UNL     1     -42.607  55.179 -56.642  1.00  0.00     0.227 C 
HETATM    9  O   UNL     1     -43.490  54.362 -56.423  1.00  0.00    -0.273 OA
HETATM   10  H   UNL     1     -40.952  56.263 -56.136  1.00  0.00     0.169 HD
BRANCH   8  11
HETATM   11  C   UNL     1     -42.582  55.904 -57.949  1.00  0.00     0.089 A 
HETATM   12  C   UNL     1     -43.458  57.132 -58.154  1.00  0.00     0.057 A 
HETATM   13  C   UNL     1     -43.773  55.828 -58.855  1.00  0.00     0.027 A 
BRANCH  12  14
HETATM   14  C   UNL     1     -42.898  58.261 -58.997  1.00  0.00     0.057 A 
HETATM   15  O   UNL     1     -42.881  58.272 -60.361  1.00  0.00    -0.327 OA
HETATM   16  C   UNL     1     -42.318  59.448 -60.742  1.00  0.00     0.142 A 
HETATM   17  C   UNL     1     -41.967  60.192 -59.641  1.00  0.00     0.027 A 
HETATM   18  C   UNL     1     -42.340  59.423 -58.510  1.00  0.00     0.035 A 
ENDBRANCH  12  14
ENDBRANCH   8  11
ENDBRANCH   3   7
BRANCH   5  19
HETATM   19  C   UNL     1     -40.094  51.552 -53.385  1.00  0.00     0.010 A 
HETATM   20  C   UNL     1     -40.079  50.609 -54.444  1.00  0.00     0.152 A 
HETATM   21  N   UNL     1     -39.616  49.412 -54.072  1.00  0.00    -0.187 NA
HETATM   22  N   UNL     1     -39.333  49.578 -52.773  1.00  0.00    -0.289 N 
HETATM   23  H   UNL     1     -38.959  48.788 -52.256  1.00  0.00     0.188 HD
HETATM   24  C   UNL     1     -39.598  50.836 -52.315  1.00  0.00     0.123 A 
ENDBRANCH   5  19
TORSDOF 4
ENDMDL
MODEL 4
REMARK VINA RESULT:      -7.3      4.180      6.362
REMARK  4 active torsions:
REMARK  status: ('A' for Active; 'I' for Inactive)
REMARK    1  A    between atoms: C_3  and  N_4 
REMARK       I    between atoms: N_4  and  C_5 
REMARK    2  A    between atoms: C_5  and  C_6 
REMARK    3  A    between atoms: C_7  and  C_8 
REMARK    4  A    between atoms: C_16  and  C_17 
ROOT
HETATM    1  C   UNL     1     -40.402  54.033 -55.285  1.00  0.00     0.003 A 
HETATM    2  C   UNL     1     -40.868  55.129 -54.557  1.00  0.00     0.029 A 
HETATM    3  C   UNL     1     -41.022  55.040 -53.175  1.00  0.00     0.035 A 
HETATM    4  C   UNL     1     -40.709  53.830 -52.532  1.00  0.00     0.042 A 
HETATM    5  C   UNL     1     -40.242  52.716 -53.250  1.00  0.00    -0.021 A 
HETATM    6  C   UNL     1     -40.089  52.836 -54.637  1.00  0.00     0.012 A 
ENDROOT
BRANCH   3   7
HETATM    7  N   UNL     1     -41.452  56.109 -52.361  1.00  0.00    -0.327 N 
HETATM    8  C   UNL     1     -41.047  57.426 -52.419  1.00  0.00     0.227 C 
HETATM    9  O   UNL     1     -40.292  57.934 -53.236  1.00  0.00    -0.273 OA
HETATM   10  H   UNL     1     -42.122  55.873 -51.642  1.00  0.00     0.169 HD
BRANCH   8  11
HETATM   11  C   UNL     1     -41.614  58.263 -51.318  1.00  0.00     0.089 A 
HETATM   12  C   UNL     1     -42.200  59.632 -51.630  1.00  0.00     0.057 A 
HETATM   13  C   UNL     1     -40.888  59.501 -50.888  1.00  0.00     0.027 A 
BRANCH  12  14
HETATM   14  C   UNL     1     -43.413  60.075 -50.833  1.00  0.00     0.057 A 
HETATM   15  O   UNL     1     -44.647  59.501 -50.921  1.00  0.00    -0.327 OA
HETATM   16  C   UNL     1     -45.454  60.160 -50.052  1.00  0.00     0.142 A 
HETATM   17  C   UNL     1     -44.757  61.155 -49.408  1.00  0.00     0.027 A 
HETATM   18  C   UNL     1     -43.435  61.102 -49.915  1.00  0.00     0.035 A 
ENDBRANCH  12  14
ENDBRANCH   8  11
ENDBRANCH   3   7
BRANCH   5  19
HETATM   19  C   UNL     1     -39.920  51.475 -52.553  1.00  0.00     0.010 A 
HETATM   20  C   UNL     1     -39.782  51.198 -51.169  1.00  0.00     0.152 A 
HETATM   21  N   UNL     1     -39.484  49.920 -50.919  1.00  0.00    -0.187 NA
HETATM   22  N   UNL     1     -39.427  49.369 -52.140  1.00  0.00    -0.289 N 
HETATM   23  H   UNL     1     -39.210  48.379 -52.213  1.00  0.00     0.188 HD
HETATM   24  C   UNL     1     -39.681  50.254 -53.148  1.00  0.00     0.123 A 
ENDBRANCH   5  19
TORSDOF 4
ENDMDL
MODEL 5
REMARK VINA RESULT:      -7.2      1.790      2.776
REMARK  4 active torsions:
REMARK  status: ('A' for Active; 'I' for Inactive)
REMARK    1  A    between atoms: C_3  and  N_4 
REMARK       I    between atoms: N_4  and  C_5 
REMARK    2  A    between atoms: C_5  and  C_6 
REMARK    3  A    between atoms: C_7  and  C_8 
REMARK    4  A    between atoms: C_16  and  C_17 
ROOT
HETATM    1  C   UNL     1     -39.859  52.012 -53.651  1.00  0.00     0.003 A 
HETATM    2  C   UNL     1     -40.236  52.863 -54.691  1.00  0.00     0.029 A 
HETATM    3  C   UNL     1     -40.786  54.113 -54.409  1.00  0.00     0.035 A 
HETATM    4  C   UNL     1     -40.960  54.493 -53.068  1.00  0.00     0.042 A 
HETATM    5  C   UNL     1     -40.588  53.646 -52.009  1.00  0.00    -0.021 A 
HETATM    6  C   UNL     1     -40.030  52.400 -52.321  1.00  0.00     0.012 A 
ENDROOT
BRANCH   3   7
HETATM    7  N   UNL     1     -41.161  55.047 -55.397  1.00  0.00    -0.327 N 
HETATM    8  C   UNL     1     -42.342  55.091 -56.108  1.00  0.00     0.227 C 
HETATM    9  O   UNL     1     -43.321  54.372 -55.965  1.00  0.00    -0.273 OA
HETATM   10  H   UNL     1     -40.474  55.754 -55.619  1.00  0.00     0.169 HD
BRANCH   8  11
HETATM   11  C   UNL     1     -42.349  56.142 -57.170  1.00  0.00     0.089 A 
HETATM   12  C   UNL     1     -43.184  57.401 -56.987  1.00  0.00     0.057 A 
HETATM   13  C   UNL     1     -43.583  56.346 -57.995  1.00  0.00     0.027 A 
BRANCH  12  14
HETATM   14  C   UNL     1     -42.620  58.703 -57.524  1.00  0.00     0.057 A 
HETATM   15  O   UNL     1     -41.736  59.497 -56.854  1.00  0.00    -0.327 OA
HETATM   16  C   UNL     1     -41.460  60.553 -57.661  1.00  0.00     0.142 A 
HETATM   17  C   UNL     1     -42.159  60.452 -58.840  1.00  0.00     0.027 A 
HETATM   18  C   UNL     1     -42.912  59.255 -58.752  1.00  0.00     0.035 A 
ENDBRANCH  12  14
ENDBRANCH   8  11
ENDBRANCH   3   7
BRANCH   5  19
HETATM   19  C   UNL     1     -40.776  54.072 -50.627  1.00  0.00     0.010 A 
HETATM   20  C   UNL     1     -40.539  53.391 -49.406  1.00  0.00     0.152 A 
HETATM   21  N   UNL     1     -40.830  54.128 -48.331  1.00  0.00    -0.187 NA
HETATM   22  N   UNL     1     -41.257  55.286 -48.853  1.00  0.00    -0.289 N 
HETATM   23  H   UNL     1     -41.544  56.025 -48.218  1.00  0.00     0.188 HD
HETATM   24  C   UNL     1     -41.242  55.305 -50.218  1.00  0.00     0.123 A 
ENDBRANCH   5  19
TORSDOF 4
ENDMDL
MODEL 6
REMARK VINA RESULT:      -7.1      4.654      7.398
REMARK  4 active torsions:
REMARK  status: ('A' for Active; 'I' for Inactive)
REMARK    1  A    between atoms: C_3  and  N_4 
REMARK       I    between atoms: N_4  and  C_5 
REMARK    2  A    between atoms: C_5  and  C_6 
REMARK    3  A    between atoms: C_7  and  C_8 
REMARK    4  A    between atoms: C_16  and  C_17 
ROOT
HETATM    1  C   UNL     1     -40.801  59.330 -50.599  1.00  0.00     0.003 A 
HETATM    2  C   UNL     1     -40.728  58.033 -51.108  1.00  0.00     0.029 A 
HETATM    3  C   UNL     1     -41.876  57.397 -51.577  1.00  0.00     0.035 A 
HETATM    4  C   UNL     1     -43.102  58.079 -51.521  1.00  0.00     0.042 A 
HETATM    5  C   UNL     1     -43.195  59.385 -51.009  1.00  0.00    -0.021 A 
HETATM    6  C   UNL     1     -42.024  60.003 -50.552  1.00  0.00     0.012 A 
ENDROOT
BRANCH   3   7
HETATM    7  N   UNL     1     -41.884  56.103 -52.138  1.00  0.00    -0.327 N 
HETATM    8  C   UNL     1     -41.761  54.898 -51.477  1.00  0.00     0.227 C 
HETATM    9  O   UNL     1     -41.698  54.719 -50.269  1.00  0.00    -0.273 OA
HETATM   10  H   UNL     1     -41.971  56.059 -53.144  1.00  0.00     0.169 HD
BRANCH   8  11
HETATM   11  C   UNL     1     -41.681  53.727 -52.402  1.00  0.00     0.089 A 
HETATM   12  C   UNL     1     -40.344  53.328 -53.009  1.00  0.00     0.057 A 
HETATM   13  C   UNL     1     -41.426  53.958 -53.860  1.00  0.00     0.027 A 
BRANCH  12  14
HETATM   14  C   UNL     1     -40.075  51.848 -53.204  1.00  0.00     0.057 A 
HETATM   15  O   UNL     1     -39.687  50.997 -52.212  1.00  0.00    -0.327 OA
HETATM   16  C   UNL     1     -39.561  49.766 -52.772  1.00  0.00     0.142 A 
HETATM   17  C   UNL     1     -39.859  49.816 -54.113  1.00  0.00     0.027 A 
HETATM   18  C   UNL     1     -40.190  51.164 -54.395  1.00  0.00     0.035 A 
ENDBRANCH  12  14
ENDBRANCH   8  11
ENDBRANCH   3   7
BRANCH   5  19
HETATM   19  C   UNL     1     -44.482  60.070 -50.970  1.00  0.00     0.010 A 
HETATM   20  C   UNL     1     -45.749  59.692 -51.482  1.00  0.00     0.152 A 
HETATM   21  N   UNL     1     -46.703  60.594 -51.235  1.00  0.00    -0.187 NA
HETATM   22  N   UNL     1     -46.055  61.558 -50.566  1.00  0.00    -0.289 N 
HETATM   23  H   UNL     1     -46.581  62.372 -50.263  1.00  0.00     0.188 HD
HETATM   24  C   UNL     1     -44.729  61.292 -50.380  1.00  0.00     0.123 A 
ENDBRANCH   5  19
TORSDOF 4
ENDMDL
MODEL 7
REMARK VINA RESULT:      -6.9      2.782      3.976
REMARK  4 active torsions:
REMARK  status: ('A' for Active; 'I' for Inactive)
REMARK    1  A    between atoms: C_3  and  N_4 
REMARK       I    between atoms: N_4  and  C_5 
REMARK    2  A    between atoms: C_5  and  C_6 
REMARK    3  A    between atoms: C_7  and  C_8 
REMARK    4  A    between atoms: C_16  and  C_17 
ROOT
HETATM    1  C   UNL     1     -40.463  54.066 -49.861  1.00  0.00     0.003 A 
HETATM    2  C   UNL     1     -40.851  55.057 -50.763  1.00  0.00     0.029 A 
HETATM    3  C   UNL     1     -40.921  54.777 -52.127  1.00  0.00     0.035 A 
HETATM    4  C   UNL     1     -40.586  53.488 -52.574  1.00  0.00     0.042 A 
HETATM    5  C   UNL     1     -40.190  52.479 -51.680  1.00  0.00    -0.021 A 
HETATM    6  C   UNL     1     -40.136  52.786 -50.314  1.00  0.00     0.012 A 
ENDROOT
BRANCH   3   7
HETATM    7  N   UNL     1     -41.337  55.708 -53.100  1.00  0.00    -0.327 N 
HETATM    8  C   UNL     1     -42.576  56.302 -53.221  1.00  0.00     0.227 C 
HETATM    9  O   UNL     1     -43.528  56.191 -52.462  1.00  0.00    -0.273 OA
HETATM   10  H   UNL     1     -40.649  55.952 -53.800  1.00  0.00     0.169 HD
BRANCH   8  11
HETATM   11  C   UNL     1     -42.707  57.143 -54.449  1.00  0.00     0.089 A 
HETATM   12  C   UNL     1     -43.565  56.663 -55.611  1.00  0.00     0.057 A 
HETATM   13  C   UNL     1     -42.056  56.692 -55.721  1.00  0.00     0.027 A 
BRANCH  12  14
HETATM   14  C   UNL     1     -44.343  57.708 -56.388  1.00  0.00     0.057 A 
HETATM   15  O   UNL     1     -43.930  58.263 -57.563  1.00  0.00    -0.327 OA
HETATM   16  C   UNL     1     -44.894  59.136 -57.951  1.00  0.00     0.142 A 
HETATM   17  C   UNL     1     -45.921  59.155 -57.037  1.00  0.00     0.027 A 
HETATM   18  C   UNL     1     -45.564  58.232 -56.023  1.00  0.00     0.035 A 
ENDBRANCH  12  14
ENDBRANCH   8  11
ENDBRANCH   3   7
BRANCH   5  19
HETATM   19  C   UNL     1     -39.854  51.148 -52.175  1.00  0.00     0.010 A 
HETATM   20  C   UNL     1     -39.754  50.649 -53.498  1.00  0.00     0.152 A 
HETATM   21  N   UNL     1     -39.409  49.359 -53.546  1.00  0.00    -0.187 NA
HETATM   22  N   UNL     1     -39.288  49.021 -52.254  1.00  0.00    -0.289 N 
HETATM   23  H   UNL     1     -39.027  48.066 -52.029  1.00  0.00     0.188 HD
HETATM   24  C   UNL     1     -39.540  50.053 -51.396  1.00  0.00     0.123 A 
ENDBRANCH   5  19
TORSDOF 4
ENDMDL
MODEL 8
REMARK VINA RESULT:      -6.9      3.985      5.037
REMARK  4 active torsions:
REMARK  status: ('A' for Active; 'I' for Inactive)
REMARK    1  A    between atoms: C_3  and  N_4 
REMARK       I    between atoms: N_4  and  C_5 
REMARK    2  A    between atoms: C_5  and  C_6 
REMARK    3  A    between atoms: C_7  and  C_8 
REMARK    4  A    between atoms: C_16  and  C_17 
ROOT
HETATM    1  C   UNL     1     -39.995  53.883 -50.038  1.00  0.00     0.003 A 
HETATM    2  C   UNL     1     -40.719  54.945 -50.582  1.00  0.00     0.029 A 
HETATM    3  C   UNL     1     -41.212  54.864 -51.884  1.00  0.00     0.035 A 
HETATM    4  C   UNL     1     -40.962  53.704 -52.635  1.00  0.00     0.042 A 
HETATM    5  C   UNL     1     -40.232  52.627 -52.104  1.00  0.00    -0.021 A 
HETATM    6  C   UNL     1     -39.755  52.732 -50.791  1.00  0.00     0.012 A 
ENDROOT
BRANCH   3   7
HETATM    7  N   UNL     1     -41.981  55.875 -52.497  1.00  0.00    -0.327 N 
HETATM    8  C   UNL     1     -43.227  56.331 -52.118  1.00  0.00     0.227 C 
HETATM    9  O   UNL     1     -43.870  55.998 -51.133  1.00  0.00    -0.273 OA
HETATM   10  H   UNL     1     -41.576  56.299 -53.320  1.00  0.00     0.169 HD
BRANCH   8  11
HETATM   11  C   UNL     1     -43.804  57.324 -53.074  1.00  0.00     0.089 A 
HETATM   12  C   UNL     1     -43.385  58.785 -52.996  1.00  0.00     0.057 A 
HETATM   13  C   UNL     1     -44.772  58.352 -52.571  1.00  0.00     0.027 A 
BRANCH  12  14
HETATM   14  C   UNL     1     -43.261  59.551 -54.300  1.00  0.00     0.057 A 
HETATM   15  O   UNL     1     -44.317  60.023 -55.021  1.00  0.00    -0.327 OA
HETATM   16  C   UNL     1     -43.804  60.659 -56.106  1.00  0.00     0.142 A 
HETATM   17  C   UNL     1     -42.431  60.597 -56.095  1.00  0.00     0.027 A 
HETATM   18  C   UNL     1     -42.078  59.878 -54.926  1.00  0.00     0.035 A 
ENDBRANCH  12  14
ENDBRANCH   8  11
ENDBRANCH   3   7
BRANCH   5  19
HETATM   19  C   UNL     1     -39.994  51.433 -52.908  1.00  0.00     0.010 A 
HETATM   20  C   UNL     1     -39.573  50.132 -52.533  1.00  0.00     0.152 A 
HETATM   21  N   UNL     1     -39.476  49.295 -53.570  1.00  0.00    -0.187 NA
HETATM   22  N   UNL     1     -39.831  50.054 -54.617  1.00  0.00    -0.289 N 
HETATM   23  H   UNL     1     -39.834  49.630 -55.540  1.00  0.00     0.188 HD
HETATM   24  C   UNL     1     -40.151  51.336 -54.275  1.00  0.00     0.123 A 
ENDBRANCH   5  19
TORSDOF 4
ENDMDL
MODEL 9
REMARK VINA RESULT:      -6.7     14.350     15.835
REMARK  4 active torsions:
REMARK  status: ('A' for Active; 'I' for Inactive)
REMARK    1  A    between atoms: C_3  and  N_4 
REMARK       I    between atoms: N_4  and  C_5 
REMARK    2  A    between atoms: C_5  and  C_6 
REMARK    3  A    between atoms: C_7  and  C_8 
REMARK    4  A    between atoms: C_16  and  C_17 
ROOT
HETATM    1  C   UNL     1     -37.189  39.160 -49.951  1.00  0.00     0.003 A 
HETATM    2  C   UNL     1     -37.324  39.714 -51.225  1.00  0.00     0.029 A 
HETATM    3  C   UNL     1     -36.199  40.148 -51.925  1.00  0.00     0.035 A 
HETATM    4  C   UNL     1     -34.935  40.025 -51.324  1.00  0.00     0.042 A 
HETATM    5  C   UNL     1     -34.782  39.473 -50.040  1.00  0.00    -0.021 A 
HETATM    6  C   UNL     1     -35.928  39.038 -49.363  1.00  0.00     0.012 A 
ENDROOT
BRANCH   3   7
HETATM    7  N   UNL     1     -36.244  40.685 -53.228  1.00  0.00    -0.327 N 
HETATM    8  C   UNL     1     -35.988  41.986 -53.610  1.00  0.00     0.227 C 
HETATM    9  O   UNL     1     -35.600  42.904 -52.902  1.00  0.00    -0.273 OA
HETATM   10  H   UNL     1     -36.513  40.043 -53.961  1.00  0.00     0.169 HD
BRANCH   8  11
HETATM   11  C   UNL     1     -36.256  42.234 -55.060  1.00  0.00     0.089 A 
HETATM   12  C   UNL     1     -35.778  41.234 -56.103  1.00  0.00     0.057 A 
HETATM   13  C   UNL     1     -35.118  42.590 -55.967  1.00  0.00     0.027 A 
BRANCH  12  14
HETATM   14  C   UNL     1     -36.662  41.006 -57.314  1.00  0.00     0.057 A 
HETATM   15  O   UNL     1     -37.608  40.028 -57.406  1.00  0.00    -0.327 OA
HETATM   16  C   UNL     1     -38.193  40.155 -58.625  1.00  0.00     0.142 A 
HETATM   17  C   UNL     1     -37.632  41.199 -59.321  1.00  0.00     0.027 A 
HETATM   18  C   UNL     1     -36.639  41.750 -58.473  1.00  0.00     0.035 A 
ENDBRANCH  12  14
ENDBRANCH   8  11
ENDBRANCH   3   7
BRANCH   5  19
HETATM   19  C   UNL     1     -33.455  39.355 -49.446  1.00  0.00     0.010 A 
HETATM   20  C   UNL     1     -32.218  39.941 -49.814  1.00  0.00     0.152 A 
HETATM   21  N   UNL     1     -31.212  39.593 -49.006  1.00  0.00    -0.187 NA
HETATM   22  N   UNL     1     -31.797  38.780 -48.115  1.00  0.00    -0.289 N 
HETATM   23  H   UNL     1     -31.222  38.377 -47.381  1.00  0.00     0.188 HD
HETATM   24  C   UNL     1     -33.133  38.607 -48.332  1.00  0.00     0.123 A 
ENDBRANCH   5  19
TORSDOF 4
ENDMDL
MODEL 10
REMARK VINA RESULT:      -6.7      3.466      5.132
REMARK  4 active torsions:
REMARK  status: ('A' for Active; 'I' for Inactive)
REMARK    1  A    between atoms: C_3  and  N_4 
REMARK       I    between atoms: N_4  and  C_5 
REMARK    2  A    between atoms: C_5  and  C_6 
REMARK    3  A    between atoms: C_7  and  C_8 
REMARK    4  A    between atoms: C_16  and  C_17 
ROOT
HETATM    1  C   UNL     1     -40.099  53.641 -49.831  1.00  0.00     0.003 A 
HETATM    2  C   UNL     1     -40.675  54.797 -50.359  1.00  0.00     0.029 A 
HETATM    3  C   UNL     1     -41.039  54.849 -51.704  1.00  0.00     0.035 A 
HETATM    4  C   UNL     1     -40.808  53.726 -52.515  1.00  0.00     0.042 A 
HETATM    5  C   UNL     1     -40.226  52.554 -52.000  1.00  0.00    -0.021 A 
HETATM    6  C   UNL     1     -39.878  52.527 -50.644  1.00  0.00     0.012 A 
ENDROOT
BRANCH   3   7
HETATM    7  N   UNL     1     -41.657  55.964 -52.308  1.00  0.00    -0.327 N 
HETATM    8  C   UNL     1     -41.369  56.523 -53.535  1.00  0.00     0.227 C 
HETATM    9  O   UNL     1     -40.572  56.114 -54.368  1.00  0.00    -0.273 OA
HETATM   10  H   UNL     1     -42.384  56.412 -51.767  1.00  0.00     0.169 HD
BRANCH   8  11
HETATM   11  C   UNL     1     -42.135  57.778 -53.803  1.00  0.00     0.089 A 
HETATM   12  C   UNL     1     -43.611  57.703 -54.168  1.00  0.00     0.057 A 
HETATM   13  C   UNL     1     -42.574  58.087 -55.202  1.00  0.00     0.027 A 
BRANCH  12  14
HETATM   14  C   UNL     1     -44.519  58.801 -53.648  1.00  0.00     0.057 A 
HETATM   15  O   UNL     1     -44.938  58.910 -52.355  1.00  0.00    -0.327 OA
HETATM   16  C   UNL     1     -45.718  60.019 -52.283  1.00  0.00     0.142 A 
HETATM   17  C   UNL     1     -45.812  60.622 -53.514  1.00  0.00     0.027 A 
HETATM   18  C   UNL     1     -45.038  59.833 -54.400  1.00  0.00     0.035 A 
ENDBRANCH  12  14
ENDBRANCH   8  11
ENDBRANCH   3   7
BRANCH   5  19
HETATM   19  C   UNL     1     -40.004  51.402 -52.867  1.00  0.00     0.010 A 
HETATM   20  C   UNL     1     -39.530  50.099 -52.573  1.00  0.00     0.152 A 
HETATM   21  N   UNL     1     -39.472  49.308 -53.649  1.00  0.00    -0.187 NA
HETATM   22  N   UNL     1     -39.907  50.099 -54.640  1.00  0.00    -0.289 N 
HETATM   23  H   UNL     1     -39.953  49.714 -55.578  1.00  0.00     0.188 HD
HETATM   24  C   UNL     1     -40.239  51.357 -54.226  1.00  0.00     0.123 A 
ENDBRANCH   5  19
TORSDOF 4
ENDMDL
