MODEL 1
REMARK VINA RESULT:      -8.4      0.000      0.000
REMARK  5 active torsions:
REMARK  status: ('A' for Active; 'I' for Inactive)
REMARK    1  A    between atoms: C_9  and  C_10 
REMARK    2  A    between atoms: C_13  and  O_14 
REMARK    3  A    between atoms: O_14  and  C_15 
REMARK    4  A    between atoms: C_20  and  C_21 
REMARK       I    between atoms: C_21  and  N_22 
REMARK    5  A    between atoms: N_22  and  C_23 
ROOT
HETATM    1  C   UNL     1     -40.637  56.329 -50.249  1.00  0.00     0.070 C 
HETATM    2  C   UNL     1     -41.796  56.760 -51.116  1.00  0.00     0.037 C 
HETATM    3  N   UNL     1     -42.231  58.072 -50.927  1.00  0.00    -0.192 N 
HETATM    4  C   UNL     1     -43.406  58.520 -51.413  1.00  0.00     0.725 A 
HETATM    5  N   UNL     1     -44.080  57.757 -52.325  1.00  0.00    -0.084 N 
HETATM    6  N   UNL     1     -45.281  58.291 -52.630  1.00  0.00    -0.149 NA
HETATM    7  C   UNL     1     -45.238  59.413 -51.900  1.00  0.00     0.275 A 
HETATM    8  N   UNL     1     -44.109  59.590 -51.141  1.00  0.00    -0.054 NA
HETATM    9  C   UNL     1     -43.562  56.505 -52.879  1.00  0.00     0.202 C 
HETATM   10  C   UNL     1     -42.418  55.961 -52.024  1.00  0.00     0.062 C 
HETATM   11  H   UNL     1     -41.815  58.585 -50.151  1.00  0.00     0.184 HD
ENDROOT
BRANCH   9  12
HETATM   12  C   UNL     1     -43.168  56.747 -54.340  1.00  0.00    -0.028 A 
HETATM   13  C   UNL     1     -42.741  58.005 -54.793  1.00  0.00     0.012 A 
HETATM   14  C   UNL     1     -42.408  58.202 -56.135  1.00  0.00     0.037 A 
HETATM   15  C   UNL     1     -42.504  57.159 -57.057  1.00  0.00     0.074 A 
HETATM   16  C   UNL     1     -42.946  55.909 -56.623  1.00  0.00     0.037 A 
HETATM   17  C   UNL     1     -43.274  55.705 -55.276  1.00  0.00     0.012 A 
BRANCH  15  18
HETATM   18  O   UNL     1     -42.165  57.503 -58.334  1.00  0.00    -0.290 OA
BRANCH  18  19
HETATM   19  C   UNL     1     -42.902  56.901 -59.384  1.00  0.00     0.505 C 
HETATM   20  F   UNL     1     -43.014  57.774 -60.413  1.00  0.00    -0.184 F 
HETATM   21  F   UNL     1     -42.173  55.852 -59.841  1.00  0.00    -0.184 F 
ENDBRANCH  18  19
ENDBRANCH  15  18
ENDBRANCH   9  12
BRANCH  10  22
HETATM   22  C   UNL     1     -42.158  54.488 -52.047  1.00  0.00     0.256 C 
HETATM   23  N   UNL     1     -41.017  54.112 -52.724  1.00  0.00    -0.323 N 
HETATM   24  H   UNL     1     -40.408  54.834 -53.083  1.00  0.00     0.169 HD
HETATM   25  O   UNL     1     -42.973  53.731 -51.533  1.00  0.00    -0.267 OA
BRANCH  23  26
HETATM   26  C   UNL     1     -40.580  52.795 -52.990  1.00  0.00     0.035 A 
HETATM   27  C   UNL     1     -40.759  52.138 -54.210  1.00  0.00     0.029 A 
HETATM   28  C   UNL     1     -40.284  50.836 -54.392  1.00  0.00     0.002 A 
HETATM   29  C   UNL     1     -39.617  50.180 -53.360  1.00  0.00     0.000 A 
HETATM   30  C   UNL     1     -39.432  50.824 -52.140  1.00  0.00     0.002 A 
HETATM   31  C   UNL     1     -39.918  52.121 -51.954  1.00  0.00     0.029 A 
ENDBRANCH  23  26
ENDBRANCH  10  22
TORSDOF 5
ENDMDL
MODEL 2
REMARK VINA RESULT:      -8.3      2.958      6.193
REMARK  5 active torsions:
REMARK  status: ('A' for Active; 'I' for Inactive)
REMARK    1  A    between atoms: C_9  and  C_10 
REMARK    2  A    between atoms: C_13  and  O_14 
REMARK    3  A    between atoms: O_14  and  C_15 
REMARK    4  A    between atoms: C_20  and  C_21 
REMARK       I    between atoms: C_21  and  N_22 
REMARK    5  A    between atoms: N_22  and  C_23 
ROOT
HETATM    1  C   UNL     1     -45.030  59.418 -53.919  1.00  0.00     0.070 C 
HETATM    2  C   UNL     1     -43.625  59.049 -53.508  1.00  0.00     0.037 C 
HETATM    3  N   UNL     1     -43.302  59.310 -52.176  1.00  0.00    -0.192 N 
HETATM    4  C   UNL     1     -42.032  59.297 -51.726  1.00  0.00     0.725 A 
HETATM    5  N   UNL     1     -41.052  58.772 -52.521  1.00  0.00    -0.084 N 
HETATM    6  N   UNL     1     -39.829  58.929 -51.975  1.00  0.00    -0.149 NA
HETATM    7  C   UNL     1     -40.157  59.512 -50.815  1.00  0.00     0.275 A 
HETATM    8  N   UNL     1     -41.494  59.755 -50.623  1.00  0.00    -0.054 NA
HETATM    9  C   UNL     1     -41.308  58.140 -53.816  1.00  0.00     0.202 C 
HETATM   10  C   UNL     1     -42.695  58.510 -54.340  1.00  0.00     0.062 C 
HETATM   11  H   UNL     1     -43.990  59.827 -51.631  1.00  0.00     0.184 HD
ENDROOT
BRANCH   9  12
HETATM   12  C   UNL     1     -41.097  56.629 -53.669  1.00  0.00    -0.028 A 
HETATM   13  C   UNL     1     -41.375  55.956 -52.469  1.00  0.00     0.012 A 
HETATM   14  C   UNL     1     -41.153  54.582 -52.356  1.00  0.00     0.037 A 
HETATM   15  C   UNL     1     -40.639  53.849 -53.426  1.00  0.00     0.074 A 
HETATM   16  C   UNL     1     -40.341  54.510 -54.618  1.00  0.00     0.037 A 
HETATM   17  C   UNL     1     -40.569  55.887 -54.738  1.00  0.00     0.012 A 
BRANCH  15  18
HETATM   18  O   UNL     1     -40.457  52.522 -53.166  1.00  0.00    -0.290 OA
BRANCH  18  19
HETATM   19  C   UNL     1     -40.110  51.689 -54.258  1.00  0.00     0.505 C 
HETATM   20  F   UNL     1     -39.020  50.952 -53.934  1.00  0.00    -0.184 F 
HETATM   21  F   UNL     1     -41.131  50.815 -54.442  1.00  0.00    -0.184 F 
ENDBRANCH  18  19
ENDBRANCH  15  18
ENDBRANCH   9  12
BRANCH  10  22
HETATM   22  C   UNL     1     -42.923  58.479 -55.819  1.00  0.00     0.256 C 
HETATM   23  N   UNL     1     -43.564  57.351 -56.283  1.00  0.00    -0.323 N 
HETATM   24  H   UNL     1     -43.898  56.674 -55.611  1.00  0.00     0.169 HD
HETATM   25  O   UNL     1     -42.490  59.397 -56.507  1.00  0.00    -0.267 OA
BRANCH  23  26
HETATM   26  C   UNL     1     -43.819  57.009 -57.631  1.00  0.00     0.035 A 
HETATM   27  C   UNL     1     -44.874  57.525 -58.387  1.00  0.00     0.029 A 
HETATM   28  C   UNL     1     -45.046  57.141 -59.720  1.00  0.00     0.002 A 
HETATM   29  C   UNL     1     -44.160  56.245 -60.314  1.00  0.00     0.000 A 
HETATM   30  C   UNL     1     -43.105  55.724 -59.570  1.00  0.00     0.002 A 
HETATM   31  C   UNL     1     -42.940  56.099 -58.234  1.00  0.00     0.029 A 
ENDBRANCH  23  26
ENDBRANCH  10  22
TORSDOF 5
ENDMDL
MODEL 3
REMARK VINA RESULT:      -8.3      3.079      6.740
REMARK  5 active torsions:
REMARK  status: ('A' for Active; 'I' for Inactive)
REMARK    1  A    between atoms: C_9  and  C_10 
REMARK    2  A    between atoms: C_13  and  O_14 
REMARK    3  A    between atoms: O_14  and  C_15 
REMARK    4  A    between atoms: C_20  and  C_21 
REMARK       I    between atoms: C_21  and  N_22 
REMARK    5  A    between atoms: N_22  and  C_23 
ROOT
HETATM    1  C   UNL     1     -45.180  57.917 -54.816  1.00  0.00     0.070 C 
HETATM    2  C   UNL     1     -43.843  57.685 -54.153  1.00  0.00     0.037 C 
HETATM    3  N   UNL     1     -43.804  57.935 -52.781  1.00  0.00    -0.192 N 
HETATM    4  C   UNL     1     -42.645  58.041 -52.101  1.00  0.00     0.725 A 
HETATM    5  N   UNL     1     -41.484  57.648 -52.704  1.00  0.00    -0.084 N 
HETATM    6  N   UNL     1     -40.407  57.915 -51.936  1.00  0.00    -0.149 NA
HETATM    7  C   UNL     1     -41.007  58.422 -50.851  1.00  0.00     0.275 A 
HETATM    8  N   UNL     1     -42.374  58.516 -50.911  1.00  0.00    -0.054 NA
HETATM    9  C   UNL     1     -41.424  57.035 -54.032  1.00  0.00     0.202 C 
HETATM   10  C   UNL     1     -42.722  57.274 -54.803  1.00  0.00     0.062 C 
HETATM   11  H   UNL     1     -44.633  58.359 -52.368  1.00  0.00     0.184 HD
ENDROOT
BRANCH   9  12
HETATM   12  C   UNL     1     -41.080  55.551 -53.867  1.00  0.00    -0.028 A 
HETATM   13  C   UNL     1     -41.345  54.858 -52.675  1.00  0.00     0.012 A 
HETATM   14  C   UNL     1     -41.001  53.511 -52.544  1.00  0.00     0.037 A 
HETATM   15  C   UNL     1     -40.376  52.827 -53.588  1.00  0.00     0.074 A 
HETATM   16  C   UNL     1     -40.091  53.510 -54.770  1.00  0.00     0.037 A 
HETATM   17  C   UNL     1     -40.440  54.859 -54.908  1.00  0.00     0.012 A 
BRANCH  15  18
HETATM   18  O   UNL     1     -40.083  51.523 -53.311  1.00  0.00    -0.290 OA
BRANCH  18  19
HETATM   19  C   UNL     1     -40.015  50.628 -54.408  1.00  0.00     0.505 C 
HETATM   20  F   UNL     1     -39.198  49.593 -54.095  1.00  0.00    -0.184 F 
HETATM   21  F   UNL     1     -41.255  50.105 -54.582  1.00  0.00    -0.184 F 
ENDBRANCH  18  19
ENDBRANCH  15  18
ENDBRANCH   9  12
BRANCH  10  22
HETATM   22  C   UNL     1     -42.667  57.268 -56.297  1.00  0.00     0.256 C 
HETATM   23  N   UNL     1     -42.141  58.410 -56.862  1.00  0.00    -0.323 N 
HETATM   24  H   UNL     1     -41.767  59.123 -56.251  1.00  0.00     0.169 HD
HETATM   25  O   UNL     1     -43.128  56.310 -56.907  1.00  0.00    -0.267 OA
BRANCH  23  26
HETATM   26  C   UNL     1     -42.059  58.721 -58.239  1.00  0.00     0.035 A 
HETATM   27  C   UNL     1     -41.950  57.768 -59.254  1.00  0.00     0.029 A 
HETATM   28  C   UNL     1     -41.886  58.163 -60.594  1.00  0.00     0.002 A 
HETATM   29  C   UNL     1     -41.942  59.513 -60.933  1.00  0.00     0.000 A 
HETATM   30  C   UNL     1     -42.051  60.471 -59.929  1.00  0.00     0.002 A 
HETATM   31  C   UNL     1     -42.102  60.078 -58.589  1.00  0.00     0.029 A 
ENDBRANCH  23  26
ENDBRANCH  10  22
TORSDOF 5
ENDMDL
MODEL 4
REMARK VINA RESULT:      -7.6      3.677      7.246
REMARK  5 active torsions:
REMARK  status: ('A' for Active; 'I' for Inactive)
REMARK    1  A    between atoms: C_9  and  C_10 
REMARK    2  A    between atoms: C_13  and  O_14 
REMARK    3  A    between atoms: O_14  and  C_15 
REMARK    4  A    between atoms: C_20  and  C_21 
REMARK       I    between atoms: C_21  and  N_22 
REMARK    5  A    between atoms: N_22  and  C_23 
ROOT
HETATM    1  C   UNL     1     -41.748  60.216 -57.103  1.00  0.00     0.070 C 
HETATM    2  C   UNL     1     -42.282  58.815 -57.279  1.00  0.00     0.037 C 
HETATM    3  N   UNL     1     -41.888  58.166 -58.450  1.00  0.00    -0.192 N 
HETATM    4  C   UNL     1     -42.486  57.039 -58.885  1.00  0.00     0.725 A 
HETATM    5  N   UNL     1     -43.327  56.367 -58.044  1.00  0.00    -0.084 N 
HETATM    6  N   UNL     1     -43.923  55.326 -58.661  1.00  0.00    -0.149 NA
HETATM    7  C   UNL     1     -43.344  55.399 -59.867  1.00  0.00     0.275 A 
HETATM    8  N   UNL     1     -42.459  56.432 -60.045  1.00  0.00    -0.054 NA
HETATM    9  C   UNL     1     -43.563  56.753 -56.651  1.00  0.00     0.202 C 
HETATM   10  C   UNL     1     -43.104  58.188 -56.396  1.00  0.00     0.062 C 
HETATM   11  H   UNL     1     -41.377  58.723 -59.133  1.00  0.00     0.184 HD
ENDROOT
BRANCH   9  12
HETATM   12  C   UNL     1     -42.882  55.726 -55.741  1.00  0.00    -0.028 A 
HETATM   13  C   UNL     1     -41.590  55.244 -56.006  1.00  0.00     0.012 A 
HETATM   14  C   UNL     1     -41.001  54.291 -55.170  1.00  0.00     0.037 A 
HETATM   15  C   UNL     1     -41.686  53.789 -54.063  1.00  0.00     0.074 A 
HETATM   16  C   UNL     1     -42.977  54.246 -53.801  1.00  0.00     0.037 A 
HETATM   17  C   UNL     1     -43.569  55.206 -54.632  1.00  0.00     0.012 A 
BRANCH  15  18
HETATM   18  O   UNL     1     -40.995  52.852 -53.350  1.00  0.00    -0.290 OA
BRANCH  18  19
HETATM   19  C   UNL     1     -40.185  51.949 -54.083  1.00  0.00     0.505 C 
HETATM   20  F   UNL     1     -39.227  51.442 -53.269  1.00  0.00    -0.184 F 
HETATM   21  F   UNL     1     -40.972  50.908 -54.453  1.00  0.00    -0.184 F 
ENDBRANCH  18  19
ENDBRANCH  15  18
ENDBRANCH   9  12
BRANCH  10  22
HETATM   22  C   UNL     1     -43.756  58.951 -55.288  1.00  0.00     0.256 C 
HETATM   23  N   UNL     1     -43.151  58.816 -54.057  1.00  0.00    -0.323 N 
HETATM   24  H   UNL     1     -42.291  58.290 -53.997  1.00  0.00     0.169 HD
HETATM   25  O   UNL     1     -44.783  59.580 -55.521  1.00  0.00    -0.267 OA
BRANCH  23  26
HETATM   26  C   UNL     1     -43.604  59.337 -52.823  1.00  0.00     0.035 A 
HETATM   27  C   UNL     1     -43.159  60.538 -52.266  1.00  0.00     0.029 A 
HETATM   28  C   UNL     1     -43.669  60.985 -51.043  1.00  0.00     0.002 A 
HETATM   29  C   UNL     1     -44.636  60.243 -50.371  1.00  0.00     0.000 A 
HETATM   30  C   UNL     1     -45.087  59.044 -50.917  1.00  0.00     0.002 A 
HETATM   31  C   UNL     1     -44.569  58.590 -52.132  1.00  0.00     0.029 A 
ENDBRANCH  23  26
ENDBRANCH  10  22
TORSDOF 5
ENDMDL
MODEL 5
REMARK VINA RESULT:      -7.4      4.012      5.679
REMARK  5 active torsions:
REMARK  status: ('A' for Active; 'I' for Inactive)
REMARK    1  A    between atoms: C_9  and  C_10 
REMARK    2  A    between atoms: C_13  and  O_14 
REMARK    3  A    between atoms: O_14  and  C_15 
REMARK    4  A    between atoms: C_20  and  C_21 
REMARK       I    between atoms: C_21  and  N_22 
REMARK    5  A    between atoms: N_22  and  C_23 
ROOT
HETATM    1  C   UNL     1     -43.538  54.577 -56.017  1.00  0.00     0.070 C 
HETATM    2  C   UNL     1     -43.124  55.922 -55.468  1.00  0.00     0.037 C 
HETATM    3  N   UNL     1     -43.262  56.996 -56.347  1.00  0.00    -0.192 N 
HETATM    4  C   UNL     1     -42.691  58.195 -56.114  1.00  0.00     0.725 A 
HETATM    5  N   UNL     1     -42.176  58.455 -54.876  1.00  0.00    -0.084 N 
HETATM    6  N   UNL     1     -41.550  59.650 -54.837  1.00  0.00    -0.149 NA
HETATM    7  C   UNL     1     -41.780  60.082 -56.083  1.00  0.00     0.275 A 
HETATM    8  N   UNL     1     -42.474  59.222 -56.897  1.00  0.00    -0.054 NA
HETATM    9  C   UNL     1     -42.276  57.533 -53.743  1.00  0.00     0.202 C 
HETATM   10  C   UNL     1     -42.634  56.124 -54.216  1.00  0.00     0.062 C 
HETATM   11  H   UNL     1     -43.514  56.773 -57.308  1.00  0.00     0.184 HD
ENDROOT
BRANCH   9  12
HETATM   12  C   UNL     1     -43.275  58.108 -52.735  1.00  0.00    -0.028 A 
HETATM   13  C   UNL     1     -42.904  59.088 -51.801  1.00  0.00     0.012 A 
HETATM   14  C   UNL     1     -43.831  59.580 -50.879  1.00  0.00     0.037 A 
HETATM   15  C   UNL     1     -45.141  59.101 -50.856  1.00  0.00     0.074 A 
HETATM   16  C   UNL     1     -45.517  58.113 -51.766  1.00  0.00     0.037 A 
HETATM   17  C   UNL     1     -44.592  57.621 -52.697  1.00  0.00     0.012 A 
BRANCH  15  18
HETATM   18  O   UNL     1     -45.928  59.659 -49.890  1.00  0.00    -0.290 OA
BRANCH  18  19
HETATM   19  C   UNL     1     -45.447  60.834 -49.262  1.00  0.00     0.505 C 
HETATM   20  F   UNL     1     -46.290  61.862 -49.525  1.00  0.00    -0.184 F 
HETATM   21  F   UNL     1     -45.494  60.625 -47.922  1.00  0.00    -0.184 F 
ENDBRANCH  18  19
ENDBRANCH  15  18
ENDBRANCH   9  12
BRANCH  10  22
HETATM   22  C   UNL     1     -42.220  54.967 -53.363  1.00  0.00     0.256 C 
HETATM   23  N   UNL     1     -41.050  54.351 -53.751  1.00  0.00    -0.323 N 
HETATM   24  H   UNL     1     -40.522  54.753 -54.513  1.00  0.00     0.169 HD
HETATM   25  O   UNL     1     -42.949  54.615 -52.442  1.00  0.00    -0.267 OA
BRANCH  23  26
HETATM   26  C   UNL     1     -40.477  53.183 -53.197  1.00  0.00     0.035 A 
HETATM   27  C   UNL     1     -40.115  53.046 -51.855  1.00  0.00     0.029 A 
HETATM   28  C   UNL     1     -39.564  51.848 -51.388  1.00  0.00     0.002 A 
HETATM   29  C   UNL     1     -39.379  50.774 -52.255  1.00  0.00     0.000 A 
HETATM   30  C   UNL     1     -39.737  50.899 -53.594  1.00  0.00     0.002 A 
HETATM   31  C   UNL     1     -40.276  52.100 -54.064  1.00  0.00     0.029 A 
ENDBRANCH  23  26
ENDBRANCH  10  22
TORSDOF 5
ENDMDL
MODEL 6
REMARK VINA RESULT:      -7.4      4.067      5.621
REMARK  5 active torsions:
REMARK  status: ('A' for Active; 'I' for Inactive)
REMARK    1  A    between atoms: C_9  and  C_10 
REMARK    2  A    between atoms: C_13  and  O_14 
REMARK    3  A    between atoms: O_14  and  C_15 
REMARK    4  A    between atoms: C_20  and  C_21 
REMARK       I    between atoms: C_21  and  N_22 
REMARK    5  A    between atoms: N_22  and  C_23 
ROOT
HETATM    1  C   UNL     1     -43.561  54.093 -55.970  1.00  0.00     0.070 C 
HETATM    2  C   UNL     1     -43.059  55.517 -55.933  1.00  0.00     0.037 C 
HETATM    3  N   UNL     1     -43.809  56.436 -56.667  1.00  0.00    -0.192 N 
HETATM    4  C   UNL     1     -43.352  57.670 -56.958  1.00  0.00     0.725 A 
HETATM    5  N   UNL     1     -42.239  58.134 -56.315  1.00  0.00    -0.084 N 
HETATM    6  N   UNL     1     -41.852  59.335 -56.793  1.00  0.00    -0.149 NA
HETATM    7  C   UNL     1     -42.819  59.559 -57.691  1.00  0.00     0.275 A 
HETATM    8  N   UNL     1     -43.756  58.566 -57.824  1.00  0.00    -0.054 NA
HETATM    9  C   UNL     1     -41.547  57.399 -55.255  1.00  0.00     0.202 C 
HETATM   10  C   UNL     1     -41.952  55.926 -55.258  1.00  0.00     0.062 C 
HETATM   11  H   UNL     1     -44.552  56.057 -57.252  1.00  0.00     0.184 HD
ENDROOT
BRANCH   9  12
HETATM   12  C   UNL     1     -41.818  58.102 -53.921  1.00  0.00    -0.028 A 
HETATM   13  C   UNL     1     -40.803  58.766 -53.215  1.00  0.00     0.012 A 
HETATM   14  C   UNL     1     -41.073  59.381 -51.990  1.00  0.00     0.037 A 
HETATM   15  C   UNL     1     -42.352  59.338 -51.434  1.00  0.00     0.074 A 
HETATM   16  C   UNL     1     -43.365  58.664 -52.117  1.00  0.00     0.037 A 
HETATM   17  C   UNL     1     -43.100  58.052 -53.349  1.00  0.00     0.012 A 
BRANCH  15  18
HETATM   18  O   UNL     1     -42.463  59.964 -50.226  1.00  0.00    -0.290 OA
BRANCH  18  19
HETATM   19  C   UNL     1     -43.237  61.150 -50.181  1.00  0.00     0.505 C 
HETATM   20  F   UNL     1     -43.843  61.246 -48.973  1.00  0.00    -0.184 F 
HETATM   21  F   UNL     1     -42.379  62.197 -50.271  1.00  0.00    -0.184 F 
ENDBRANCH  18  19
ENDBRANCH  15  18
ENDBRANCH   9  12
BRANCH  10  22
HETATM   22  C   UNL     1     -40.987  54.928 -54.701  1.00  0.00     0.256 C 
HETATM   23  N   UNL     1     -41.523  54.058 -53.775  1.00  0.00    -0.323 N 
HETATM   24  H   UNL     1     -42.516  54.097 -53.594  1.00  0.00     0.169 HD
HETATM   25  O   UNL     1     -39.811  54.979 -55.045  1.00  0.00    -0.267 OA
BRANCH  23  26
HETATM   26  C   UNL     1     -40.830  53.086 -53.018  1.00  0.00     0.035 A 
HETATM   27  C   UNL     1     -40.648  53.150 -51.635  1.00  0.00     0.029 A 
HETATM   28  C   UNL     1     -39.958  52.137 -50.962  1.00  0.00     0.002 A 
HETATM   29  C   UNL     1     -39.452  51.045 -51.663  1.00  0.00     0.000 A 
HETATM   30  C   UNL     1     -39.627  50.971 -53.042  1.00  0.00     0.002 A 
HETATM   31  C   UNL     1     -40.306  51.989 -53.717  1.00  0.00     0.029 A 
ENDBRANCH  23  26
ENDBRANCH  10  22
TORSDOF 5
ENDMDL
MODEL 7
REMARK VINA RESULT:      -7.4      3.688      6.226
REMARK  5 active torsions:
REMARK  status: ('A' for Active; 'I' for Inactive)
REMARK    1  A    between atoms: C_9  and  C_10 
REMARK    2  A    between atoms: C_13  and  O_14 
REMARK    3  A    between atoms: O_14  and  C_15 
REMARK    4  A    between atoms: C_20  and  C_21 
REMARK       I    between atoms: C_21  and  N_22 
REMARK    5  A    between atoms: N_22  and  C_23 
ROOT
HETATM    1  C   UNL     1     -40.185  53.581 -55.145  1.00  0.00     0.070 C 
HETATM    2  C   UNL     1     -41.000  54.251 -54.065  1.00  0.00     0.037 C 
HETATM    3  N   UNL     1     -40.501  54.119 -52.769  1.00  0.00    -0.192 N 
HETATM    4  C   UNL     1     -41.238  54.415 -51.680  1.00  0.00     0.725 A 
HETATM    5  N   UNL     1     -42.410  55.099 -51.838  1.00  0.00    -0.084 N 
HETATM    6  N   UNL     1     -43.076  55.223 -50.672  1.00  0.00    -0.149 NA
HETATM    7  C   UNL     1     -42.211  54.634 -49.837  1.00  0.00     0.275 A 
HETATM    8  N   UNL     1     -41.074  54.126 -50.413  1.00  0.00    -0.054 NA
HETATM    9  C   UNL     1     -42.886  55.610 -53.125  1.00  0.00     0.202 C 
HETATM   10  C   UNL     1     -42.153  54.937 -54.285  1.00  0.00     0.062 C 
HETATM   11  H   UNL     1     -39.707  53.493 -52.645  1.00  0.00     0.184 HD
ENDROOT
BRANCH   9  12
HETATM   12  C   UNL     1     -42.749  57.136 -53.122  1.00  0.00    -0.028 A 
HETATM   13  C   UNL     1     -43.864  57.978 -52.983  1.00  0.00     0.012 A 
HETATM   14  C   UNL     1     -43.712  59.367 -53.006  1.00  0.00     0.037 A 
HETATM   15  C   UNL     1     -42.456  59.948 -53.179  1.00  0.00     0.074 A 
HETATM   16  C   UNL     1     -41.344  59.121 -53.338  1.00  0.00     0.037 A 
HETATM   17  C   UNL     1     -41.490  57.727 -53.309  1.00  0.00     0.012 A 
BRANCH  15  18
HETATM   18  O   UNL     1     -42.463  61.312 -53.199  1.00  0.00    -0.290 OA
BRANCH  18  19
HETATM   19  C   UNL     1     -43.221  61.970 -52.199  1.00  0.00     0.505 C 
HETATM   20  F   UNL     1     -42.607  61.824 -51.000  1.00  0.00    -0.184 F 
HETATM   21  F   UNL     1     -43.205  63.296 -52.485  1.00  0.00    -0.184 F 
ENDBRANCH  18  19
ENDBRANCH  15  18
ENDBRANCH   9  12
BRANCH  10  22
HETATM   22  C   UNL     1     -42.847  54.858 -55.607  1.00  0.00     0.256 C 
HETATM   23  N   UNL     1     -42.667  55.955 -56.422  1.00  0.00    -0.323 N 
HETATM   24  H   UNL     1     -42.038  56.685 -56.119  1.00  0.00     0.169 HD
HETATM   25  O   UNL     1     -43.552  53.885 -55.853  1.00  0.00    -0.267 OA
BRANCH  23  26
HETATM   26  C   UNL     1     -43.279  56.196 -57.674  1.00  0.00     0.035 A 
HETATM   27  C   UNL     1     -43.110  55.388 -58.800  1.00  0.00     0.029 A 
HETATM   28  C   UNL     1     -43.763  55.694 -59.998  1.00  0.00     0.002 A 
HETATM   29  C   UNL     1     -44.600  56.805 -60.079  1.00  0.00     0.000 A 
HETATM   30  C   UNL     1     -44.776  57.617 -58.962  1.00  0.00     0.002 A 
HETATM   31  C   UNL     1     -44.114  57.318 -57.769  1.00  0.00     0.029 A 
ENDBRANCH  23  26
ENDBRANCH  10  22
TORSDOF 5
ENDMDL
MODEL 8
REMARK VINA RESULT:      -7.4      4.074      5.847
REMARK  5 active torsions:
REMARK  status: ('A' for Active; 'I' for Inactive)
REMARK    1  A    between atoms: C_9  and  C_10 
REMARK    2  A    between atoms: C_13  and  O_14 
REMARK    3  A    between atoms: O_14  and  C_15 
REMARK    4  A    between atoms: C_20  and  C_21 
REMARK       I    between atoms: C_21  and  N_22 
REMARK    5  A    between atoms: N_22  and  C_23 
ROOT
HETATM    1  C   UNL     1     -43.246  53.931 -55.665  1.00  0.00     0.070 C 
HETATM    2  C   UNL     1     -42.994  55.417 -55.757  1.00  0.00     0.037 C 
HETATM    3  N   UNL     1     -43.541  56.050 -56.874  1.00  0.00    -0.192 N 
HETATM    4  C   UNL     1     -43.183  57.295 -57.244  1.00  0.00     0.725 A 
HETATM    5  N   UNL     1     -42.461  58.063 -56.375  1.00  0.00    -0.084 N 
HETATM    6  N   UNL     1     -42.094  59.236 -56.932  1.00  0.00    -0.149 NA
HETATM    7  C   UNL     1     -42.685  59.128 -58.129  1.00  0.00     0.275 A 
HETATM    8  N   UNL     1     -43.360  57.957 -58.360  1.00  0.00    -0.054 NA
HETATM    9  C   UNL     1     -42.113  57.645 -55.016  1.00  0.00     0.202 C 
HETATM   10  C   UNL     1     -42.281  56.135 -54.849  1.00  0.00     0.062 C 
HETATM   11  H   UNL     1     -43.956  55.448 -57.584  1.00  0.00     0.184 HD
ENDROOT
BRANCH   9  12
HETATM   12  C   UNL     1     -42.950  58.463 -54.026  1.00  0.00    -0.028 A 
HETATM   13  C   UNL     1     -44.348  58.536 -54.124  1.00  0.00     0.012 A 
HETATM   14  C   UNL     1     -45.085  59.306 -53.221  1.00  0.00     0.037 A 
HETATM   15  C   UNL     1     -44.449  60.029 -52.212  1.00  0.00     0.074 A 
HETATM   16  C   UNL     1     -43.058  59.979 -52.116  1.00  0.00     0.037 A 
HETATM   17  C   UNL     1     -42.316  59.203 -53.015  1.00  0.00     0.012 A 
BRANCH  15  18
HETATM   18  O   UNL     1     -45.292  60.750 -51.417  1.00  0.00    -0.290 OA
BRANCH  18  19
HETATM   19  C   UNL     1     -45.566  60.233 -50.126  1.00  0.00     0.505 C 
HETATM   20  F   UNL     1     -45.444  58.884 -50.147  1.00  0.00    -0.184 F 
HETATM   21  F   UNL     1     -44.602  60.698 -49.291  1.00  0.00    -0.184 F 
ENDBRANCH  18  19
ENDBRANCH  15  18
ENDBRANCH   9  12
BRANCH  10  22
HETATM   22  C   UNL     1     -41.461  55.444 -53.806  1.00  0.00     0.256 C 
HETATM   23  N   UNL     1     -42.103  55.246 -52.603  1.00  0.00    -0.323 N 
HETATM   24  H   UNL     1     -43.078  55.501 -52.527  1.00  0.00     0.169 HD
HETATM   25  O   UNL     1     -40.295  55.160 -54.056  1.00  0.00    -0.267 OA
BRANCH  23  26
HETATM   26  C   UNL     1     -41.546  54.714 -51.417  1.00  0.00     0.035 A 
HETATM   27  C   UNL     1     -40.939  53.460 -51.328  1.00  0.00     0.029 A 
HETATM   28  C   UNL     1     -40.402  53.016 -50.115  1.00  0.00     0.002 A 
HETATM   29  C   UNL     1     -40.457  53.825 -48.983  1.00  0.00     0.000 A 
HETATM   30  C   UNL     1     -41.060  55.078 -49.061  1.00  0.00     0.002 A 
HETATM   31  C   UNL     1     -41.607  55.516 -50.269  1.00  0.00     0.029 A 
ENDBRANCH  23  26
ENDBRANCH  10  22
TORSDOF 5
ENDMDL
MODEL 9
REMARK VINA RESULT:      -7.1      4.295      8.182
REMARK  5 active torsions:
REMARK  status: ('A' for Active; 'I' for Inactive)
REMARK    1  A    between atoms: C_9  and  C_10 
REMARK    2  A    between atoms: C_13  and  O_14 
REMARK    3  A    between atoms: O_14  and  C_15 
REMARK    4  A    between atoms: C_20  and  C_21 
REMARK       I    between atoms: C_21  and  N_22 
REMARK    5  A    between atoms: N_22  and  C_23 
ROOT
HETATM    1  C   UNL     1     -42.429  60.736 -54.115  1.00  0.00     0.070 C 
HETATM    2  C   UNL     1     -42.725  59.265 -53.945  1.00  0.00     0.037 C 
HETATM    3  N   UNL     1     -42.139  58.422 -54.889  1.00  0.00    -0.192 N 
HETATM    4  C   UNL     1     -42.517  57.138 -55.043  1.00  0.00     0.725 A 
HETATM    5  N   UNL     1     -43.314  56.563 -54.093  1.00  0.00    -0.084 N 
HETATM    6  N   UNL     1     -43.688  55.316 -54.444  1.00  0.00    -0.149 NA
HETATM    7  C   UNL     1     -43.028  55.184 -55.601  1.00  0.00     0.275 A 
HETATM    8  N   UNL     1     -42.300  56.275 -56.004  1.00  0.00    -0.054 NA
HETATM    9  C   UNL     1     -43.723  57.237 -52.859  1.00  0.00     0.202 C 
HETATM   10  C   UNL     1     -43.513  58.747 -52.965  1.00  0.00     0.062 C 
HETATM   11  H   UNL     1     -41.663  58.871 -55.671  1.00  0.00     0.184 HD
ENDROOT
BRANCH   9  12
HETATM   12  C   UNL     1     -42.972  56.600 -51.685  1.00  0.00    -0.028 A 
HETATM   13  C   UNL     1     -43.490  55.499 -50.985  1.00  0.00     0.012 A 
HETATM   14  C   UNL     1     -42.794  54.951 -49.905  1.00  0.00     0.037 A 
HETATM   15  C   UNL     1     -41.576  55.491 -49.490  1.00  0.00     0.074 A 
HETATM   16  C   UNL     1     -41.060  56.597 -50.166  1.00  0.00     0.037 A 
HETATM   17  C   UNL     1     -41.752  57.146 -51.254  1.00  0.00     0.012 A 
BRANCH  15  18
HETATM   18  O   UNL     1     -41.020  54.866 -48.412  1.00  0.00    -0.290 OA
BRANCH  18  19
HETATM   19  C   UNL     1     -40.031  53.885 -48.672  1.00  0.00     0.505 C 
HETATM   20  F   UNL     1     -40.582  52.866 -49.376  1.00  0.00    -0.184 F 
HETATM   21  F   UNL     1     -39.098  54.453 -49.476  1.00  0.00    -0.184 F 
ENDBRANCH  18  19
ENDBRANCH  15  18
ENDBRANCH   9  12
BRANCH  10  22
HETATM   22  C   UNL     1     -44.366  59.640 -52.122  1.00  0.00     0.256 C 
HETATM   23  N   UNL     1     -43.725  60.196 -51.036  1.00  0.00    -0.323 N 
HETATM   24  H   UNL     1     -42.734  60.034 -50.924  1.00  0.00     0.169 HD
HETATM   25  O   UNL     1     -45.552  59.771 -52.403  1.00  0.00    -0.267 OA
BRANCH  23  26
HETATM   26  C   UNL     1     -44.303  60.991 -50.020  1.00  0.00     0.035 A 
HETATM   27  C   UNL     1     -45.291  60.545 -49.139  1.00  0.00     0.029 A 
HETATM   28  C   UNL     1     -45.801  61.396 -48.154  1.00  0.00     0.002 A 
HETATM   29  C   UNL     1     -45.322  62.698 -48.033  1.00  0.00     0.000 A 
HETATM   30  C   UNL     1     -44.338  63.154 -48.905  1.00  0.00     0.002 A 
HETATM   31  C   UNL     1     -43.837  62.308 -49.898  1.00  0.00     0.029 A 
ENDBRANCH  23  26
ENDBRANCH  10  22
TORSDOF 5
ENDMDL
MODEL 10
REMARK VINA RESULT:      -7.0      2.038      6.078
REMARK  5 active torsions:
REMARK  status: ('A' for Active; 'I' for Inactive)
REMARK    1  A    between atoms: C_9  and  C_10 
REMARK    2  A    between atoms: C_13  and  O_14 
REMARK    3  A    between atoms: O_14  and  C_15 
REMARK    4  A    between atoms: C_20  and  C_21 
REMARK       I    between atoms: C_21  and  N_22 
REMARK    5  A    between atoms: N_22  and  C_23 
ROOT
HETATM    1  C   UNL     1     -43.209  55.563 -50.677  1.00  0.00     0.070 C 
HETATM    2  C   UNL     1     -42.426  55.260 -51.932  1.00  0.00     0.037 C 
HETATM    3  N   UNL     1     -42.260  53.905 -52.223  1.00  0.00    -0.192 N 
HETATM    4  C   UNL     1     -41.372  53.468 -53.137  1.00  0.00     0.725 A 
HETATM    5  N   UNL     1     -40.793  54.371 -53.985  1.00  0.00    -0.084 N 
HETATM    6  N   UNL     1     -39.855  53.793 -54.763  1.00  0.00    -0.149 NA
HETATM    7  C   UNL     1     -39.962  52.519 -54.364  1.00  0.00     0.275 A 
HETATM    8  N   UNL     1     -40.878  52.278 -53.371  1.00  0.00    -0.054 NA
HETATM    9  C   UNL     1     -41.142  55.792 -54.020  1.00  0.00     0.202 C 
HETATM   10  C   UNL     1     -41.889  56.203 -52.751  1.00  0.00     0.062 C 
HETATM   11  H   UNL     1     -42.574  53.243 -51.515  1.00  0.00     0.184 HD
ENDROOT
BRANCH   9  12
HETATM   12  C   UNL     1     -41.929  56.067 -55.305  1.00  0.00    -0.028 A 
HETATM   13  C   UNL     1     -42.563  55.039 -56.019  1.00  0.00     0.012 A 
HETATM   14  C   UNL     1     -43.257  55.315 -57.200  1.00  0.00     0.037 A 
HETATM   15  C   UNL     1     -43.325  56.615 -57.702  1.00  0.00     0.074 A 
HETATM   16  C   UNL     1     -42.683  57.643 -57.012  1.00  0.00     0.037 A 
HETATM   17  C   UNL     1     -41.992  57.371 -55.824  1.00  0.00     0.012 A 
BRANCH  15  18
HETATM   18  O   UNL     1     -44.019  56.732 -58.872  1.00  0.00    -0.290 OA
BRANCH  18  19
HETATM   19  C   UNL     1     -43.670  55.848 -59.923  1.00  0.00     0.505 C 
HETATM   20  F   UNL     1     -44.368  56.175 -61.037  1.00  0.00    -0.184 F 
HETATM   21  F   UNL     1     -42.360  56.057 -60.210  1.00  0.00    -0.184 F 
ENDBRANCH  18  19
ENDBRANCH  15  18
ENDBRANCH   9  12
BRANCH  10  22
HETATM   22  C   UNL     1     -41.814  57.633 -52.320  1.00  0.00     0.256 C 
HETATM   23  N   UNL     1     -42.924  58.389 -52.627  1.00  0.00    -0.323 N 
HETATM   24  H   UNL     1     -43.723  57.930 -53.041  1.00  0.00     0.169 HD
HETATM   25  O   UNL     1     -40.786  58.043 -51.792  1.00  0.00    -0.267 OA
BRANCH  23  26
HETATM   26  C   UNL     1     -43.089  59.780 -52.432  1.00  0.00     0.035 A 
HETATM   27  C   UNL     1     -43.436  60.367 -51.213  1.00  0.00     0.029 A 
HETATM   28  C   UNL     1     -43.568  61.755 -51.105  1.00  0.00     0.002 A 
HETATM   29  C   UNL     1     -43.343  62.570 -52.211  1.00  0.00     0.000 A 
HETATM   30  C   UNL     1     -42.995  61.996 -53.431  1.00  0.00     0.002 A 
HETATM   31  C   UNL     1     -42.877  60.609 -53.542  1.00  0.00     0.029 A 
ENDBRANCH  23  26
ENDBRANCH  10  22
TORSDOF 5
ENDMDL
