MODEL 1
REMARK VINA RESULT:      -8.4      0.000      0.000
REMARK  3 active torsions:
REMARK  status: ('A' for Active; 'I' for Inactive)
REMARK    1  A    between atoms: C_9  and  C_10 
REMARK       I    between atoms: C_10  and  N_11 
REMARK    2  A    between atoms: N_11  and  C_12 
REMARK    3  A    between atoms: C_13  and  O_14 
ROOT
HETATM    1  C   UNL     1     -42.650  57.697 -56.098  1.00  0.00     0.268 C 
HETATM    2  N   UNL     1     -43.841  57.377 -56.694  1.00  0.00    -0.344 N 
HETATM    3  O   UNL     1     -42.114  58.789 -56.277  1.00  0.00    -0.266 OA
HETATM    4  H   UNL     1     -44.289  56.498 -56.481  1.00  0.00     0.163 HD
ENDROOT
BRANCH   1   5
HETATM    5  C   UNL     1     -42.067  56.665 -55.275  1.00  0.00     0.102 A 
HETATM    6  N   UNL     1     -41.448  55.567 -55.829  1.00  0.00    -0.351 N 
HETATM    7  C   UNL     1     -41.047  54.680 -54.858  1.00  0.00     0.043 A 
HETATM    8  H   UNL     1     -41.346  55.425 -56.825  1.00  0.00     0.166 HD
HETATM    9  C   UNL     1     -41.364  55.243 -53.625  1.00  0.00    -0.001 A 
HETATM   10  C   UNL     1     -40.434  53.434 -54.988  1.00  0.00     0.031 A 
HETATM   11  C   UNL     1     -41.053  54.540 -52.430  1.00  0.00    -0.043 A 
HETATM   12  C   UNL     1     -41.992  56.496 -53.904  1.00  0.00     0.049 A 
HETATM   13  C   UNL     1     -40.458  53.255 -52.552  1.00  0.00    -0.055 A 
HETATM   14  C   UNL     1     -41.365  55.104 -51.068  1.00  0.00     0.049 C 
HETATM   15  C   UNL     1     -40.121  52.437 -51.332  1.00  0.00     0.049 C 
HETATM   16  C   UNL     1     -40.151  52.733 -53.817  1.00  0.00     0.009 A 
ENDBRANCH   1   5
BRANCH   2  17
HETATM   17  C   UNL     1     -44.465  58.243 -57.672  1.00  0.00     0.147 C 
HETATM   18  C   UNL     1     -45.794  58.916 -57.202  1.00  0.00     0.149 C 
HETATM   19  C   UNL     1     -46.935  57.976 -57.640  1.00  0.00     0.073 C 
HETATM   20  C   UNL     1     -46.332  57.283 -58.823  1.00  0.00    -0.047 A 
HETATM   21  C   UNL     1     -44.942  57.437 -58.846  1.00  0.00    -0.027 A 
HETATM   22  C   UNL     1     -46.981  56.527 -59.784  1.00  0.00     0.008 A 
HETATM   23  C   UNL     1     -44.173  56.837 -59.832  1.00  0.00     0.010 A 
HETATM   24  C   UNL     1     -44.820  56.082 -60.811  1.00  0.00     0.001 A 
HETATM   25  C   UNL     1     -46.215  55.928 -60.786  1.00  0.00     0.001 A 
BRANCH  18  26
HETATM   26  O   UNL     1     -45.868  59.175 -55.804  1.00  0.00    -0.393 OA
HETATM   27  H   UNL     1     -45.677  60.128 -55.682  1.00  0.00     0.210 HD
ENDBRANCH  18  26
ENDBRANCH   2  17
TORSDOF 3
ENDMDL
MODEL 2
REMARK VINA RESULT:      -8.2      4.233      5.112
REMARK  3 active torsions:
REMARK  status: ('A' for Active; 'I' for Inactive)
REMARK    1  A    between atoms: C_9  and  C_10 
REMARK       I    between atoms: C_10  and  N_11 
REMARK    2  A    between atoms: N_11  and  C_12 
REMARK    3  A    between atoms: C_13  and  O_14 
ROOT
HETATM    1  C   UNL     1     -41.483  56.497 -51.260  1.00  0.00     0.268 C 
HETATM    2  N   UNL     1     -42.480  57.101 -51.977  1.00  0.00    -0.344 N 
HETATM    3  O   UNL     1     -40.996  57.027 -50.262  1.00  0.00    -0.266 OA
HETATM    4  H   UNL     1     -42.905  56.617 -52.754  1.00  0.00     0.163 HD
ENDROOT
BRANCH   1   5
HETATM    5  C   UNL     1     -41.037  55.221 -51.764  1.00  0.00     0.102 A 
HETATM    6  N   UNL     1     -40.893  54.992 -53.114  1.00  0.00    -0.351 N 
HETATM    7  C   UNL     1     -40.543  53.686 -53.362  1.00  0.00     0.043 A 
HETATM    8  H   UNL     1     -41.068  55.692 -53.823  1.00  0.00     0.166 HD
HETATM    9  C   UNL     1     -40.397  53.054 -52.130  1.00  0.00    -0.001 A 
HETATM   10  C   UNL     1     -40.349  53.031 -54.578  1.00  0.00     0.031 A 
HETATM   11  C   UNL     1     -40.027  51.683 -52.082  1.00  0.00    -0.043 A 
HETATM   12  C   UNL     1     -40.697  54.036 -51.137  1.00  0.00     0.049 A 
HETATM   13  C   UNL     1     -39.858  50.998 -53.316  1.00  0.00    -0.055 A 
HETATM   14  C   UNL     1     -39.846  50.950 -50.778  1.00  0.00     0.049 C 
HETATM   15  C   UNL     1     -39.490  49.536 -53.348  1.00  0.00     0.049 C 
HETATM   16  C   UNL     1     -40.010  51.679 -54.532  1.00  0.00     0.009 A 
ENDBRANCH   1   5
BRANCH   2  17
HETATM   17  C   UNL     1     -42.920  58.451 -51.691  1.00  0.00     0.147 C 
HETATM   18  C   UNL     1     -44.387  58.569 -51.167  1.00  0.00     0.149 C 
HETATM   19  C   UNL     1     -45.275  58.785 -52.408  1.00  0.00     0.073 C 
HETATM   20  C   UNL     1     -44.322  59.432 -53.365  1.00  0.00    -0.047 A 
HETATM   21  C   UNL     1     -42.995  59.250 -52.960  1.00  0.00    -0.027 A 
HETATM   22  C   UNL     1     -44.623  60.096 -54.542  1.00  0.00     0.008 A 
HETATM   23  C   UNL     1     -41.943  59.730 -53.725  1.00  0.00     0.010 A 
HETATM   24  C   UNL     1     -42.237  60.409 -54.908  1.00  0.00     0.001 A 
HETATM   25  C   UNL     1     -43.569  60.590 -55.314  1.00  0.00     0.001 A 
BRANCH  18  26
HETATM   26  O   UNL     1     -44.842  57.448 -50.416  1.00  0.00    -0.393 OA
HETATM   27  H   UNL     1     -44.675  57.652 -49.472  1.00  0.00     0.210 HD
ENDBRANCH  18  26
ENDBRANCH   2  17
TORSDOF 3
ENDMDL
MODEL 3
REMARK VINA RESULT:      -8.1      1.921      2.865
REMARK  3 active torsions:
REMARK  status: ('A' for Active; 'I' for Inactive)
REMARK    1  A    between atoms: C_9  and  C_10 
REMARK       I    between atoms: C_10  and  N_11 
REMARK    2  A    between atoms: N_11  and  C_12 
REMARK    3  A    between atoms: C_13  and  O_14 
ROOT
HETATM    1  C   UNL     1     -43.863  56.891 -55.858  1.00  0.00     0.268 C 
HETATM    2  N   UNL     1     -43.884  56.747 -57.220  1.00  0.00    -0.344 N 
HETATM    3  O   UNL     1     -44.533  57.754 -55.292  1.00  0.00    -0.266 OA
HETATM    4  H   UNL     1     -43.374  55.992 -57.653  1.00  0.00     0.163 HD
ENDROOT
BRANCH   1   5
HETATM    5  C   UNL     1     -42.993  55.985 -55.148  1.00  0.00     0.102 A 
HETATM    6  N   UNL     1     -41.938  55.361 -55.776  1.00  0.00    -0.351 N 
HETATM    7  C   UNL     1     -41.306  54.482 -54.929  1.00  0.00     0.043 A 
HETATM    8  H   UNL     1     -41.697  55.509 -56.747  1.00  0.00     0.166 HD
HETATM    9  C   UNL     1     -41.933  54.576 -53.689  1.00  0.00    -0.001 A 
HETATM   10  C   UNL     1     -40.236  53.622 -55.175  1.00  0.00     0.031 A 
HETATM   11  C   UNL     1     -41.477  53.775 -52.608  1.00  0.00    -0.043 A 
HETATM   12  C   UNL     1     -42.982  55.535 -53.841  1.00  0.00     0.049 A 
HETATM   13  C   UNL     1     -40.408  52.872 -52.856  1.00  0.00    -0.055 A 
HETATM   14  C   UNL     1     -42.112  53.841 -51.243  1.00  0.00     0.049 C 
HETATM   15  C   UNL     1     -39.884  51.971 -51.767  1.00  0.00     0.049 C 
HETATM   16  C   UNL     1     -39.804  52.818 -54.120  1.00  0.00     0.009 A 
ENDBRANCH   1   5
BRANCH   2  17
HETATM   17  C   UNL     1     -44.581  57.683 -58.078  1.00  0.00     0.147 C 
HETATM   18  C   UNL     1     -45.167  57.063 -59.387  1.00  0.00     0.149 C 
HETATM   19  C   UNL     1     -44.081  57.228 -60.469  1.00  0.00     0.073 C 
HETATM   20  C   UNL     1     -43.332  58.428 -59.980  1.00  0.00    -0.047 A 
HETATM   21  C   UNL     1     -43.616  58.690 -58.635  1.00  0.00    -0.027 A 
HETATM   22  C   UNL     1     -42.422  59.203 -60.679  1.00  0.00     0.008 A 
HETATM   23  C   UNL     1     -42.995  59.732 -57.963  1.00  0.00     0.010 A 
HETATM   24  C   UNL     1     -42.084  60.523 -58.662  1.00  0.00     0.001 A 
HETATM   25  C   UNL     1     -41.799  60.260 -60.012  1.00  0.00     0.001 A 
BRANCH  18  26
HETATM   26  O   UNL     1     -45.560  55.699 -59.276  1.00  0.00    -0.393 OA
HETATM   27  H   UNL     1     -46.420  55.689 -58.808  1.00  0.00     0.210 HD
ENDBRANCH  18  26
ENDBRANCH   2  17
TORSDOF 3
ENDMDL
MODEL 4
REMARK VINA RESULT:      -8.1      2.666      7.696
REMARK  3 active torsions:
REMARK  status: ('A' for Active; 'I' for Inactive)
REMARK    1  A    between atoms: C_9  and  C_10 
REMARK       I    between atoms: C_10  and  N_11 
REMARK    2  A    between atoms: N_11  and  C_12 
REMARK    3  A    between atoms: C_13  and  O_14 
ROOT
HETATM    1  C   UNL     1     -43.220  56.154 -54.653  1.00  0.00     0.268 C 
HETATM    2  N   UNL     1     -42.238  55.306 -54.215  1.00  0.00    -0.344 N 
HETATM    3  O   UNL     1     -44.343  56.151 -54.152  1.00  0.00    -0.266 OA
HETATM    4  H   UNL     1     -41.308  55.372 -54.601  1.00  0.00     0.163 HD
ENDROOT
BRANCH   1   5
HETATM    5  C   UNL     1     -42.853  57.024 -55.744  1.00  0.00     0.102 A 
HETATM    6  N   UNL     1     -42.553  58.351 -55.536  1.00  0.00    -0.351 N 
HETATM    7  C   UNL     1     -42.319  59.000 -56.724  1.00  0.00     0.043 A 
HETATM    8  H   UNL     1     -42.550  58.789 -54.623  1.00  0.00     0.166 HD
HETATM    9  C   UNL     1     -42.413  58.053 -57.741  1.00  0.00    -0.001 A 
HETATM   10  C   UNL     1     -42.034  60.344 -56.964  1.00  0.00     0.031 A 
HETATM   11  C   UNL     1     -42.207  58.446 -59.090  1.00  0.00    -0.043 A 
HETATM   12  C   UNL     1     -42.735  56.814 -57.106  1.00  0.00     0.049 A 
HETATM   13  C   UNL     1     -41.949  59.820 -59.349  1.00  0.00    -0.055 A 
HETATM   14  C   UNL     1     -42.289  57.463 -60.229  1.00  0.00     0.049 C 
HETATM   15  C   UNL     1     -41.744  60.319 -60.756  1.00  0.00     0.049 C 
HETATM   16  C   UNL     1     -41.856  60.736 -58.291  1.00  0.00     0.009 A 
ENDBRANCH   1   5
BRANCH   2  17
HETATM   17  C   UNL     1     -42.501  54.268 -53.241  1.00  0.00     0.147 C 
HETATM   18  C   UNL     1     -42.326  54.703 -51.751  1.00  0.00     0.149 C 
HETATM   19  C   UNL     1     -40.869  54.376 -51.371  1.00  0.00     0.073 C 
HETATM   20  C   UNL     1     -40.549  53.248 -52.302  1.00  0.00    -0.047 A 
HETATM   21  C   UNL     1     -41.471  53.181 -53.353  1.00  0.00    -0.027 A 
HETATM   22  C   UNL     1     -39.479  52.372 -52.237  1.00  0.00     0.008 A 
HETATM   23  C   UNL     1     -41.339  52.237 -54.360  1.00  0.00     0.010 A 
HETATM   24  C   UNL     1     -40.269  51.344 -54.297  1.00  0.00     0.001 A 
HETATM   25  C   UNL     1     -39.344  51.412 -53.242  1.00  0.00     0.001 A 
BRANCH  18  26
HETATM   26  O   UNL     1     -42.614  56.074 -51.494  1.00  0.00    -0.393 OA
HETATM   27  H   UNL     1     -41.756  56.547 -51.483  1.00  0.00     0.210 HD
ENDBRANCH  18  26
ENDBRANCH   2  17
TORSDOF 3
ENDMDL
MODEL 5
REMARK VINA RESULT:      -8.0      4.707      5.591
REMARK  3 active torsions:
REMARK  status: ('A' for Active; 'I' for Inactive)
REMARK    1  A    between atoms: C_9  and  C_10 
REMARK       I    between atoms: C_10  and  N_11 
REMARK    2  A    between atoms: N_11  and  C_12 
REMARK    3  A    between atoms: C_13  and  O_14 
ROOT
HETATM    1  C   UNL     1     -42.055  58.111 -50.984  1.00  0.00     0.268 C 
HETATM    2  N   UNL     1     -43.374  58.431 -51.158  1.00  0.00    -0.344 N 
HETATM    3  O   UNL     1     -41.249  58.925 -50.536  1.00  0.00    -0.266 OA
HETATM    4  H   UNL     1     -44.026  57.725 -51.469  1.00  0.00     0.163 HD
ENDROOT
BRANCH   1   5
HETATM    5  C   UNL     1     -41.679  56.774 -51.378  1.00  0.00     0.102 A 
HETATM    6  N   UNL     1     -41.446  55.788 -50.445  1.00  0.00    -0.351 N 
HETATM    7  C   UNL     1     -41.019  54.628 -51.045  1.00  0.00     0.043 A 
HETATM    8  H   UNL     1     -41.540  55.927 -49.448  1.00  0.00     0.166 HD
HETATM    9  C   UNL     1     -41.027  54.844 -52.421  1.00  0.00    -0.001 A 
HETATM   10  C   UNL     1     -40.630  53.418 -50.470  1.00  0.00     0.031 A 
HETATM   11  C   UNL     1     -40.634  53.799 -53.299  1.00  0.00    -0.043 A 
HETATM   12  C   UNL     1     -41.458  56.193 -52.613  1.00  0.00     0.049 A 
HETATM   13  C   UNL     1     -40.206  52.573 -52.723  1.00  0.00    -0.055 A 
HETATM   14  C   UNL     1     -40.632  53.973 -54.796  1.00  0.00     0.049 C 
HETATM   15  C   UNL     1     -39.750  51.425 -53.587  1.00  0.00     0.049 C 
HETATM   16  C   UNL     1     -40.221  52.400 -51.331  1.00  0.00     0.009 A 
ENDBRANCH   1   5
BRANCH   2  17
HETATM   17  C   UNL     1     -43.868  59.778 -50.961  1.00  0.00     0.147 C 
HETATM   18  C   UNL     1     -45.343  59.870 -50.455  1.00  0.00     0.149 C 
HETATM   19  C   UNL     1     -46.229  59.972 -51.713  1.00  0.00     0.073 C 
HETATM   20  C   UNL     1     -45.294  60.594 -52.703  1.00  0.00    -0.047 A 
HETATM   21  C   UNL     1     -43.964  60.491 -52.279  1.00  0.00    -0.027 A 
HETATM   22  C   UNL     1     -45.610  61.169 -53.922  1.00  0.00     0.008 A 
HETATM   23  C   UNL     1     -42.925  60.961 -53.067  1.00  0.00     0.010 A 
HETATM   24  C   UNL     1     -43.235  61.551 -54.293  1.00  0.00     0.001 A 
HETATM   25  C   UNL     1     -44.569  61.654 -54.717  1.00  0.00     0.001 A 
BRANCH  18  26
HETATM   26  O   UNL     1     -45.761  58.782 -49.636  1.00  0.00    -0.393 OA
HETATM   27  H   UNL     1     -45.179  58.782 -48.847  1.00  0.00     0.210 HD
ENDBRANCH  18  26
ENDBRANCH   2  17
TORSDOF 3
ENDMDL
MODEL 6
REMARK VINA RESULT:      -8.0      1.563      2.386
REMARK  3 active torsions:
REMARK  status: ('A' for Active; 'I' for Inactive)
REMARK    1  A    between atoms: C_9  and  C_10 
REMARK       I    between atoms: C_10  and  N_11 
REMARK    2  A    between atoms: N_11  and  C_12 
REMARK    3  A    between atoms: C_13  and  O_14 
ROOT
HETATM    1  C   UNL     1     -41.553  56.818 -53.992  1.00  0.00     0.268 C 
HETATM    2  N   UNL     1     -42.359  56.824 -55.099  1.00  0.00    -0.344 N 
HETATM    3  O   UNL     1     -41.243  57.860 -53.416  1.00  0.00    -0.266 OA
HETATM    4  H   UNL     1     -42.648  55.952 -55.515  1.00  0.00     0.163 HD
ENDROOT
BRANCH   1   5
HETATM    5  C   UNL     1     -41.083  55.521 -53.569  1.00  0.00     0.102 A 
HETATM    6  N   UNL     1     -40.689  54.567 -54.481  1.00  0.00    -0.351 N 
HETATM    7  C   UNL     1     -40.365  53.387 -53.855  1.00  0.00     0.043 A 
HETATM    8  H   UNL     1     -40.685  54.716 -55.481  1.00  0.00     0.166 HD
HETATM    9  C   UNL     1     -40.496  53.593 -52.485  1.00  0.00    -0.001 A 
HETATM   10  C   UNL     1     -39.970  52.167 -54.404  1.00  0.00     0.031 A 
HETATM   11  C   UNL     1     -40.213  52.532 -51.584  1.00  0.00    -0.043 A 
HETATM   12  C   UNL     1     -40.934  54.943 -52.321  1.00  0.00     0.049 A 
HETATM   13  C   UNL     1     -39.841  51.275 -52.133  1.00  0.00    -0.055 A 
HETATM   14  C   UNL     1     -40.330  52.700 -50.090  1.00  0.00     0.049 C 
HETATM   15  C   UNL     1     -39.550  50.094 -51.244  1.00  0.00     0.049 C 
HETATM   16  C   UNL     1     -39.716  51.118 -53.521  1.00  0.00     0.009 A 
ENDBRANCH   1   5
BRANCH   2  17
HETATM   17  C   UNL     1     -42.776  58.056 -55.736  1.00  0.00     0.147 C 
HETATM   18  C   UNL     1     -44.099  58.671 -55.176  1.00  0.00     0.149 C 
HETATM   19  C   UNL     1     -45.242  58.102 -56.040  1.00  0.00     0.073 C 
HETATM   20  C   UNL     1     -44.543  57.817 -57.333  1.00  0.00    -0.047 A 
HETATM   21  C   UNL     1     -43.154  57.796 -57.165  1.00  0.00    -0.027 A 
HETATM   22  C   UNL     1     -45.115  57.547 -58.565  1.00  0.00     0.008 A 
HETATM   23  C   UNL     1     -42.310  57.505 -58.227  1.00  0.00     0.010 A 
HETATM   24  C   UNL     1     -42.878  57.242 -59.473  1.00  0.00     0.001 A 
HETATM   25  C   UNL     1     -44.272  57.263 -59.641  1.00  0.00     0.001 A 
BRANCH  18  26
HETATM   26  O   UNL     1     -44.338  58.412 -53.796  1.00  0.00    -0.393 OA
HETATM   27  H   UNL     1     -43.520  58.011 -53.437  1.00  0.00     0.210 HD
ENDBRANCH  18  26
ENDBRANCH   2  17
TORSDOF 3
ENDMDL
MODEL 7
REMARK VINA RESULT:      -7.9     16.082     19.194
REMARK  3 active torsions:
REMARK  status: ('A' for Active; 'I' for Inactive)
REMARK    1  A    between atoms: C_9  and  C_10 
REMARK       I    between atoms: C_10  and  N_11 
REMARK    2  A    between atoms: N_11  and  C_12 
REMARK    3  A    between atoms: C_13  and  O_14 
ROOT
HETATM    1  C   UNL     1     -35.518  41.825 -53.741  1.00  0.00     0.268 C 
HETATM    2  N   UNL     1     -34.736  40.961 -53.023  1.00  0.00    -0.344 N 
HETATM    3  O   UNL     1     -35.751  42.966 -53.343  1.00  0.00    -0.266 OA
HETATM    4  H   UNL     1     -34.510  40.054 -53.402  1.00  0.00     0.163 HD
ENDROOT
BRANCH   1   5
HETATM    5  C   UNL     1     -36.059  41.301 -54.972  1.00  0.00     0.102 A 
HETATM    6  N   UNL     1     -36.404  39.974 -55.099  1.00  0.00    -0.351 N 
HETATM    7  C   UNL     1     -36.812  39.687 -56.379  1.00  0.00     0.043 A 
HETATM    8  H   UNL     1     -36.321  39.300 -54.349  1.00  0.00     0.166 HD
HETATM    9  C   UNL     1     -36.788  40.878 -57.100  1.00  0.00    -0.001 A 
HETATM   10  C   UNL     1     -37.196  38.469 -56.939  1.00  0.00     0.031 A 
HETATM   11  C   UNL     1     -37.174  40.880 -58.467  1.00  0.00    -0.043 A 
HETATM   12  C   UNL     1     -36.326  41.885 -56.198  1.00  0.00     0.049 A 
HETATM   13  C   UNL     1     -37.536  39.639 -59.057  1.00  0.00    -0.055 A 
HETATM   14  C   UNL     1     -37.175  42.140 -59.294  1.00  0.00     0.049 C 
HETATM   15  C   UNL     1     -37.933  39.555 -60.509  1.00  0.00     0.049 C 
HETATM   16  C   UNL     1     -37.551  38.466 -58.288  1.00  0.00     0.009 A 
ENDBRANCH   1   5
BRANCH   2  17
HETATM   17  C   UNL     1     -34.257  41.286 -51.695  1.00  0.00     0.147 C 
HETATM   18  C   UNL     1     -32.733  41.029 -51.465  1.00  0.00     0.149 C 
HETATM   19  C   UNL     1     -32.614  39.595 -50.911  1.00  0.00     0.073 C 
HETATM   20  C   UNL     1     -33.943  39.404 -50.249  1.00  0.00    -0.047 A 
HETATM   21  C   UNL     1     -34.868  40.359 -50.685  1.00  0.00    -0.027 A 
HETATM   22  C   UNL     1     -34.310  38.414 -49.354  1.00  0.00     0.008 A 
HETATM   23  C   UNL     1     -36.179  40.342 -50.233  1.00  0.00     0.010 A 
HETATM   24  C   UNL     1     -36.555  39.353 -49.323  1.00  0.00     0.001 A 
HETATM   25  C   UNL     1     -35.626  38.395 -48.887  1.00  0.00     0.001 A 
BRANCH  18  26
HETATM   26  O   UNL     1     -31.921  41.187 -52.624  1.00  0.00    -0.393 OA
HETATM   27  H   UNL     1     -31.913  42.143 -52.836  1.00  0.00     0.210 HD
ENDBRANCH  18  26
ENDBRANCH   2  17
TORSDOF 3
ENDMDL
MODEL 8
REMARK VINA RESULT:      -7.8      1.721      7.725
REMARK  3 active torsions:
REMARK  status: ('A' for Active; 'I' for Inactive)
REMARK    1  A    between atoms: C_9  and  C_10 
REMARK       I    between atoms: C_10  and  N_11 
REMARK    2  A    between atoms: N_11  and  C_12 
REMARK    3  A    between atoms: C_13  and  O_14 
ROOT
HETATM    1  C   UNL     1     -42.576  57.056 -56.159  1.00  0.00     0.268 C 
HETATM    2  N   UNL     1     -42.216  55.892 -55.535  1.00  0.00    -0.344 N 
HETATM    3  O   UNL     1     -42.085  58.138 -55.838  1.00  0.00    -0.266 OA
HETATM    4  H   UNL     1     -42.587  55.012 -55.859  1.00  0.00     0.163 HD
ENDROOT
BRANCH   1   5
HETATM    5  C   UNL     1     -43.575  56.927 -57.192  1.00  0.00     0.102 A 
HETATM    6  N   UNL     1     -43.579  55.858 -58.060  1.00  0.00    -0.351 N 
HETATM    7  C   UNL     1     -44.565  55.991 -59.008  1.00  0.00     0.043 A 
HETATM    8  H   UNL     1     -42.909  55.101 -58.018  1.00  0.00     0.166 HD
HETATM    9  C   UNL     1     -45.267  57.158 -58.717  1.00  0.00    -0.001 A 
HETATM   10  C   UNL     1     -44.877  55.167 -60.089  1.00  0.00     0.031 A 
HETATM   11  C   UNL     1     -46.358  57.545 -59.538  1.00  0.00    -0.043 A 
HETATM   12  C   UNL     1     -44.641  57.726 -57.565  1.00  0.00     0.049 A 
HETATM   13  C   UNL     1     -46.666  56.731 -60.662  1.00  0.00    -0.055 A 
HETATM   14  C   UNL     1     -47.159  58.793 -59.266  1.00  0.00     0.049 C 
HETATM   15  C   UNL     1     -47.794  57.088 -61.595  1.00  0.00     0.049 C 
HETATM   16  C   UNL     1     -45.934  55.560 -60.911  1.00  0.00     0.009 A 
ENDBRANCH   1   5
BRANCH   2  17
HETATM   17  C   UNL     1     -41.348  55.882 -54.375  1.00  0.00     0.147 C 
HETATM   18  C   UNL     1     -40.372  54.666 -54.294  1.00  0.00     0.149 C 
HETATM   19  C   UNL     1     -41.099  53.579 -53.478  1.00  0.00     0.073 C 
HETATM   20  C   UNL     1     -42.022  54.394 -52.625  1.00  0.00    -0.047 A 
HETATM   21  C   UNL     1     -42.159  55.693 -53.125  1.00  0.00    -0.027 A 
HETATM   22  C   UNL     1     -42.726  53.983 -51.506  1.00  0.00     0.008 A 
HETATM   23  C   UNL     1     -43.003  56.608 -52.515  1.00  0.00     0.010 A 
HETATM   24  C   UNL     1     -43.710  56.205 -51.381  1.00  0.00     0.001 A 
HETATM   25  C   UNL     1     -43.571  54.901 -50.880  1.00  0.00     0.001 A 
BRANCH  18  26
HETATM   26  O   UNL     1     -39.957  54.150 -55.555  1.00  0.00    -0.393 OA
HETATM   27  H   UNL     1     -40.593  53.445 -55.796  1.00  0.00     0.210 HD
ENDBRANCH  18  26
ENDBRANCH   2  17
TORSDOF 3
ENDMDL
MODEL 9
REMARK VINA RESULT:      -7.7      1.695      2.637
REMARK  3 active torsions:
REMARK  status: ('A' for Active; 'I' for Inactive)
REMARK    1  A    between atoms: C_9  and  C_10 
REMARK       I    between atoms: C_10  and  N_11 
REMARK    2  A    between atoms: N_11  and  C_12 
REMARK    3  A    between atoms: C_13  and  O_14 
ROOT
HETATM    1  C   UNL     1     -44.134  57.720 -54.767  1.00  0.00     0.268 C 
HETATM    2  N   UNL     1     -44.611  57.519 -56.034  1.00  0.00    -0.344 N 
HETATM    3  O   UNL     1     -44.291  58.791 -54.182  1.00  0.00    -0.266 OA
HETATM    4  H   UNL     1     -44.523  56.611 -56.467  1.00  0.00     0.163 HD
ENDROOT
BRANCH   1   5
HETATM    5  C   UNL     1     -43.424  56.607 -54.183  1.00  0.00     0.102 A 
HETATM    6  N   UNL     1     -43.683  56.183 -52.899  1.00  0.00    -0.351 N 
HETATM    7  C   UNL     1     -42.831  55.170 -52.529  1.00  0.00     0.043 A 
HETATM    8  H   UNL     1     -44.384  56.601 -52.302  1.00  0.00     0.166 HD
HETATM    9  C   UNL     1     -42.025  54.883 -53.627  1.00  0.00    -0.001 A 
HETATM   10  C   UNL     1     -42.721  54.499 -51.312  1.00  0.00     0.031 A 
HETATM   11  C   UNL     1     -41.044  53.860 -53.532  1.00  0.00    -0.043 A 
HETATM   12  C   UNL     1     -42.420  55.785 -54.663  1.00  0.00     0.049 A 
HETATM   13  C   UNL     1     -40.901  53.191 -52.286  1.00  0.00    -0.055 A 
HETATM   14  C   UNL     1     -40.149  53.501 -54.691  1.00  0.00     0.049 C 
HETATM   15  C   UNL     1     -39.866  52.112 -52.098  1.00  0.00     0.049 C 
HETATM   16  C   UNL     1     -41.741  53.511 -51.209  1.00  0.00     0.009 A 
ENDBRANCH   1   5
BRANCH   2  17
HETATM   17  C   UNL     1     -45.200  58.591 -56.810  1.00  0.00     0.147 C 
HETATM   18  C   UNL     1     -46.601  58.268 -57.421  1.00  0.00     0.149 C 
HETATM   19  C   UNL     1     -46.339  57.698 -58.829  1.00  0.00     0.073 C 
HETATM   20  C   UNL     1     -45.028  58.331 -59.183  1.00  0.00    -0.047 A 
HETATM   21  C   UNL     1     -44.388  58.839 -58.048  1.00  0.00    -0.027 A 
HETATM   22  C   UNL     1     -44.431  58.402 -60.430  1.00  0.00     0.008 A 
HETATM   23  C   UNL     1     -43.136  59.429 -58.138  1.00  0.00     0.010 A 
HETATM   24  C   UNL     1     -42.531  59.514 -59.393  1.00  0.00     0.001 A 
HETATM   25  C   UNL     1     -43.174  59.003 -60.531  1.00  0.00     0.001 A 
BRANCH  18  26
HETATM   26  O   UNL     1     -47.390  57.364 -56.654  1.00  0.00    -0.393 OA
HETATM   27  H   UNL     1     -46.931  57.244 -55.797  1.00  0.00     0.210 HD
ENDBRANCH  18  26
ENDBRANCH   2  17
TORSDOF 3
ENDMDL
MODEL 10
REMARK VINA RESULT:      -7.4     15.909     18.983
REMARK  3 active torsions:
REMARK  status: ('A' for Active; 'I' for Inactive)
REMARK    1  A    between atoms: C_9  and  C_10 
REMARK       I    between atoms: C_10  and  N_11 
REMARK    2  A    between atoms: N_11  and  C_12 
REMARK    3  A    between atoms: C_13  and  O_14 
ROOT
HETATM    1  C   UNL     1     -37.230  41.000 -53.929  1.00  0.00     0.268 C 
HETATM    2  N   UNL     1     -36.005  40.976 -53.318  1.00  0.00    -0.344 N 
HETATM    3  O   UNL     1     -38.268  41.146 -53.286  1.00  0.00    -0.266 OA
HETATM    4  H   UNL     1     -35.166  40.918 -53.875  1.00  0.00     0.163 HD
ENDROOT
BRANCH   1   5
HETATM    5  C   UNL     1     -37.216  40.823 -55.361  1.00  0.00     0.102 A 
HETATM    6  N   UNL     1     -37.056  41.890 -56.217  1.00  0.00    -0.351 N 
HETATM    7  C   UNL     1     -37.162  41.496 -57.529  1.00  0.00     0.043 A 
HETATM    8  H   UNL     1     -36.921  42.843 -55.904  1.00  0.00     0.166 HD
HETATM    9  C   UNL     1     -37.341  40.115 -57.535  1.00  0.00    -0.001 A 
HETATM   10  C   UNL     1     -37.113  42.259 -58.695  1.00  0.00     0.031 A 
HETATM   11  C   UNL     1     -37.475  39.428 -58.771  1.00  0.00    -0.043 A 
HETATM   12  C   UNL     1     -37.359  39.706 -56.165  1.00  0.00     0.049 A 
HETATM   13  C   UNL     1     -37.459  40.200 -59.964  1.00  0.00    -0.055 A 
HETATM   14  C   UNL     1     -37.662  37.934 -58.838  1.00  0.00     0.049 C 
HETATM   15  C   UNL     1     -37.619  39.547 -61.313  1.00  0.00     0.049 C 
HETATM   16  C   UNL     1     -37.269  41.588 -59.908  1.00  0.00     0.009 A 
ENDBRANCH   1   5
BRANCH   2  17
HETATM   17  C   UNL     1     -35.869  40.979 -51.876  1.00  0.00     0.147 C 
HETATM   18  C   UNL     1     -34.820  41.992 -51.316  1.00  0.00     0.149 C 
HETATM   19  C   UNL     1     -33.487  41.225 -51.213  1.00  0.00     0.073 C 
HETATM   20  C   UNL     1     -33.953  39.812 -51.042  1.00  0.00    -0.047 A 
HETATM   21  C   UNL     1     -35.296  39.672 -51.409  1.00  0.00    -0.027 A 
HETATM   22  C   UNL     1     -33.210  38.719 -50.630  1.00  0.00     0.008 A 
HETATM   23  C   UNL     1     -35.922  38.436 -51.371  1.00  0.00     0.010 A 
HETATM   24  C   UNL     1     -35.183  37.330 -50.948  1.00  0.00     0.001 A 
HETATM   25  C   UNL     1     -33.835  37.471 -50.581  1.00  0.00     0.001 A 
BRANCH  18  26
HETATM   26  O   UNL     1     -34.659  43.173 -52.095  1.00  0.00    -0.393 OA
HETATM   27  H   UNL     1     -33.731  43.180 -52.410  1.00  0.00     0.210 HD
ENDBRANCH  18  26
ENDBRANCH   2  17
TORSDOF 3
ENDMDL
