MODEL 1
REMARK VINA RESULT:      -8.6      0.000      0.000
REMARK  2 active torsions:
REMARK  status: ('A' for Active; 'I' for Inactive)
REMARK    1  A    between atoms: O_2  and  C_3 
REMARK    2  A    between atoms: N_21  and  C_22 
ROOT
HETATM    1  C   UNL     1     -43.021  56.146 -57.459  1.00  0.00     0.069 A 
HETATM    2  C   UNL     1     -42.738  56.171 -56.088  1.00  0.00     0.049 A 
HETATM    3  C   UNL     1     -42.479  57.398 -55.488  1.00  0.00     0.018 A 
HETATM    4  C   UNL     1     -42.535  58.570 -56.251  1.00  0.00     0.044 A 
HETATM    5  N   UNL     1     -42.292  59.681 -55.461  1.00  0.00    -0.324 N 
HETATM    6  C   UNL     1     -42.061  59.317 -54.149  1.00  0.00     0.264 A 
HETATM    7  O   UNL     1     -41.862  60.072 -53.211  1.00  0.00    -0.270 OA
HETATM    8  C   UNL     1     -42.184  57.751 -54.053  1.00  0.00     0.250 A 
HETATM    9  N   UNL     1     -43.291  57.312 -53.112  1.00  0.00    -0.043 N 
HETATM   10  H   UNL     1     -43.482  56.320 -53.308  1.00  0.00     0.282 HD
HETATM   11  C   UNL     1     -42.718  57.466 -51.727  1.00  0.00     0.204 C 
HETATM   12  C   UNL     1     -43.855  56.903 -50.907  1.00  0.00     0.036 C 
HETATM   13  C   UNL     1     -45.095  57.506 -51.611  1.00  0.00     0.030 C 
HETATM   14  C   UNL     1     -44.640  57.947 -53.016  1.00  0.00     0.237 C 
HETATM   15  C   UNL     1     -41.310  56.935 -51.872  1.00  0.00     0.126 C 
HETATM   16  C   UNL     1     -40.916  57.229 -53.326  1.00  0.00     0.145 C 
HETATM   17  C   UNL     1     -40.436  55.904 -53.831  1.00  0.00     0.239 C 
HETATM   18  O   UNL     1     -39.868  55.824 -54.909  1.00  0.00    -0.272 OA
HETATM   19  N   UNL     1     -40.779  54.911 -52.936  1.00  0.00    -0.252 N 
HETATM   20  C   UNL     1     -41.240  55.447 -51.753  1.00  0.00     0.238 C 
HETATM   21  O   UNL     1     -41.620  54.898 -50.731  1.00  0.00    -0.272 OA
HETATM   22  C   UNL     1     -42.825  58.577 -57.596  1.00  0.00     0.033 A 
HETATM   23  C   UNL     1     -43.074  57.343 -58.198  1.00  0.00     0.039 A 
HETATM   24  H   UNL     1     -42.277  60.640 -55.789  1.00  0.00     0.169 HD
ENDROOT
BRANCH   1  25
HETATM   25  O   UNL     1     -43.300  55.024 -58.188  1.00  0.00    -0.356 OA
HETATM   26  C   UNL     1     -43.943  55.211 -59.443  1.00  0.00     0.210 C 
ENDBRANCH   1  25
BRANCH  19  27
HETATM   27  C   UNL     1     -40.681  53.501 -53.202  1.00  0.00     0.045 A 
HETATM   28  C   UNL     1     -39.837  52.663 -52.452  1.00  0.00     0.030 A 
HETATM   29  C   UNL     1     -39.690  51.302 -52.754  1.00  0.00     0.002 A 
HETATM   30  C   UNL     1     -40.387  50.740 -53.814  1.00  0.00     0.000 A 
HETATM   31  C   UNL     1     -41.241  51.536 -54.563  1.00  0.00     0.002 A 
HETATM   32  C   UNL     1     -41.386  52.895 -54.259  1.00  0.00     0.030 A 
ENDBRANCH  19  27
TORSDOF 2
ENDMDL
MODEL 2
REMARK VINA RESULT:      -8.3      2.116      4.919
REMARK  2 active torsions:
REMARK  status: ('A' for Active; 'I' for Inactive)
REMARK    1  A    between atoms: O_2  and  C_3 
REMARK    2  A    between atoms: N_21  and  C_22 
ROOT
HETATM    1  C   UNL     1     -40.378  58.768 -51.045  1.00  0.00     0.069 A 
HETATM    2  C   UNL     1     -41.084  58.050 -52.018  1.00  0.00     0.049 A 
HETATM    3  C   UNL     1     -42.342  58.507 -52.395  1.00  0.00     0.018 A 
HETATM    4  C   UNL     1     -42.858  59.674 -51.821  1.00  0.00     0.044 A 
HETATM    5  N   UNL     1     -44.097  59.979 -52.360  1.00  0.00    -0.324 N 
HETATM    6  C   UNL     1     -44.471  59.045 -53.306  1.00  0.00     0.264 A 
HETATM    7  O   UNL     1     -45.484  59.065 -53.985  1.00  0.00    -0.270 OA
HETATM    8  C   UNL     1     -43.314  57.983 -53.421  1.00  0.00     0.250 A 
HETATM    9  N   UNL     1     -42.710  57.932 -54.812  1.00  0.00    -0.043 N 
HETATM   10  H   UNL     1     -41.813  57.432 -54.737  1.00  0.00     0.282 HD
HETATM   11  C   UNL     1     -43.683  57.129 -55.637  1.00  0.00     0.204 C 
HETATM   12  C   UNL     1     -42.926  57.058 -56.942  1.00  0.00     0.036 C 
HETATM   13  C   UNL     1     -42.365  58.494 -57.073  1.00  0.00     0.030 C 
HETATM   14  C   UNL     1     -42.412  59.121 -55.666  1.00  0.00     0.237 C 
HETATM   15  C   UNL     1     -44.071  55.998 -54.712  1.00  0.00     0.126 C 
HETATM   16  C   UNL     1     -43.960  56.577 -53.296  1.00  0.00     0.145 C 
HETATM   17  C   UNL     1     -43.099  55.583 -52.581  1.00  0.00     0.239 C 
HETATM   18  O   UNL     1     -42.964  55.645 -51.368  1.00  0.00    -0.272 OA
HETATM   19  N   UNL     1     -42.528  54.718 -53.491  1.00  0.00    -0.252 N 
HETATM   20  C   UNL     1     -43.093  54.869 -54.739  1.00  0.00     0.238 C 
HETATM   21  O   UNL     1     -42.866  54.282 -55.785  1.00  0.00    -0.272 OA
HETATM   22  C   UNL     1     -42.181  60.408 -50.874  1.00  0.00     0.033 A 
HETATM   23  C   UNL     1     -40.923  59.942 -50.491  1.00  0.00     0.039 A 
HETATM   24  H   UNL     1     -44.667  60.776 -52.101  1.00  0.00     0.169 HD
ENDROOT
BRANCH   1  25
HETATM   25  O   UNL     1     -39.134  58.451 -50.576  1.00  0.00    -0.356 OA
HETATM   26  C   UNL     1     -38.256  59.533 -50.288  1.00  0.00     0.210 C 
ENDBRANCH   1  25
BRANCH  19  27
HETATM   27  C   UNL     1     -41.475  53.788 -53.186  1.00  0.00     0.045 A 
HETATM   28  C   UNL     1     -41.029  52.839 -54.123  1.00  0.00     0.030 A 
HETATM   29  C   UNL     1     -40.050  51.888 -53.804  1.00  0.00     0.002 A 
HETATM   30  C   UNL     1     -39.486  51.862 -52.538  1.00  0.00     0.000 A 
HETATM   31  C   UNL     1     -39.891  52.795 -51.594  1.00  0.00     0.002 A 
HETATM   32  C   UNL     1     -40.869  53.744 -51.916  1.00  0.00     0.030 A 
ENDBRANCH  19  27
TORSDOF 2
ENDMDL
MODEL 3
REMARK VINA RESULT:      -8.2      2.185      5.419
REMARK  2 active torsions:
REMARK  status: ('A' for Active; 'I' for Inactive)
REMARK    1  A    between atoms: O_2  and  C_3 
REMARK    2  A    between atoms: N_21  and  C_22 
ROOT
HETATM    1  C   UNL     1     -42.029  58.885 -56.967  1.00  0.00     0.069 A 
HETATM    2  C   UNL     1     -42.209  57.985 -55.910  1.00  0.00     0.049 A 
HETATM    3  C   UNL     1     -42.711  56.720 -56.196  1.00  0.00     0.018 A 
HETATM    4  C   UNL     1     -42.994  56.369 -57.521  1.00  0.00     0.044 A 
HETATM    5  N   UNL     1     -43.439  55.060 -57.596  1.00  0.00    -0.324 N 
HETATM    6  C   UNL     1     -43.479  54.476 -56.346  1.00  0.00     0.264 A 
HETATM    7  O   UNL     1     -43.786  53.322 -56.093  1.00  0.00    -0.270 OA
HETATM    8  C   UNL     1     -42.977  55.540 -55.299  1.00  0.00     0.250 A 
HETATM    9  N   UNL     1     -41.731  55.083 -54.562  1.00  0.00    -0.043 N 
HETATM   10  H   UNL     1     -41.322  55.914 -54.112  1.00  0.00     0.282 HD
HETATM   11  C   UNL     1     -42.222  54.117 -53.515  1.00  0.00     0.204 C 
HETATM   12  C   UNL     1     -40.926  53.829 -52.794  1.00  0.00     0.036 C 
HETATM   13  C   UNL     1     -39.923  53.698 -53.964  1.00  0.00     0.030 C 
HETATM   14  C   UNL     1     -40.571  54.378 -55.186  1.00  0.00     0.237 C 
HETATM   15  C   UNL     1     -43.467  54.787 -52.980  1.00  0.00     0.126 C 
HETATM   16  C   UNL     1     -44.026  55.598 -54.157  1.00  0.00     0.145 C 
HETATM   17  C   UNL     1     -44.208  56.967 -53.579  1.00  0.00     0.239 C 
HETATM   18  O   UNL     1     -44.817  57.823 -54.202  1.00  0.00    -0.272 OA
HETATM   19  N   UNL     1     -43.572  57.047 -52.357  1.00  0.00    -0.252 N 
HETATM   20  C   UNL     1     -43.169  55.802 -51.926  1.00  0.00     0.238 C 
HETATM   21  O   UNL     1     -42.595  55.468 -50.901  1.00  0.00    -0.272 OA
HETATM   22  C   UNL     1     -42.813  57.228 -58.581  1.00  0.00     0.033 A 
HETATM   23  C   UNL     1     -42.319  58.500 -58.289  1.00  0.00     0.039 A 
HETATM   24  H   UNL     1     -43.708  54.582 -58.448  1.00  0.00     0.169 HD
ENDROOT
BRANCH   1  25
HETATM   25  O   UNL     1     -41.542  60.157 -56.847  1.00  0.00    -0.356 OA
HETATM   26  C   UNL     1     -41.379  60.903 -58.047  1.00  0.00     0.210 C 
ENDBRANCH   1  25
BRANCH  19  27
HETATM   27  C   UNL     1     -43.347  58.268 -51.631  1.00  0.00     0.045 A 
HETATM   28  C   UNL     1     -44.411  59.040 -51.132  1.00  0.00     0.030 A 
HETATM   29  C   UNL     1     -44.195  60.264 -50.483  1.00  0.00     0.002 A 
HETATM   30  C   UNL     1     -42.907  60.747 -50.311  1.00  0.00     0.000 A 
HETATM   31  C   UNL     1     -41.834  60.002 -50.776  1.00  0.00     0.002 A 
HETATM   32  C   UNL     1     -42.052  58.780 -51.424  1.00  0.00     0.030 A 
ENDBRANCH  19  27
TORSDOF 2
ENDMDL
MODEL 4
REMARK VINA RESULT:      -8.1      2.277      5.277
REMARK  2 active torsions:
REMARK  status: ('A' for Active; 'I' for Inactive)
REMARK    1  A    between atoms: O_2  and  C_3 
REMARK    2  A    between atoms: N_21  and  C_22 
ROOT
HETATM    1  C   UNL     1     -41.289  59.129 -51.634  1.00  0.00     0.069 A 
HETATM    2  C   UNL     1     -41.790  58.727 -52.878  1.00  0.00     0.049 A 
HETATM    3  C   UNL     1     -42.912  59.378 -53.381  1.00  0.00     0.018 A 
HETATM    4  C   UNL     1     -43.490  60.426 -52.656  1.00  0.00     0.044 A 
HETATM    5  N   UNL     1     -44.562  60.965 -53.346  1.00  0.00    -0.324 N 
HETATM    6  C   UNL     1     -44.757  60.316 -54.549  1.00  0.00     0.264 A 
HETATM    7  O   UNL     1     -45.593  60.590 -55.395  1.00  0.00    -0.270 OA
HETATM    8  C   UNL     1     -43.652  59.202 -54.681  1.00  0.00     0.250 A 
HETATM    9  N   UNL     1     -42.757  59.415 -55.888  1.00  0.00    -0.043 N 
HETATM   10  H   UNL     1     -41.922  58.826 -55.755  1.00  0.00     0.282 HD
HETATM   11  C   UNL     1     -43.556  58.922 -57.066  1.00  0.00     0.204 C 
HETATM   12  C   UNL     1     -42.532  59.082 -58.165  1.00  0.00     0.036 C 
HETATM   13  C   UNL     1     -41.892  60.448 -57.819  1.00  0.00     0.030 C 
HETATM   14  C   UNL     1     -42.223  60.735 -56.342  1.00  0.00     0.237 C 
HETATM   15  C   UNL     1     -44.190  57.651 -56.549  1.00  0.00     0.126 C 
HETATM   16  C   UNL     1     -44.372  57.875 -55.042  1.00  0.00     0.145 C 
HETATM   17  C   UNL     1     -43.738  56.664 -54.432  1.00  0.00     0.239 C 
HETATM   18  O   UNL     1     -43.874  56.430 -53.241  1.00  0.00    -0.272 OA
HETATM   19  N   UNL     1     -43.017  55.981 -55.391  1.00  0.00    -0.252 N 
HETATM   20  C   UNL     1     -43.282  56.470 -56.652  1.00  0.00     0.238 C 
HETATM   21  O   UNL     1     -42.854  56.121 -57.740  1.00  0.00    -0.272 OA
HETATM   22  C   UNL     1     -43.009  60.851 -51.438  1.00  0.00     0.033 A 
HETATM   23  C   UNL     1     -41.891  60.191 -50.932  1.00  0.00     0.039 A 
HETATM   24  H   UNL     1     -45.140  61.732 -53.022  1.00  0.00     0.169 HD
ENDROOT
BRANCH   1  25
HETATM   25  O   UNL     1     -40.196  58.593 -51.013  1.00  0.00    -0.356 OA
HETATM   26  C   UNL     1     -39.160  59.492 -50.634  1.00  0.00     0.210 C 
ENDBRANCH   1  25
BRANCH  19  27
HETATM   27  C   UNL     1     -42.101  54.908 -55.114  1.00  0.00     0.045 A 
HETATM   28  C   UNL     1     -42.549  53.626 -54.748  1.00  0.00     0.030 A 
HETATM   29  C   UNL     1     -41.657  52.598 -54.413  1.00  0.00     0.002 A 
HETATM   30  C   UNL     1     -40.288  52.823 -54.439  1.00  0.00     0.000 A 
HETATM   31  C   UNL     1     -39.812  54.072 -54.812  1.00  0.00     0.002 A 
HETATM   32  C   UNL     1     -40.706  55.096 -55.146  1.00  0.00     0.030 A 
ENDBRANCH  19  27
TORSDOF 2
ENDMDL
MODEL 5
REMARK VINA RESULT:      -8.0      2.248      5.697
REMARK  2 active torsions:
REMARK  status: ('A' for Active; 'I' for Inactive)
REMARK    1  A    between atoms: O_2  and  C_3 
REMARK    2  A    between atoms: N_21  and  C_22 
ROOT
HETATM    1  C   UNL     1     -45.033  60.417 -52.550  1.00  0.00     0.069 A 
HETATM    2  C   UNL     1     -44.247  59.324 -52.933  1.00  0.00     0.049 A 
HETATM    3  C   UNL     1     -43.171  58.967 -52.127  1.00  0.00     0.018 A 
HETATM    4  C   UNL     1     -42.918  59.682 -50.951  1.00  0.00     0.044 A 
HETATM    5  N   UNL     1     -41.836  59.144 -50.275  1.00  0.00    -0.324 N 
HETATM    6  C   UNL     1     -41.315  58.060 -50.952  1.00  0.00     0.264 A 
HETATM    7  O   UNL     1     -40.391  57.351 -50.587  1.00  0.00    -0.270 OA
HETATM    8  C   UNL     1     -42.181  57.839 -52.249  1.00  0.00     0.250 A 
HETATM    9  N   UNL     1     -42.855  56.480 -52.271  1.00  0.00    -0.043 N 
HETATM   10  H   UNL     1     -43.593  56.517 -52.988  1.00  0.00     0.282 HD
HETATM   11  C   UNL     1     -41.779  55.510 -52.686  1.00  0.00     0.204 C 
HETATM   12  C   UNL     1     -42.590  54.239 -52.776  1.00  0.00     0.036 C 
HETATM   13  C   UNL     1     -43.495  54.339 -51.526  1.00  0.00     0.030 C 
HETATM   14  C   UNL     1     -43.499  55.819 -51.095  1.00  0.00     0.237 C 
HETATM   15  C   UNL     1     -41.056  56.245 -53.792  1.00  0.00     0.126 C 
HETATM   16  C   UNL     1     -41.201  57.734 -53.448  1.00  0.00     0.145 C 
HETATM   17  C   UNL     1     -41.734  58.332 -54.712  1.00  0.00     0.239 C 
HETATM   18  O   UNL     1     -41.790  59.545 -54.845  1.00  0.00    -0.272 OA
HETATM   19  N   UNL     1     -42.142  57.329 -55.569  1.00  0.00    -0.252 N 
HETATM   20  C   UNL     1     -41.726  56.094 -55.118  1.00  0.00     0.238 C 
HETATM   21  O   UNL     1     -41.879  54.985 -55.603  1.00  0.00    -0.272 OA
HETATM   22  C   UNL     1     -43.682  60.752 -50.543  1.00  0.00     0.033 A 
HETATM   23  C   UNL     1     -44.754  61.113 -51.359  1.00  0.00     0.039 A 
HETATM   24  H   UNL     1     -41.461  59.493 -49.400  1.00  0.00     0.169 HD
ENDROOT
BRANCH   1  25
HETATM   25  O   UNL     1     -46.122  60.884 -53.231  1.00  0.00    -0.356 OA
HETATM   26  C   UNL     1     -47.157  61.486 -52.462  1.00  0.00     0.210 C 
ENDBRANCH   1  25
BRANCH  19  27
HETATM   27  C   UNL     1     -42.907  57.538 -56.767  1.00  0.00     0.045 A 
HETATM   28  C   UNL     1     -42.295  57.658 -58.027  1.00  0.00     0.030 A 
HETATM   29  C   UNL     1     -43.034  57.929 -59.186  1.00  0.00     0.002 A 
HETATM   30  C   UNL     1     -44.411  58.084 -59.118  1.00  0.00     0.000 A 
HETATM   31  C   UNL     1     -45.049  57.956 -57.893  1.00  0.00     0.002 A 
HETATM   32  C   UNL     1     -44.308  57.685 -56.737  1.00  0.00     0.030 A 
ENDBRANCH  19  27
TORSDOF 2
ENDMDL
MODEL 6
REMARK VINA RESULT:      -7.7     15.674     19.305
REMARK  2 active torsions:
REMARK  status: ('A' for Active; 'I' for Inactive)
REMARK    1  A    between atoms: O_2  and  C_3 
REMARK    2  A    between atoms: N_21  and  C_22 
ROOT
HETATM    1  C   UNL     1     -36.965  38.014 -50.465  1.00  0.00     0.069 A 
HETATM    2  C   UNL     1     -35.917  38.474 -51.271  1.00  0.00     0.049 A 
HETATM    3  C   UNL     1     -34.710  38.803 -50.664  1.00  0.00     0.018 A 
HETATM    4  C   UNL     1     -34.561  38.642 -49.282  1.00  0.00     0.044 A 
HETATM    5  N   UNL     1     -33.279  38.982 -48.884  1.00  0.00    -0.324 N 
HETATM    6  C   UNL     1     -32.515  39.384 -49.961  1.00  0.00     0.264 A 
HETATM    7  O   UNL     1     -31.337  39.701 -49.938  1.00  0.00    -0.270 OA
HETATM    8  C   UNL     1     -33.409  39.283 -51.253  1.00  0.00     0.250 A 
HETATM    9  N   UNL     1     -32.845  38.311 -52.273  1.00  0.00    -0.043 N 
HETATM   10  H   UNL     1     -33.599  38.101 -52.943  1.00  0.00     0.282 HD
HETATM   11  C   UNL     1     -31.734  39.060 -52.963  1.00  0.00     0.204 C 
HETATM   12  C   UNL     1     -31.340  38.043 -54.008  1.00  0.00     0.036 C 
HETATM   13  C   UNL     1     -31.383  36.719 -53.208  1.00  0.00     0.030 C 
HETATM   14  C   UNL     1     -32.239  36.983 -51.954  1.00  0.00     0.237 C 
HETATM   15  C   UNL     1     -32.319  40.439 -53.166  1.00  0.00     0.126 C 
HETATM   16  C   UNL     1     -33.298  40.638 -52.002  1.00  0.00     0.145 C 
HETATM   17  C   UNL     1     -34.566  41.053 -52.681  1.00  0.00     0.239 C 
HETATM   18  O   UNL     1     -35.506  41.475 -52.026  1.00  0.00    -0.272 OA
HETATM   19  N   UNL     1     -34.461  40.836 -54.040  1.00  0.00    -0.252 N 
HETATM   20  C   UNL     1     -33.165  40.531 -54.394  1.00  0.00     0.238 C 
HETATM   21  O   UNL     1     -32.681  40.292 -55.489  1.00  0.00    -0.272 OA
HETATM   22  C   UNL     1     -35.569  38.178 -48.467  1.00  0.00     0.033 A 
HETATM   23  C   UNL     1     -36.782  37.858 -49.078  1.00  0.00     0.039 A 
HETATM   24  H   UNL     1     -32.934  38.949 -47.932  1.00  0.00     0.169 HD
ENDROOT
BRANCH   1  25
HETATM   25  O   UNL     1     -38.203  37.647 -50.913  1.00  0.00    -0.356 OA
HETATM   26  C   UNL     1     -39.324  38.124 -50.177  1.00  0.00     0.210 C 
ENDBRANCH   1  25
BRANCH  19  27
HETATM   27  C   UNL     1     -35.559  40.905 -54.966  1.00  0.00     0.045 A 
HETATM   28  C   UNL     1     -36.058  42.134 -55.434  1.00  0.00     0.030 A 
HETATM   29  C   UNL     1     -37.170  42.205 -56.283  1.00  0.00     0.002 A 
HETATM   30  C   UNL     1     -37.814  41.046 -56.693  1.00  0.00     0.000 A 
HETATM   31  C   UNL     1     -37.337  39.816 -56.262  1.00  0.00     0.002 A 
HETATM   32  C   UNL     1     -36.226  39.749 -55.414  1.00  0.00     0.030 A 
ENDBRANCH  19  27
TORSDOF 2
ENDMDL
MODEL 7
REMARK VINA RESULT:      -7.7      2.433      6.074
REMARK  2 active torsions:
REMARK  status: ('A' for Active; 'I' for Inactive)
REMARK    1  A    between atoms: O_2  and  C_3 
REMARK    2  A    between atoms: N_21  and  C_22 
ROOT
HETATM    1  C   UNL     1     -41.250  55.371 -53.667  1.00  0.00     0.069 A 
HETATM    2  C   UNL     1     -42.000  56.553 -53.645  1.00  0.00     0.049 A 
HETATM    3  C   UNL     1     -42.993  56.688 -52.680  1.00  0.00     0.018 A 
HETATM    4  C   UNL     1     -43.198  55.666 -51.746  1.00  0.00     0.044 A 
HETATM    5  N   UNL     1     -44.196  56.013 -50.851  1.00  0.00    -0.324 N 
HETATM    6  C   UNL     1     -44.705  57.265 -51.135  1.00  0.00     0.264 A 
HETATM    7  O   UNL     1     -45.560  57.862 -50.501  1.00  0.00    -0.270 OA
HETATM    8  C   UNL     1     -43.927  57.832 -52.381  1.00  0.00     0.250 A 
HETATM    9  N   UNL     1     -43.183  59.116 -52.064  1.00  0.00    -0.043 N 
HETATM   10  H   UNL     1     -42.502  59.269 -52.822  1.00  0.00     0.282 HD
HETATM   11  C   UNL     1     -44.231  60.198 -52.084  1.00  0.00     0.204 C 
HETATM   12  C   UNL     1     -43.361  61.413 -51.869  1.00  0.00     0.036 C 
HETATM   13  C   UNL     1     -42.372  60.920 -50.786  1.00  0.00     0.030 C 
HETATM   14  C   UNL     1     -42.418  59.380 -50.808  1.00  0.00     0.237 C 
HETATM   15  C   UNL     1     -45.073  59.844 -53.289  1.00  0.00     0.126 C 
HETATM   16  C   UNL     1     -44.985  58.316 -53.408  1.00  0.00     0.145 C 
HETATM   17  C   UNL     1     -44.580  58.102 -54.833  1.00  0.00     0.239 C 
HETATM   18  O   UNL     1     -44.601  56.981 -55.318  1.00  0.00    -0.272 OA
HETATM   19  N   UNL     1     -44.182  59.300 -55.392  1.00  0.00    -0.252 N 
HETATM   20  C   UNL     1     -44.495  60.359 -54.567  1.00  0.00     0.238 C 
HETATM   21  O   UNL     1     -44.318  61.557 -54.718  1.00  0.00    -0.272 OA
HETATM   22  C   UNL     1     -42.466  54.501 -51.736  1.00  0.00     0.033 A 
HETATM   23  C   UNL     1     -41.478  54.364 -52.711  1.00  0.00     0.039 A 
HETATM   24  H   UNL     1     -44.523  55.434 -50.087  1.00  0.00     0.169 HD
ENDROOT
BRANCH   1  25
HETATM   25  O   UNL     1     -40.241  55.093 -54.547  1.00  0.00    -0.356 OA
HETATM   26  C   UNL     1     -40.236  53.798 -55.136  1.00  0.00     0.210 C 
ENDBRANCH   1  25
BRANCH  19  27
HETATM   27  C   UNL     1     -43.520  59.430 -56.661  1.00  0.00     0.045 A 
HETATM   28  C   UNL     1     -42.151  59.738 -56.754  1.00  0.00     0.030 A 
HETATM   29  C   UNL     1     -41.519  59.932 -57.990  1.00  0.00     0.002 A 
HETATM   30  C   UNL     1     -42.240  59.819 -59.170  1.00  0.00     0.000 A 
HETATM   31  C   UNL     1     -43.589  59.501 -59.114  1.00  0.00     0.002 A 
HETATM   32  C   UNL     1     -44.217  59.308 -57.878  1.00  0.00     0.030 A 
ENDBRANCH  19  27
TORSDOF 2
ENDMDL
MODEL 8
REMARK VINA RESULT:      -7.5     15.639     18.322
REMARK  2 active torsions:
REMARK  status: ('A' for Active; 'I' for Inactive)
REMARK    1  A    between atoms: O_2  and  C_3 
REMARK    2  A    between atoms: N_21  and  C_22 
ROOT
HETATM    1  C   UNL     1     -36.871  39.056 -57.694  1.00  0.00     0.069 A 
HETATM    2  C   UNL     1     -35.975  39.249 -56.636  1.00  0.00     0.049 A 
HETATM    3  C   UNL     1     -36.270  40.225 -55.690  1.00  0.00     0.018 A 
HETATM    4  C   UNL     1     -37.454  40.962 -55.797  1.00  0.00     0.044 A 
HETATM    5  N   UNL     1     -37.579  41.845 -54.738  1.00  0.00    -0.324 N 
HETATM    6  C   UNL     1     -36.502  41.749 -53.880  1.00  0.00     0.264 A 
HETATM    7  O   UNL     1     -36.347  42.363 -52.838  1.00  0.00    -0.270 OA
HETATM    8  C   UNL     1     -35.536  40.638 -54.440  1.00  0.00     0.250 A 
HETATM    9  N   UNL     1     -35.355  39.485 -53.470  1.00  0.00    -0.043 N 
HETATM   10  H   UNL     1     -34.947  38.702 -54.000  1.00  0.00     0.282 HD
HETATM   11  C   UNL     1     -34.372  39.983 -52.442  1.00  0.00     0.204 C 
HETATM   12  C   UNL     1     -34.196  38.730 -51.617  1.00  0.00     0.036 C 
HETATM   13  C   UNL     1     -35.646  38.196 -51.521  1.00  0.00     0.030 C 
HETATM   14  C   UNL     1     -36.444  38.867 -52.655  1.00  0.00     0.237 C 
HETATM   15  C   UNL     1     -33.342  40.714 -53.272  1.00  0.00     0.126 C 
HETATM   16  C   UNL     1     -34.109  41.246 -54.490  1.00  0.00     0.145 C 
HETATM   17  C   UNL     1     -33.293  40.767 -55.650  1.00  0.00     0.239 C 
HETATM   18  O   UNL     1     -33.524  41.177 -56.777  1.00  0.00    -0.272 OA
HETATM   19  N   UNL     1     -32.368  39.837 -55.219  1.00  0.00    -0.252 N 
HETATM   20  C   UNL     1     -32.307  39.801 -53.843  1.00  0.00     0.238 C 
HETATM   21  O   UNL     1     -31.610  39.128 -53.101  1.00  0.00    -0.272 OA
HETATM   22  C   UNL     1     -38.359  40.783 -56.818  1.00  0.00     0.033 A 
HETATM   23  C   UNL     1     -38.056  39.811 -57.772  1.00  0.00     0.039 A 
HETATM   24  H   UNL     1     -38.352  42.487 -54.600  1.00  0.00     0.169 HD
ENDROOT
BRANCH   1  25
HETATM   25  O   UNL     1     -36.724  38.137 -58.696  1.00  0.00    -0.356 OA
HETATM   26  C   UNL     1     -36.177  38.601 -59.925  1.00  0.00     0.210 C 
ENDBRANCH   1  25
BRANCH  19  27
HETATM   27  C   UNL     1     -31.579  39.007 -56.087  1.00  0.00     0.045 A 
HETATM   28  C   UNL     1     -30.218  39.269 -56.329  1.00  0.00     0.030 A 
HETATM   29  C   UNL     1     -29.465  38.500 -57.227  1.00  0.00     0.002 A 
HETATM   30  C   UNL     1     -30.052  37.443 -57.906  1.00  0.00     0.000 A 
HETATM   31  C   UNL     1     -31.388  37.147 -57.679  1.00  0.00     0.002 A 
HETATM   32  C   UNL     1     -32.137  37.916 -56.781  1.00  0.00     0.030 A 
ENDBRANCH  19  27
TORSDOF 2
ENDMDL
MODEL 9
REMARK VINA RESULT:      -7.3      1.910      2.602
REMARK  2 active torsions:
REMARK  status: ('A' for Active; 'I' for Inactive)
REMARK    1  A    between atoms: O_2  and  C_3 
REMARK    2  A    between atoms: N_21  and  C_22 
ROOT
HETATM    1  C   UNL     1     -43.121  59.146 -57.028  1.00  0.00     0.069 A 
HETATM    2  C   UNL     1     -43.151  58.868 -55.656  1.00  0.00     0.049 A 
HETATM    3  C   UNL     1     -43.008  59.925 -54.764  1.00  0.00     0.018 A 
HETATM    4  C   UNL     1     -42.869  61.230 -55.249  1.00  0.00     0.044 A 
HETATM    5  N   UNL     1     -42.786  62.135 -54.205  1.00  0.00    -0.324 N 
HETATM    6  C   UNL     1     -42.861  61.494 -52.984  1.00  0.00     0.264 A 
HETATM    7  O   UNL     1     -42.861  62.024 -51.885  1.00  0.00    -0.270 OA
HETATM    8  C   UNL     1     -43.034  59.954 -53.258  1.00  0.00     0.250 A 
HETATM    9  N   UNL     1     -44.331  59.406 -52.692  1.00  0.00    -0.043 N 
HETATM   10  H   UNL     1     -44.494  58.491 -53.134  1.00  0.00     0.282 HD
HETATM   11  C   UNL     1     -44.080  59.232 -51.217  1.00  0.00     0.204 C 
HETATM   12  C   UNL     1     -45.382  58.591 -50.801  1.00  0.00     0.036 C 
HETATM   13  C   UNL     1     -46.421  59.408 -51.606  1.00  0.00     0.030 C 
HETATM   14  C   UNL     1     -45.655  60.097 -52.752  1.00  0.00     0.237 C 
HETATM   15  C   UNL     1     -42.686  58.649 -51.169  1.00  0.00     0.126 C 
HETATM   16  C   UNL     1     -41.971  59.209 -52.406  1.00  0.00     0.145 C 
HETATM   17  C   UNL     1     -41.418  57.988 -53.071  1.00  0.00     0.239 C 
HETATM   18  O   UNL     1     -40.625  58.093 -53.994  1.00  0.00    -0.272 OA
HETATM   19  N   UNL     1     -41.971  56.856 -52.506  1.00  0.00    -0.252 N 
HETATM   20  C   UNL     1     -42.674  57.168 -51.362  1.00  0.00     0.238 C 
HETATM   21  O   UNL     1     -43.283  56.446 -50.588  1.00  0.00    -0.272 OA
HETATM   22  C   UNL     1     -42.851  61.534 -56.592  1.00  0.00     0.033 A 
HETATM   23  C   UNL     1     -42.984  60.470 -57.484  1.00  0.00     0.039 A 
HETATM   24  H   UNL     1     -42.678  63.138 -54.308  1.00  0.00     0.169 HD
ENDROOT
BRANCH   1  25
HETATM   25  O   UNL     1     -43.253  58.219 -58.024  1.00  0.00    -0.356 OA
HETATM   26  C   UNL     1     -42.146  58.053 -58.903  1.00  0.00     0.210 C 
ENDBRANCH   1  25
BRANCH  19  27
HETATM   27  C   UNL     1     -41.845  55.529 -53.043  1.00  0.00     0.045 A 
HETATM   28  C   UNL     1     -40.964  54.585 -52.485  1.00  0.00     0.030 A 
HETATM   29  C   UNL     1     -40.790  53.313 -53.049  1.00  0.00     0.002 A 
HETATM   30  C   UNL     1     -41.497  52.948 -54.185  1.00  0.00     0.000 A 
HETATM   31  C   UNL     1     -42.387  53.850 -54.750  1.00  0.00     0.002 A 
HETATM   32  C   UNL     1     -42.558  55.119 -54.185  1.00  0.00     0.030 A 
ENDBRANCH  19  27
TORSDOF 2
ENDMDL
MODEL 10
REMARK VINA RESULT:      -7.2      2.666      5.797
REMARK  2 active torsions:
REMARK  status: ('A' for Active; 'I' for Inactive)
REMARK    1  A    between atoms: O_2  and  C_3 
REMARK    2  A    between atoms: N_21  and  C_22 
ROOT
HETATM    1  C   UNL     1     -42.490  60.684 -53.667  1.00  0.00     0.069 A 
HETATM    2  C   UNL     1     -42.746  59.860 -54.769  1.00  0.00     0.049 A 
HETATM    3  C   UNL     1     -43.778  60.211 -55.633  1.00  0.00     0.018 A 
HETATM    4  C   UNL     1     -44.509  61.381 -55.401  1.00  0.00     0.044 A 
HETATM    5  N   UNL     1     -45.456  61.572 -56.394  1.00  0.00    -0.324 N 
HETATM    6  C   UNL     1     -45.410  60.555 -57.326  1.00  0.00     0.264 A 
HETATM    7  O   UNL     1     -46.087  60.466 -58.338  1.00  0.00    -0.270 OA
HETATM    8  C   UNL     1     -44.265  59.561 -56.901  1.00  0.00     0.250 A 
HETATM    9  N   UNL     1     -43.174  59.452 -57.950  1.00  0.00    -0.043 N 
HETATM   10  H   UNL     1     -42.359  59.014 -57.497  1.00  0.00     0.282 HD
HETATM   11  C   UNL     1     -43.731  58.537 -59.009  1.00  0.00     0.204 C 
HETATM   12  C   UNL     1     -42.531  58.424 -59.919  1.00  0.00     0.036 C 
HETATM   13  C   UNL     1     -42.006  59.880 -59.950  1.00  0.00     0.030 C 
HETATM   14  C   UNL     1     -42.608  60.597 -58.726  1.00  0.00     0.237 C 
HETATM   15  C   UNL     1     -44.409  57.449 -58.207  1.00  0.00     0.126 C 
HETATM   16  C   UNL     1     -44.866  58.130 -56.910  1.00  0.00     0.145 C 
HETATM   17  C   UNL     1     -44.316  57.241 -55.839  1.00  0.00     0.239 C 
HETATM   18  O   UNL     1     -44.657  57.393 -54.676  1.00  0.00    -0.272 OA
HETATM   19  N   UNL     1     -43.413  56.353 -56.386  1.00  0.00    -0.252 N 
HETATM   20  C   UNL     1     -43.461  56.384 -57.764  1.00  0.00     0.238 C 
HETATM   21  O   UNL     1     -42.833  55.742 -58.590  1.00  0.00    -0.272 OA
HETATM   22  C   UNL     1     -44.270  62.218 -54.334  1.00  0.00     0.033 A 
HETATM   23  C   UNL     1     -43.241  61.857 -53.464  1.00  0.00     0.039 A 
HETATM   24  H   UNL     1     -46.106  62.348 -56.440  1.00  0.00     0.169 HD
ENDROOT
BRANCH   1  25
HETATM   25  O   UNL     1     -41.511  60.476 -52.736  1.00  0.00    -0.356 OA
HETATM   26  C   UNL     1     -41.875  59.754 -51.565  1.00  0.00     0.210 C 
ENDBRANCH   1  25
BRANCH  19  27
HETATM   27  C   UNL     1     -42.529  55.512 -55.626  1.00  0.00     0.045 A 
HETATM   28  C   UNL     1     -41.274  55.965 -55.181  1.00  0.00     0.030 A 
HETATM   29  C   UNL     1     -40.384  55.124 -54.498  1.00  0.00     0.002 A 
HETATM   30  C   UNL     1     -40.727  53.806 -54.236  1.00  0.00     0.000 A 
HETATM   31  C   UNL     1     -41.965  53.332 -54.647  1.00  0.00     0.002 A 
HETATM   32  C   UNL     1     -42.851  54.174 -55.328  1.00  0.00     0.030 A 
ENDBRANCH  19  27
TORSDOF 2
ENDMDL
