MODEL 1
REMARK VINA RESULT:      -7.2      0.000      0.000
REMARK  4 active torsions:
REMARK  status: ('A' for Active; 'I' for Inactive)
REMARK    1  A    between atoms: O_2  and  C_3 
REMARK    2  A    between atoms: C_5  and  C_6 
REMARK    3  A    between atoms: C_10  and  N_11 
REMARK    4  A    between atoms: C_14  and  C_15 
ROOT
HETATM    1  C   UNL     1     -43.393  56.017 -55.350  1.00  0.00     0.164 C 
HETATM    2  N   UNL     1     -42.975  57.377 -55.678  1.00  0.00    -0.074 N 
HETATM    3  C   UNL     1     -43.039  58.435 -54.814  1.00  0.00     0.736 A 
HETATM    4  N   UNL     1     -42.565  59.498 -55.413  1.00  0.00     0.131 NA
HETATM    5  C   UNL     1     -42.286  59.046 -56.670  1.00  0.00     0.753 A 
HETATM    6  N   UNL     1     -42.512  57.751 -56.884  1.00  0.00     0.037 NA
HETATM    7  N   UNL     1     -43.534  58.300 -53.571  1.00  0.00    -0.214 N 
HETATM    8  C   UNL     1     -44.010  57.023 -53.062  1.00  0.00     0.135 C 
HETATM    9  C   UNL     1     -44.448  56.102 -54.225  1.00  0.00     0.063 C 
HETATM   10  H   UNL     1     -43.473  59.078 -52.921  1.00  0.00     0.178 HD
ENDROOT
BRANCH   1  11
HETATM   11  C   UNL     1     -42.235  55.064 -55.049  1.00  0.00    -0.030 A 
HETATM   12  C   UNL     1     -42.413  53.688 -54.796  1.00  0.00     0.046 A 
HETATM   13  C   UNL     1     -41.323  52.847 -54.549  1.00  0.00     0.068 A 
HETATM   14  C   UNL     1     -40.036  53.379 -54.545  1.00  0.00     0.037 A 
HETATM   15  C   UNL     1     -39.834  54.739 -54.764  1.00  0.00     0.003 A 
HETATM   16  C   UNL     1     -40.924  55.575 -55.004  1.00  0.00     0.009 A 
BRANCH  13  17
HETATM   17  O   UNL     1     -41.386  51.501 -54.307  1.00  0.00    -0.356 OA
HETATM   18  C   UNL     1     -40.152  50.794 -54.286  1.00  0.00     0.210 C 
ENDBRANCH  13  17
ENDBRANCH   1  11
BRANCH   8  19
HETATM   19  C   UNL     1     -43.036  56.367 -52.095  1.00  0.00    -0.035 A 
HETATM   20  C   UNL     1     -41.865  56.996 -51.641  1.00  0.00     0.010 A 
HETATM   21  C   UNL     1     -40.976  56.333 -50.790  1.00  0.00     0.019 A 
HETATM   22  C   UNL     1     -41.254  55.036 -50.372  1.00  0.00     0.011 A 
HETATM   23 BR   UNL     1     -40.046  54.135 -49.231  1.00  0.00    -0.051 Br
HETATM   24  C   UNL     1     -42.418  54.398 -50.788  1.00  0.00     0.019 A 
HETATM   25  C   UNL     1     -43.303  55.061 -51.643  1.00  0.00     0.010 A 
ENDBRANCH   8  19
BRANCH   5  26
HETATM   26  N   UNL     1     -41.792  59.900 -57.558  1.00  0.00    -0.229 N 
HETATM   27  H   UNL     1     -42.232  60.808 -57.621  1.00  0.00     0.174 HD
HETATM   28  H   UNL     1     -40.792  59.890 -57.707  1.00  0.00     0.174 HD
ENDBRANCH   5  26
TORSDOF 4
ENDMDL
MODEL 2
REMARK VINA RESULT:      -7.0     15.690     17.844
REMARK  4 active torsions:
REMARK  status: ('A' for Active; 'I' for Inactive)
REMARK    1  A    between atoms: O_2  and  C_3 
REMARK    2  A    between atoms: C_5  and  C_6 
REMARK    3  A    between atoms: C_10  and  N_11 
REMARK    4  A    between atoms: C_14  and  C_15 
ROOT
HETATM    1  C   UNL     1     -34.739  40.433 -52.683  1.00  0.00     0.164 C 
HETATM    2  N   UNL     1     -35.726  39.535 -52.091  1.00  0.00    -0.074 N 
HETATM    3  C   UNL     1     -37.077  39.743 -52.120  1.00  0.00     0.736 A 
HETATM    4  N   UNL     1     -37.671  38.741 -51.524  1.00  0.00     0.131 NA
HETATM    5  C   UNL     1     -36.628  37.977 -51.089  1.00  0.00     0.753 A 
HETATM    6  N   UNL     1     -35.413  38.415 -51.415  1.00  0.00     0.037 NA
HETATM    7  N   UNL     1     -37.608  40.840 -52.689  1.00  0.00    -0.214 N 
HETATM    8  C   UNL     1     -36.785  41.857 -53.325  1.00  0.00     0.135 C 
HETATM    9  C   UNL     1     -35.356  41.849 -52.736  1.00  0.00     0.063 C 
HETATM   10  H   UNL     1     -38.616  40.915 -52.786  1.00  0.00     0.178 HD
ENDROOT
BRANCH   1  11
HETATM   11  C   UNL     1     -34.176  39.948 -54.020  1.00  0.00    -0.030 A 
HETATM   12  C   UNL     1     -32.975  40.436 -54.575  1.00  0.00     0.046 A 
HETATM   13  C   UNL     1     -32.483  39.946 -55.789  1.00  0.00     0.068 A 
HETATM   14  C   UNL     1     -33.198  38.963 -56.470  1.00  0.00     0.037 A 
HETATM   15  C   UNL     1     -34.401  38.484 -55.958  1.00  0.00     0.003 A 
HETATM   16  C   UNL     1     -34.890  38.979 -54.750  1.00  0.00     0.009 A 
BRANCH  13  17
HETATM   17  O   UNL     1     -31.326  40.340 -56.405  1.00  0.00    -0.356 OA
HETATM   18  C   UNL     1     -30.303  39.360 -56.537  1.00  0.00     0.210 C 
ENDBRANCH  13  17
ENDBRANCH   1  11
BRANCH   8  19
HETATM   19  C   UNL     1     -36.822  41.789 -54.845  1.00  0.00    -0.035 A 
HETATM   20  C   UNL     1     -35.853  42.393 -55.663  1.00  0.00     0.010 A 
HETATM   21  C   UNL     1     -35.956  42.343 -57.056  1.00  0.00     0.019 A 
HETATM   22  C   UNL     1     -37.024  41.677 -57.648  1.00  0.00     0.011 A 
HETATM   23 BR   UNL     1     -37.171  41.621 -59.532  1.00  0.00    -0.051 Br
HETATM   24  C   UNL     1     -37.985  41.052 -56.861  1.00  0.00     0.019 A 
HETATM   25  C   UNL     1     -37.883  41.106 -55.469  1.00  0.00     0.010 A 
ENDBRANCH   8  19
BRANCH   5  26
HETATM   26  N   UNL     1     -36.892  36.864 -50.415  1.00  0.00    -0.229 N 
HETATM   27  H   UNL     1     -36.215  36.571 -49.724  1.00  0.00     0.174 HD
HETATM   28  H   UNL     1     -37.858  36.677 -50.185  1.00  0.00     0.174 HD
ENDBRANCH   5  26
TORSDOF 4
ENDMDL
MODEL 3
REMARK VINA RESULT:      -6.9      4.216      6.644
REMARK  4 active torsions:
REMARK  status: ('A' for Active; 'I' for Inactive)
REMARK    1  A    between atoms: O_2  and  C_3 
REMARK    2  A    between atoms: C_5  and  C_6 
REMARK    3  A    between atoms: C_10  and  N_11 
REMARK    4  A    between atoms: C_14  and  C_15 
ROOT
HETATM    1  C   UNL     1     -43.278  54.881 -50.437  1.00  0.00     0.164 C 
HETATM    2  N   UNL     1     -41.972  54.460 -49.939  1.00  0.00    -0.074 N 
HETATM    3  C   UNL     1     -41.051  53.766 -50.674  1.00  0.00     0.736 A 
HETATM    4  N   UNL     1     -39.986  53.570 -49.940  1.00  0.00     0.131 NA
HETATM    5  C   UNL     1     -40.336  54.109 -48.737  1.00  0.00     0.753 A 
HETATM    6  N   UNL     1     -41.541  54.674 -48.683  1.00  0.00     0.037 NA
HETATM    7  N   UNL     1     -41.302  53.386 -51.940  1.00  0.00    -0.214 N 
HETATM    8  C   UNL     1     -42.554  53.705 -52.610  1.00  0.00     0.135 C 
HETATM    9  C   UNL     1     -43.685  53.922 -51.578  1.00  0.00     0.063 C 
HETATM   10  H   UNL     1     -40.562  52.964 -52.492  1.00  0.00     0.178 HD
ENDROOT
BRANCH   1  11
HETATM   11  C   UNL     1     -43.354  56.363 -50.811  1.00  0.00    -0.030 A 
HETATM   12  C   UNL     1     -42.218  57.192 -50.918  1.00  0.00     0.046 A 
HETATM   13  C   UNL     1     -42.331  58.536 -51.286  1.00  0.00     0.068 A 
HETATM   14  C   UNL     1     -43.591  59.070 -51.546  1.00  0.00     0.037 A 
HETATM   15  C   UNL     1     -44.731  58.281 -51.421  1.00  0.00     0.003 A 
HETATM   16  C   UNL     1     -44.614  56.943 -51.047  1.00  0.00     0.009 A 
BRANCH  13  17
HETATM   17  O   UNL     1     -41.295  59.419 -51.432  1.00  0.00    -0.356 OA
HETATM   18  C   UNL     1     -40.451  59.612 -50.304  1.00  0.00     0.210 C 
ENDBRANCH  13  17
ENDBRANCH   1  11
BRANCH   8  19
HETATM   19  C   UNL     1     -42.418  54.839 -53.616  1.00  0.00    -0.035 A 
HETATM   20  C   UNL     1     -41.194  55.467 -53.903  1.00  0.00     0.010 A 
HETATM   21  C   UNL     1     -41.129  56.537 -54.800  1.00  0.00     0.019 A 
HETATM   22  C   UNL     1     -42.285  56.984 -55.432  1.00  0.00     0.011 A 
HETATM   23 BR   UNL     1     -42.198  58.439 -56.635  1.00  0.00    -0.051 Br
HETATM   24  C   UNL     1     -43.505  56.365 -55.182  1.00  0.00     0.019 A 
HETATM   25  C   UNL     1     -43.570  55.298 -54.281  1.00  0.00     0.010 A 
ENDBRANCH   8  19
BRANCH   5  26
HETATM   26  N   UNL     1     -39.461  54.063 -47.739  1.00  0.00    -0.229 N 
HETATM   27  H   UNL     1     -38.652  54.665 -47.806  1.00  0.00     0.174 HD
HETATM   28  H   UNL     1     -39.825  53.924 -46.807  1.00  0.00     0.174 HD
ENDBRANCH   5  26
TORSDOF 4
ENDMDL
MODEL 4
REMARK VINA RESULT:      -6.9      2.194      3.240
REMARK  4 active torsions:
REMARK  status: ('A' for Active; 'I' for Inactive)
REMARK    1  A    between atoms: O_2  and  C_3 
REMARK    2  A    between atoms: C_5  and  C_6 
REMARK    3  A    between atoms: C_10  and  N_11 
REMARK    4  A    between atoms: C_14  and  C_15 
ROOT
HETATM    1  C   UNL     1     -43.858  55.924 -55.147  1.00  0.00     0.164 C 
HETATM    2  N   UNL     1     -43.375  56.323 -56.465  1.00  0.00    -0.074 N 
HETATM    3  C   UNL     1     -43.116  57.614 -56.835  1.00  0.00     0.736 A 
HETATM    4  N   UNL     1     -42.675  57.620 -58.067  1.00  0.00     0.131 NA
HETATM    5  C   UNL     1     -42.749  56.306 -58.428  1.00  0.00     0.753 A 
HETATM    6  N   UNL     1     -43.165  55.467 -57.481  1.00  0.00     0.037 NA
HETATM    7  N   UNL     1     -43.321  58.643 -55.993  1.00  0.00    -0.214 N 
HETATM    8  C   UNL     1     -43.809  58.446 -54.636  1.00  0.00     0.135 C 
HETATM    9  C   UNL     1     -44.606  57.126 -54.530  1.00  0.00     0.063 C 
HETATM   10  H   UNL     1     -43.022  59.576 -56.260  1.00  0.00     0.178 HD
ENDROOT
BRANCH   1  11
HETATM   11  C   UNL     1     -42.779  55.329 -54.241  1.00  0.00    -0.030 A 
HETATM   12  C   UNL     1     -43.029  54.898 -52.921  1.00  0.00     0.046 A 
HETATM   13  C   UNL     1     -42.018  54.337 -52.135  1.00  0.00     0.068 A 
HETATM   14  C   UNL     1     -40.734  54.208 -52.662  1.00  0.00     0.037 A 
HETATM   15  C   UNL     1     -40.454  54.650 -53.952  1.00  0.00     0.003 A 
HETATM   16  C   UNL     1     -41.464  55.214 -54.730  1.00  0.00     0.009 A 
BRANCH  13  17
HETATM   17  O   UNL     1     -42.158  53.876 -50.854  1.00  0.00    -0.356 OA
HETATM   18  C   UNL     1     -41.929  54.810 -49.806  1.00  0.00     0.210 C 
ENDBRANCH  13  17
ENDBRANCH   1  11
BRANCH   8  19
HETATM   19  C   UNL     1     -42.718  58.590 -53.584  1.00  0.00    -0.035 A 
HETATM   20  C   UNL     1     -42.969  58.513 -52.205  1.00  0.00     0.010 A 
HETATM   21  C   UNL     1     -41.942  58.700 -51.276  1.00  0.00     0.019 A 
HETATM   22  C   UNL     1     -40.646  58.953 -51.717  1.00  0.00     0.011 A 
HETATM   23 BR   UNL     1     -39.259  59.218 -50.460  1.00  0.00    -0.051 Br
HETATM   24  C   UNL     1     -40.367  59.011 -53.078  1.00  0.00     0.019 A 
HETATM   25  C   UNL     1     -41.396  58.829 -54.005  1.00  0.00     0.010 A 
ENDBRANCH   8  19
BRANCH   5  26
HETATM   26  N   UNL     1     -42.379  55.961 -59.655  1.00  0.00    -0.229 N 
HETATM   27  H   UNL     1     -41.976  56.684 -60.237  1.00  0.00     0.174 HD
HETATM   28  H   UNL     1     -41.995  55.036 -59.783  1.00  0.00     0.174 HD
ENDBRANCH   5  26
TORSDOF 4
ENDMDL
MODEL 5
REMARK VINA RESULT:      -6.9      2.332      4.705
REMARK  4 active torsions:
REMARK  status: ('A' for Active; 'I' for Inactive)
REMARK    1  A    between atoms: O_2  and  C_3 
REMARK    2  A    between atoms: C_5  and  C_6 
REMARK    3  A    between atoms: C_10  and  N_11 
REMARK    4  A    between atoms: C_14  and  C_15 
ROOT
HETATM    1  C   UNL     1     -42.231  58.473 -51.935  1.00  0.00     0.164 C 
HETATM    2  N   UNL     1     -43.562  58.895 -52.360  1.00  0.00    -0.074 N 
HETATM    3  C   UNL     1     -44.016  58.839 -53.649  1.00  0.00     0.736 A 
HETATM    4  N   UNL     1     -45.252  59.267 -53.680  1.00  0.00     0.131 NA
HETATM    5  C   UNL     1     -45.484  59.638 -52.388  1.00  0.00     0.753 A 
HETATM    6  N   UNL     1     -44.483  59.425 -51.536  1.00  0.00     0.037 NA
HETATM    7  N   UNL     1     -43.234  58.403 -54.653  1.00  0.00    -0.214 N 
HETATM    8  C   UNL     1     -41.871  57.946 -54.429  1.00  0.00     0.135 C 
HETATM    9  C   UNL     1     -41.284  58.588 -53.150  1.00  0.00     0.063 C 
HETATM   10  H   UNL     1     -43.632  58.275 -55.578  1.00  0.00     0.178 HD
ENDROOT
BRANCH   1  11
HETATM   11  C   UNL     1     -42.200  57.108 -51.247  1.00  0.00    -0.030 A 
HETATM   12  C   UNL     1     -41.052  56.587 -50.614  1.00  0.00     0.046 A 
HETATM   13  C   UNL     1     -41.075  55.343 -49.975  1.00  0.00     0.068 A 
HETATM   14  C   UNL     1     -42.252  54.599 -49.970  1.00  0.00     0.037 A 
HETATM   15  C   UNL     1     -43.392  55.076 -50.611  1.00  0.00     0.003 A 
HETATM   16  C   UNL     1     -43.363  56.314 -51.252  1.00  0.00     0.009 A 
BRANCH  13  17
HETATM   17  O   UNL     1     -40.024  54.757 -49.322  1.00  0.00    -0.356 OA
HETATM   18  C   UNL     1     -40.326  54.048 -48.127  1.00  0.00     0.210 C 
ENDBRANCH  13  17
ENDBRANCH   1  11
BRANCH   8  19
HETATM   19  C   UNL     1     -41.736  56.431 -54.471  1.00  0.00    -0.035 A 
HETATM   20  C   UNL     1     -42.831  55.568 -54.636  1.00  0.00     0.010 A 
HETATM   21  C   UNL     1     -42.662  54.181 -54.620  1.00  0.00     0.019 A 
HETATM   22  C   UNL     1     -41.392  53.639 -54.450  1.00  0.00     0.011 A 
HETATM   23 BR   UNL     1     -41.164  51.763 -54.414  1.00  0.00    -0.051 Br
HETATM   24  C   UNL     1     -40.287  54.472 -54.306  1.00  0.00     0.019 A 
HETATM   25  C   UNL     1     -40.459  55.859 -54.319  1.00  0.00     0.010 A 
ENDBRANCH   8  19
BRANCH   5  26
HETATM   26  N   UNL     1     -46.671  60.142 -52.073  1.00  0.00    -0.229 N 
HETATM   27  H   UNL     1     -47.116  60.739 -52.757  1.00  0.00     0.174 HD
HETATM   28  H   UNL     1     -47.295  59.560 -51.532  1.00  0.00     0.174 HD
ENDBRANCH   5  26
TORSDOF 4
ENDMDL
MODEL 6
REMARK VINA RESULT:      -6.7     15.519     17.823
REMARK  4 active torsions:
REMARK  status: ('A' for Active; 'I' for Inactive)
REMARK    1  A    between atoms: O_2  and  C_3 
REMARK    2  A    between atoms: C_5  and  C_6 
REMARK    3  A    between atoms: C_10  and  N_11 
REMARK    4  A    between atoms: C_14  and  C_15 
ROOT
HETATM    1  C   UNL     1     -34.460  41.054 -55.072  1.00  0.00     0.164 C 
HETATM    2  N   UNL     1     -35.266  41.070 -53.855  1.00  0.00    -0.074 N 
HETATM    3  C   UNL     1     -36.497  41.657 -53.750  1.00  0.00     0.736 A 
HETATM    4  N   UNL     1     -36.953  41.468 -52.538  1.00  0.00     0.131 NA
HETATM    5  C   UNL     1     -35.926  40.816 -51.920  1.00  0.00     0.753 A 
HETATM    6  N   UNL     1     -34.870  40.541 -52.684  1.00  0.00     0.037 NA
HETATM    7  N   UNL     1     -37.059  42.305 -54.786  1.00  0.00    -0.214 N 
HETATM    8  C   UNL     1     -36.405  42.405 -56.082  1.00  0.00     0.135 C 
HETATM    9  C   UNL     1     -34.872  42.269 -55.932  1.00  0.00     0.063 C 
HETATM   10  H   UNL     1     -38.014  42.639 -54.709  1.00  0.00     0.178 HD
ENDROOT
BRANCH   1  11
HETATM   11  C   UNL     1     -34.490  39.721 -55.822  1.00  0.00    -0.030 A 
HETATM   12  C   UNL     1     -33.677  39.445 -56.941  1.00  0.00     0.046 A 
HETATM   13  C   UNL     1     -33.718  38.204 -57.583  1.00  0.00     0.068 A 
HETATM   14  C   UNL     1     -34.586  37.220 -57.112  1.00  0.00     0.037 A 
HETATM   15  C   UNL     1     -35.420  37.475 -56.027  1.00  0.00     0.003 A 
HETATM   16  C   UNL     1     -35.379  38.717 -55.394  1.00  0.00     0.009 A 
BRANCH  13  17
HETATM   17  O   UNL     1     -32.964  37.832 -58.662  1.00  0.00    -0.356 OA
HETATM   18  C   UNL     1     -31.626  37.427 -58.402  1.00  0.00     0.210 C 
ENDBRANCH  13  17
ENDBRANCH   1  11
BRANCH   8  19
HETATM   19  C   UNL     1     -37.002  41.470 -57.124  1.00  0.00    -0.035 A 
HETATM   20  C   UNL     1     -38.014  40.540 -56.830  1.00  0.00     0.010 A 
HETATM   21  C   UNL     1     -38.496  39.669 -57.811  1.00  0.00     0.019 A 
HETATM   22  C   UNL     1     -37.982  39.726 -59.103  1.00  0.00     0.011 A 
HETATM   23 BR   UNL     1     -38.625  38.540 -60.426  1.00  0.00    -0.051 Br
HETATM   24  C   UNL     1     -36.996  40.653 -59.426  1.00  0.00     0.019 A 
HETATM   25  C   UNL     1     -36.511  41.519 -58.443  1.00  0.00     0.010 A 
ENDBRANCH   8  19
BRANCH   5  26
HETATM   26  N   UNL     1     -36.062  40.482 -50.642  1.00  0.00    -0.229 N 
HETATM   27  H   UNL     1     -35.897  39.515 -50.397  1.00  0.00     0.174 HD
HETATM   28  H   UNL     1     -35.776  41.161 -49.951  1.00  0.00     0.174 HD
ENDBRANCH   5  26
TORSDOF 4
ENDMDL
MODEL 7
REMARK VINA RESULT:      -6.6      2.210      3.294
REMARK  4 active torsions:
REMARK  status: ('A' for Active; 'I' for Inactive)
REMARK    1  A    between atoms: O_2  and  C_3 
REMARK    2  A    between atoms: C_5  and  C_6 
REMARK    3  A    between atoms: C_10  and  N_11 
REMARK    4  A    between atoms: C_14  and  C_15 
ROOT
HETATM    1  C   UNL     1     -43.882  56.747 -56.269  1.00  0.00     0.164 C 
HETATM    2  N   UNL     1     -43.099  57.250 -57.394  1.00  0.00    -0.074 N 
HETATM    3  C   UNL     1     -42.731  58.557 -57.557  1.00  0.00     0.736 A 
HETATM    4  N   UNL     1     -42.019  58.661 -58.650  1.00  0.00     0.131 NA
HETATM    5  C   UNL     1     -42.038  57.394 -59.154  1.00  0.00     0.753 A 
HETATM    6  N   UNL     1     -42.681  56.488 -58.420  1.00  0.00     0.037 NA
HETATM    7  N   UNL     1     -43.100  59.507 -56.680  1.00  0.00    -0.214 N 
HETATM    8  C   UNL     1     -43.892  59.203 -55.498  1.00  0.00     0.135 C 
HETATM    9  C   UNL     1     -44.724  57.918 -55.714  1.00  0.00     0.063 C 
HETATM   10  H   UNL     1     -42.725  60.446 -56.772  1.00  0.00     0.178 HD
ENDROOT
BRANCH   1  11
HETATM   11  C   UNL     1     -43.055  56.017 -55.210  1.00  0.00    -0.030 A 
HETATM   12  C   UNL     1     -43.628  55.345 -54.110  1.00  0.00     0.046 A 
HETATM   13  C   UNL     1     -42.836  54.669 -53.177  1.00  0.00     0.068 A 
HETATM   14  C   UNL     1     -41.451  54.664 -53.333  1.00  0.00     0.037 A 
HETATM   15  C   UNL     1     -40.858  55.342 -54.393  1.00  0.00     0.003 A 
HETATM   16  C   UNL     1     -41.652  56.020 -55.318  1.00  0.00     0.009 A 
BRANCH  13  17
HETATM   17  O   UNL     1     -43.291  53.976 -52.088  1.00  0.00    -0.356 OA
HETATM   18  C   UNL     1     -43.199  54.628 -50.827  1.00  0.00     0.210 C 
ENDBRANCH  13  17
ENDBRANCH   1  11
BRANCH   8  19
HETATM   19  C   UNL     1     -43.070  59.192 -54.217  1.00  0.00    -0.035 A 
HETATM   20  C   UNL     1     -41.684  59.423 -54.193  1.00  0.00     0.010 A 
HETATM   21  C   UNL     1     -40.965  59.354 -52.997  1.00  0.00     0.019 A 
HETATM   22  C   UNL     1     -41.625  59.065 -51.807  1.00  0.00     0.011 A 
HETATM   23 BR   UNL     1     -40.649  58.958 -50.191  1.00  0.00    -0.051 Br
HETATM   24  C   UNL     1     -42.999  58.854 -51.799  1.00  0.00     0.019 A 
HETATM   25  C   UNL     1     -43.717  58.918 -52.997  1.00  0.00     0.010 A 
ENDBRANCH   8  19
BRANCH   5  26
HETATM   26  N   UNL     1     -41.404  57.153 -60.296  1.00  0.00    -0.229 N 
HETATM   27  H   UNL     1     -41.918  56.661 -61.014  1.00  0.00     0.174 HD
HETATM   28  H   UNL     1     -40.757  57.855 -60.626  1.00  0.00     0.174 HD
ENDBRANCH   5  26
TORSDOF 4
ENDMDL
MODEL 8
REMARK VINA RESULT:      -6.5      3.812      5.791
REMARK  4 active torsions:
REMARK  status: ('A' for Active; 'I' for Inactive)
REMARK    1  A    between atoms: O_2  and  C_3 
REMARK    2  A    between atoms: C_5  and  C_6 
REMARK    3  A    between atoms: C_10  and  N_11 
REMARK    4  A    between atoms: C_14  and  C_15 
ROOT
HETATM    1  C   UNL     1     -41.581  55.394 -51.009  1.00  0.00     0.164 C 
HETATM    2  N   UNL     1     -41.487  54.553 -52.198  1.00  0.00    -0.074 N 
HETATM    3  C   UNL     1     -42.558  54.160 -52.953  1.00  0.00     0.736 A 
HETATM    4  N   UNL     1     -42.125  53.439 -53.955  1.00  0.00     0.131 NA
HETATM    5  C   UNL     1     -40.782  53.365 -53.726  1.00  0.00     0.753 A 
HETATM    6  N   UNL     1     -40.337  54.037 -52.666  1.00  0.00     0.037 NA
HETATM    7  N   UNL     1     -43.815  54.508 -52.627  1.00  0.00    -0.214 N 
HETATM    8  C   UNL     1     -44.113  55.338 -51.469  1.00  0.00     0.135 C 
HETATM    9  C   UNL     1     -42.993  55.216 -50.409  1.00  0.00     0.063 C 
HETATM   10  H   UNL     1     -44.576  54.289 -53.263  1.00  0.00     0.178 HD
ENDROOT
BRANCH   1  11
HETATM   11  C   UNL     1     -41.181  56.852 -51.243  1.00  0.00    -0.030 A 
HETATM   12  C   UNL     1     -41.070  57.426 -52.527  1.00  0.00     0.046 A 
HETATM   13  C   UNL     1     -40.726  58.771 -52.694  1.00  0.00     0.068 A 
HETATM   14  C   UNL     1     -40.480  59.559 -51.572  1.00  0.00     0.037 A 
HETATM   15  C   UNL     1     -40.555  59.011 -50.295  1.00  0.00     0.003 A 
HETATM   16  C   UNL     1     -40.893  57.668 -50.133  1.00  0.00     0.009 A 
BRANCH  13  17
HETATM   17  O   UNL     1     -40.606  59.426 -53.890  1.00  0.00    -0.356 OA
HETATM   18  C   UNL     1     -41.810  59.869 -54.504  1.00  0.00     0.210 C 
ENDBRANCH  13  17
ENDBRANCH   1  11
BRANCH   8  19
HETATM   19  C   UNL     1     -44.454  56.774 -51.837  1.00  0.00    -0.035 A 
HETATM   20  C   UNL     1     -44.714  57.770 -50.881  1.00  0.00     0.010 A 
HETATM   21  C   UNL     1     -45.071  59.064 -51.270  1.00  0.00     0.019 A 
HETATM   22  C   UNL     1     -45.159  59.382 -52.622  1.00  0.00     0.011 A 
HETATM   23 BR   UNL     1     -45.655  61.129 -53.147  1.00  0.00    -0.051 Br
HETATM   24  C   UNL     1     -44.885  58.421 -53.589  1.00  0.00     0.019 A 
HETATM   25  C   UNL     1     -44.533  57.126 -53.198  1.00  0.00     0.010 A 
ENDBRANCH   8  19
BRANCH   5  26
HETATM   26  N   UNL     1     -40.029  52.674 -54.574  1.00  0.00    -0.229 N 
HETATM   27  H   UNL     1     -39.180  52.263 -54.208  1.00  0.00     0.174 HD
HETATM   28  H   UNL     1     -40.503  52.135 -55.284  1.00  0.00     0.174 HD
ENDBRANCH   5  26
TORSDOF 4
ENDMDL
MODEL 9
REMARK VINA RESULT:      -6.4      2.811      4.793
REMARK  4 active torsions:
REMARK  status: ('A' for Active; 'I' for Inactive)
REMARK    1  A    between atoms: O_2  and  C_3 
REMARK    2  A    between atoms: C_5  and  C_6 
REMARK    3  A    between atoms: C_10  and  N_11 
REMARK    4  A    between atoms: C_14  and  C_15 
ROOT
HETATM    1  C   UNL     1     -42.680  59.024 -55.987  1.00  0.00     0.164 C 
HETATM    2  N   UNL     1     -44.088  59.008 -56.371  1.00  0.00    -0.074 N 
HETATM    3  C   UNL     1     -44.750  57.907 -56.839  1.00  0.00     0.736 A 
HETATM    4  N   UNL     1     -45.998  58.229 -57.065  1.00  0.00     0.131 NA
HETATM    5  C   UNL     1     -46.029  59.563 -56.781  1.00  0.00     0.753 A 
HETATM    6  N   UNL     1     -44.887  60.090 -56.345  1.00  0.00     0.037 NA
HETATM    7  N   UNL     1     -44.124  56.729 -57.010  1.00  0.00    -0.214 N 
HETATM    8  C   UNL     1     -42.717  56.547 -56.690  1.00  0.00     0.135 C 
HETATM    9  C   UNL     1     -41.963  57.896 -56.761  1.00  0.00     0.063 C 
HETATM   10  H   UNL     1     -44.665  55.907 -57.259  1.00  0.00     0.178 HD
ENDROOT
BRANCH   1  11
HETATM   11  C   UNL     1     -42.446  58.989 -54.475  1.00  0.00    -0.030 A 
HETATM   12  C   UNL     1     -41.181  59.186 -53.884  1.00  0.00     0.046 A 
HETATM   13  C   UNL     1     -41.016  59.170 -52.496  1.00  0.00     0.068 A 
HETATM   14  C   UNL     1     -42.122  58.947 -51.679  1.00  0.00     0.037 A 
HETATM   15  C   UNL     1     -43.377  58.721 -52.237  1.00  0.00     0.003 A 
HETATM   16  C   UNL     1     -43.536  58.732 -53.622  1.00  0.00     0.009 A 
BRANCH  13  17
HETATM   17  O   UNL     1     -39.839  59.365 -51.825  1.00  0.00    -0.356 OA
HETATM   18  C   UNL     1     -39.931  59.634 -50.431  1.00  0.00     0.210 C 
ENDBRANCH  13  17
ENDBRANCH   1  11
BRANCH   8  19
HETATM   19  C   UNL     1     -42.495  55.790 -55.389  1.00  0.00    -0.035 A 
HETATM   20  C   UNL     1     -43.545  55.261 -54.621  1.00  0.00     0.010 A 
HETATM   21  C   UNL     1     -43.294  54.616 -53.407  1.00  0.00     0.019 A 
HETATM   22  C   UNL     1     -41.986  54.479 -52.952  1.00  0.00     0.011 A 
HETATM   23 BR   UNL     1     -41.647  53.617 -51.305  1.00  0.00    -0.051 Br
HETATM   24  C   UNL     1     -40.926  54.974 -53.704  1.00  0.00     0.019 A 
HETATM   25  C   UNL     1     -41.179  55.623 -54.915  1.00  0.00     0.010 A 
ENDBRANCH   8  19
BRANCH   5  26
HETATM   26  N   UNL     1     -47.175  60.218 -56.926  1.00  0.00    -0.229 N 
HETATM   27  H   UNL     1     -47.123  61.221 -57.044  1.00  0.00     0.174 HD
HETATM   28  H   UNL     1     -47.913  59.757 -57.440  1.00  0.00     0.174 HD
ENDBRANCH   5  26
TORSDOF 4
ENDMDL
MODEL 10
REMARK VINA RESULT:      -6.4      2.291      3.609
REMARK  4 active torsions:
REMARK  status: ('A' for Active; 'I' for Inactive)
REMARK    1  A    between atoms: O_2  and  C_3 
REMARK    2  A    between atoms: C_5  and  C_6 
REMARK    3  A    between atoms: C_10  and  N_11 
REMARK    4  A    between atoms: C_14  and  C_15 
ROOT
HETATM    1  C   UNL     1     -43.835  56.687 -53.149  1.00  0.00     0.164 C 
HETATM    2  N   UNL     1     -43.523  56.598 -54.572  1.00  0.00    -0.074 N 
HETATM    3  C   UNL     1     -43.064  57.640 -55.329  1.00  0.00     0.736 A 
HETATM    4  N   UNL     1     -42.863  57.217 -56.551  1.00  0.00     0.131 NA
HETATM    5  C   UNL     1     -43.282  55.919 -56.502  1.00  0.00     0.753 A 
HETATM    6  N   UNL     1     -43.690  55.487 -55.311  1.00  0.00     0.037 NA
HETATM    7  N   UNL     1     -42.887  58.866 -54.807  1.00  0.00    -0.214 N 
HETATM    8  C   UNL     1     -43.152  59.156 -53.405  1.00  0.00     0.135 C 
HETATM    9  C   UNL     1     -44.182  58.158 -52.828  1.00  0.00     0.063 C 
HETATM   10  H   UNL     1     -42.448  59.591 -55.366  1.00  0.00     0.178 HD
ENDROOT
BRANCH   1  11
HETATM   11  C   UNL     1     -42.763  56.086 -52.237  1.00  0.00    -0.030 A 
HETATM   12  C   UNL     1     -41.871  55.076 -52.655  1.00  0.00     0.046 A 
HETATM   13  C   UNL     1     -40.890  54.572 -51.796  1.00  0.00     0.068 A 
HETATM   14  C   UNL     1     -40.795  55.071 -50.498  1.00  0.00     0.037 A 
HETATM   15  C   UNL     1     -41.681  56.048 -50.052  1.00  0.00     0.003 A 
HETATM   16  C   UNL     1     -42.661  56.543 -50.910  1.00  0.00     0.009 A 
BRANCH  13  17
HETATM   17  O   UNL     1     -39.970  53.607 -52.105  1.00  0.00    -0.356 OA
HETATM   18  C   UNL     1     -40.346  52.652 -53.089  1.00  0.00     0.210 C 
ENDBRANCH  13  17
ENDBRANCH   1  11
BRANCH   8  19
HETATM   19  C   UNL     1     -41.884  59.277 -52.572  1.00  0.00    -0.035 A 
HETATM   20  C   UNL     1     -40.623  58.861 -53.030  1.00  0.00     0.010 A 
HETATM   21  C   UNL     1     -39.496  58.948 -52.209  1.00  0.00     0.019 A 
HETATM   22  C   UNL     1     -39.613  59.467 -50.923  1.00  0.00     0.011 A 
HETATM   23 BR   UNL     1     -38.091  59.574 -49.807  1.00  0.00    -0.051 Br
HETATM   24  C   UNL     1     -40.846  59.908 -50.453  1.00  0.00     0.019 A 
HETATM   25  C   UNL     1     -41.974  59.815 -51.274  1.00  0.00     0.010 A 
ENDBRANCH   8  19
BRANCH   5  26
HETATM   26  N   UNL     1     -43.224  55.189 -57.610  1.00  0.00    -0.229 N 
HETATM   27  H   UNL     1     -42.397  55.286 -58.184  1.00  0.00     0.174 HD
HETATM   28  H   UNL     1     -43.626  54.263 -57.578  1.00  0.00     0.174 HD
ENDBRANCH   5  26
TORSDOF 4
ENDMDL
