MODEL 1
REMARK VINA RESULT:      -8.2      0.000      0.000
REMARK  4 active torsions:
REMARK  status: ('A' for Active; 'I' for Inactive)
REMARK    1  A    between atoms: C_3  and  C_4 
REMARK       I    between atoms: C_4  and  N_5 
REMARK    2  A    between atoms: N_5  and  C_6 
REMARK    3  A    between atoms: C_13  and  C_14 
REMARK       I    between atoms: C_14  and  N_15 
REMARK    4  A    between atoms: C_25  and  O_26 
ROOT
HETATM    1  C   UNL     1     -41.841  56.940 -52.858  1.00  0.00     0.280 C 
HETATM    2  N   UNL     1     -43.214  57.025 -52.704  1.00  0.00    -0.321 N 
HETATM    3  O   UNL     1     -41.078  57.892 -52.964  1.00  0.00    -0.265 OA
HETATM    4  H   UNL     1     -43.684  56.127 -52.654  1.00  0.00     0.169 HD
ENDROOT
BRANCH   2   5
HETATM    5  C   UNL     1     -44.013  58.175 -52.560  1.00  0.00     0.036 A 
HETATM    6  C   UNL     1     -44.299  58.778 -51.328  1.00  0.00     0.046 A 
HETATM    7  C   UNL     1     -45.142  59.910 -51.284  1.00  0.00     0.030 A 
HETATM    8  C   UNL     1     -45.664  60.404 -52.472  1.00  0.00     0.063 A 
HETATM    9  C   UNL     1     -45.662  60.768 -50.266  1.00  0.00     0.156 A 
HETATM   10  N   UNL     1     -46.431  61.478 -52.114  1.00  0.00    -0.277 N 
HETATM   11  C   UNL     1     -45.393  59.837 -53.719  1.00  0.00     0.034 A 
HETATM   12  H   UNL     1     -46.967  62.080 -52.727  1.00  0.00     0.189 HD
HETATM   13  N   UNL     1     -46.456  61.728 -50.795  1.00  0.00    -0.168 NA
HETATM   14  C   UNL     1     -44.558  58.713 -53.735  1.00  0.00     0.032 A 
BRANCH   9  15
HETATM   15  C   UNL     1     -45.425  60.689 -48.820  1.00  0.00     0.270 C 
HETATM   16  N   UNL     1     -44.156  61.035 -48.441  1.00  0.00    -0.365 N 
HETATM   17  H   UNL     1     -43.496  61.313 -49.157  1.00  0.00     0.159 HD
HETATM   18  H   UNL     1     -43.902  61.013 -47.467  1.00  0.00     0.159 HD
HETATM   19  O   UNL     1     -46.262  60.348 -47.990  1.00  0.00    -0.266 OA
ENDBRANCH   9  15
ENDBRANCH   2   5
BRANCH   1  20
HETATM   20  C   UNL     1     -41.369  55.562 -52.862  1.00  0.00     0.150 A 
HETATM   21  C   UNL     1     -41.176  54.659 -53.902  1.00  0.00    -0.009 A 
HETATM   22  C   UNL     1     -41.449  54.897 -55.343  1.00  0.00     0.052 C 
HETATM   23  C   UNL     1     -40.633  53.480 -53.307  1.00  0.00     0.009 A 
HETATM   24  C   UNL     1     -40.559  53.734 -51.944  1.00  0.00     0.087 A 
HETATM   25  C   UNL     1     -40.187  52.228 -53.770  1.00  0.00     0.051 A 
HETATM   26  O   UNL     1     -41.007  54.987 -51.671  1.00  0.00    -0.304 OA
HETATM   27  C   UNL     1     -40.082  52.826 -51.004  1.00  0.00     0.041 A 
HETATM   28  C   UNL     1     -39.638  51.589 -51.491  1.00  0.00     0.039 A 
HETATM   29  C   UNL     1     -39.677  51.291 -52.857  1.00  0.00     0.069 A 
BRANCH  29  30
HETATM   30  O   UNL     1     -39.254  50.122 -53.431  1.00  0.00    -0.356 OA
HETATM   31  C   UNL     1     -39.822  49.779 -54.689  1.00  0.00     0.210 C 
ENDBRANCH  29  30
ENDBRANCH   1  20
TORSDOF 4
ENDMDL
MODEL 2
REMARK VINA RESULT:      -8.2      0.882      1.756
REMARK  4 active torsions:
REMARK  status: ('A' for Active; 'I' for Inactive)
REMARK    1  A    between atoms: C_3  and  C_4 
REMARK       I    between atoms: C_4  and  N_5 
REMARK    2  A    between atoms: N_5  and  C_6 
REMARK    3  A    between atoms: C_13  and  C_14 
REMARK       I    between atoms: C_14  and  N_15 
REMARK    4  A    between atoms: C_25  and  O_26 
ROOT
HETATM    1  C   UNL     1     -41.769  56.874 -52.817  1.00  0.00     0.280 C 
HETATM    2  N   UNL     1     -43.118  56.908 -52.511  1.00  0.00    -0.321 N 
HETATM    3  O   UNL     1     -41.082  57.845 -53.112  1.00  0.00    -0.265 OA
HETATM    4  H   UNL     1     -43.524  56.000 -52.312  1.00  0.00     0.169 HD
ENDROOT
BRANCH   2   5
HETATM    5  C   UNL     1     -43.965  58.027 -52.394  1.00  0.00     0.036 A 
HETATM    6  C   UNL     1     -44.266  58.654 -51.178  1.00  0.00     0.046 A 
HETATM    7  C   UNL     1     -45.157  59.750 -51.160  1.00  0.00     0.030 A 
HETATM    8  C   UNL     1     -45.709  60.185 -52.357  1.00  0.00     0.063 A 
HETATM    9  C   UNL     1     -45.706  60.615 -50.164  1.00  0.00     0.156 A 
HETATM   10  N   UNL     1     -46.519  61.235 -52.024  1.00  0.00    -0.277 N 
HETATM   11  C   UNL     1     -45.424  59.593 -53.589  1.00  0.00     0.034 A 
HETATM   12  H   UNL     1     -47.086  61.795 -52.650  1.00  0.00     0.189 HD
HETATM   13  N   UNL     1     -46.545  61.523 -50.713  1.00  0.00    -0.168 NA
HETATM   14  C   UNL     1     -44.541  58.506 -53.580  1.00  0.00     0.032 A 
BRANCH   9  15
HETATM   15  C   UNL     1     -45.455  60.589 -48.717  1.00  0.00     0.270 C 
HETATM   16  N   UNL     1     -44.188  60.970 -48.363  1.00  0.00    -0.365 N 
HETATM   17  H   UNL     1     -43.540  61.235 -49.095  1.00  0.00     0.159 HD
HETATM   18  H   UNL     1     -43.925  60.986 -47.392  1.00  0.00     0.159 HD
HETATM   19  O   UNL     1     -46.278  60.262 -47.869  1.00  0.00    -0.266 OA
ENDBRANCH   9  15
ENDBRANCH   2   5
BRANCH   1  20
HETATM   20  C   UNL     1     -41.217  55.529 -52.734  1.00  0.00     0.150 A 
HETATM   21  C   UNL     1     -40.802  54.770 -51.645  1.00  0.00    -0.009 A 
HETATM   22  C   UNL     1     -40.802  55.194 -50.221  1.00  0.00     0.052 C 
HETATM   23  C   UNL     1     -40.413  53.501 -52.171  1.00  0.00     0.009 A 
HETATM   24  C   UNL     1     -40.591  53.582 -53.545  1.00  0.00     0.087 A 
HETATM   25  C   UNL     1     -39.940  52.288 -51.637  1.00  0.00     0.051 A 
HETATM   26  O   UNL     1     -41.071  54.804 -53.890  1.00  0.00    -0.304 OA
HETATM   27  C   UNL     1     -40.320  52.543 -54.432  1.00  0.00     0.041 A 
HETATM   28  C   UNL     1     -39.856  51.344 -53.875  1.00  0.00     0.039 A 
HETATM   29  C   UNL     1     -39.676  51.207 -52.494  1.00  0.00     0.069 A 
BRANCH  29  30
HETATM   30  O   UNL     1     -39.243  50.077 -51.855  1.00  0.00    -0.356 OA
HETATM   31  C   UNL     1     -39.827  49.787 -50.591  1.00  0.00     0.210 C 
ENDBRANCH  29  30
ENDBRANCH   1  20
TORSDOF 4
ENDMDL
MODEL 3
REMARK VINA RESULT:      -8.2      4.580      8.501
REMARK  4 active torsions:
REMARK  status: ('A' for Active; 'I' for Inactive)
REMARK    1  A    between atoms: C_3  and  C_4 
REMARK       I    between atoms: C_4  and  N_5 
REMARK    2  A    between atoms: N_5  and  C_6 
REMARK    3  A    between atoms: C_13  and  C_14 
REMARK       I    between atoms: C_14  and  N_15 
REMARK    4  A    between atoms: C_25  and  O_26 
ROOT
HETATM    1  C   UNL     1     -42.488  55.913 -55.627  1.00  0.00     0.280 C 
HETATM    2  N   UNL     1     -41.252  55.364 -55.333  1.00  0.00    -0.321 N 
HETATM    3  O   UNL     1     -43.549  55.600 -55.098  1.00  0.00    -0.265 OA
HETATM    4  H   UNL     1     -40.489  55.734 -55.889  1.00  0.00     0.169 HD
ENDROOT
BRANCH   2   5
HETATM    5  C   UNL     1     -40.925  54.415 -54.346  1.00  0.00     0.036 A 
HETATM    6  C   UNL     1     -41.165  54.597 -52.977  1.00  0.00     0.046 A 
HETATM    7  C   UNL     1     -40.766  53.600 -52.060  1.00  0.00     0.030 A 
HETATM    8  C   UNL     1     -40.148  52.454 -52.542  1.00  0.00     0.063 A 
HETATM    9  C   UNL     1     -40.820  53.423 -50.643  1.00  0.00     0.156 A 
HETATM   10  N   UNL     1     -39.878  51.694 -51.438  1.00  0.00    -0.277 N 
HETATM   11  C   UNL     1     -39.901  52.233 -53.899  1.00  0.00     0.034 A 
HETATM   12  H   UNL     1     -39.425  50.788 -51.413  1.00  0.00     0.189 HD
HETATM   13  N   UNL     1     -40.266  52.244 -50.276  1.00  0.00    -0.168 NA
HETATM   14  C   UNL     1     -40.303  53.238 -54.788  1.00  0.00     0.032 A 
BRANCH   9  15
HETATM   15  C   UNL     1     -41.374  54.346 -49.645  1.00  0.00     0.270 C 
HETATM   16  N   UNL     1     -40.680  54.375 -48.465  1.00  0.00    -0.365 N 
HETATM   17  H   UNL     1     -39.864  53.784 -48.369  1.00  0.00     0.159 HD
HETATM   18  H   UNL     1     -40.986  54.981 -47.721  1.00  0.00     0.159 HD
HETATM   19  O   UNL     1     -42.367  55.046 -49.813  1.00  0.00    -0.266 OA
ENDBRANCH   9  15
ENDBRANCH   2   5
BRANCH   1  20
HETATM   20  C   UNL     1     -42.405  56.949 -56.646  1.00  0.00     0.150 A 
HETATM   21  C   UNL     1     -42.253  58.328 -56.547  1.00  0.00    -0.009 A 
HETATM   22  C   UNL     1     -42.158  59.119 -55.293  1.00  0.00     0.052 C 
HETATM   23  C   UNL     1     -42.170  58.815 -57.887  1.00  0.00     0.009 A 
HETATM   24  C   UNL     1     -42.307  57.706 -58.710  1.00  0.00     0.087 A 
HETATM   25  C   UNL     1     -41.986  60.071 -58.495  1.00  0.00     0.051 A 
HETATM   26  O   UNL     1     -42.454  56.579 -57.967  1.00  0.00    -0.304 OA
HETATM   27  C   UNL     1     -42.285  57.757 -60.101  1.00  0.00     0.041 A 
HETATM   28  C   UNL     1     -42.094  59.018 -60.682  1.00  0.00     0.039 A 
HETATM   29  C   UNL     1     -41.935  60.163 -59.895  1.00  0.00     0.069 A 
BRANCH  29  30
HETATM   30  O   UNL     1     -41.729  61.432 -60.367  1.00  0.00    -0.356 OA
HETATM   31  C   UNL     1     -40.908  62.287 -59.580  1.00  0.00     0.210 C 
ENDBRANCH  29  30
ENDBRANCH   1  20
TORSDOF 4
ENDMDL
MODEL 4
REMARK VINA RESULT:      -8.1      5.169      9.487
REMARK  4 active torsions:
REMARK  status: ('A' for Active; 'I' for Inactive)
REMARK    1  A    between atoms: C_3  and  C_4 
REMARK       I    between atoms: C_4  and  N_5 
REMARK    2  A    between atoms: N_5  and  C_6 
REMARK    3  A    between atoms: C_13  and  C_14 
REMARK       I    between atoms: C_14  and  N_15 
REMARK    4  A    between atoms: C_25  and  O_26 
ROOT
HETATM    1  C   UNL     1     -42.603  55.647 -55.926  1.00  0.00     0.280 C 
HETATM    2  N   UNL     1     -41.327  55.340 -55.486  1.00  0.00    -0.321 N 
HETATM    3  O   UNL     1     -43.644  55.207 -55.453  1.00  0.00    -0.265 OA
HETATM    4  H   UNL     1     -40.585  55.786 -56.014  1.00  0.00     0.169 HD
ENDROOT
BRANCH   2   5
HETATM    5  C   UNL     1     -40.944  54.545 -54.388  1.00  0.00     0.036 A 
HETATM    6  C   UNL     1     -40.615  53.187 -54.485  1.00  0.00     0.046 A 
HETATM    7  C   UNL     1     -40.279  52.465 -53.319  1.00  0.00     0.030 A 
HETATM    8  C   UNL     1     -40.275  53.128 -52.098  1.00  0.00     0.063 A 
HETATM    9  C   UNL     1     -39.911  51.120 -53.010  1.00  0.00     0.156 A 
HETATM   10  N   UNL     1     -39.923  52.185 -51.173  1.00  0.00    -0.277 N 
HETATM   11  C   UNL     1     -40.586  54.482 -51.964  1.00  0.00     0.034 A 
HETATM   12  H   UNL     1     -39.824  52.313 -50.173  1.00  0.00     0.189 HD
HETATM   13  N   UNL     1     -39.697  50.963 -51.683  1.00  0.00    -0.168 NA
HETATM   14  C   UNL     1     -40.921  55.174 -53.135  1.00  0.00     0.032 A 
BRANCH   9  15
HETATM   15  C   UNL     1     -39.767  49.993 -53.941  1.00  0.00     0.270 C 
HETATM   16  N   UNL     1     -40.835  49.824 -54.781  1.00  0.00    -0.365 N 
HETATM   17  H   UNL     1     -41.616  50.463 -54.706  1.00  0.00     0.159 HD
HETATM   18  H   UNL     1     -40.825  49.077 -55.457  1.00  0.00     0.159 HD
HETATM   19  O   UNL     1     -38.795  49.248 -53.995  1.00  0.00    -0.266 OA
ENDBRANCH   9  15
ENDBRANCH   2   5
BRANCH   1  20
HETATM   20  C   UNL     1     -42.593  56.594 -57.033  1.00  0.00     0.150 A 
HETATM   21  C   UNL     1     -43.045  56.483 -58.343  1.00  0.00    -0.009 A 
HETATM   22  C   UNL     1     -43.662  55.284 -58.966  1.00  0.00     0.052 C 
HETATM   23  C   UNL     1     -42.829  57.759 -58.946  1.00  0.00     0.009 A 
HETATM   24  C   UNL     1     -42.234  58.550 -57.974  1.00  0.00     0.087 A 
HETATM   25  C   UNL     1     -43.078  58.336 -60.206  1.00  0.00     0.051 A 
HETATM   26  O   UNL     1     -42.085  57.851 -56.819  1.00  0.00    -0.304 OA
HETATM   27  C   UNL     1     -41.858  59.876 -58.167  1.00  0.00     0.041 A 
HETATM   28  C   UNL     1     -42.122  60.430 -59.426  1.00  0.00     0.039 A 
HETATM   29  C   UNL     1     -42.735  59.678 -60.435  1.00  0.00     0.069 A 
BRANCH  29  30
HETATM   30  O   UNL     1     -43.047  60.131 -61.689  1.00  0.00    -0.356 OA
HETATM   31  C   UNL     1     -42.162  61.079 -62.271  1.00  0.00     0.210 C 
ENDBRANCH  29  30
ENDBRANCH   1  20
TORSDOF 4
ENDMDL
MODEL 5
REMARK VINA RESULT:      -8.0      4.616      6.387
REMARK  4 active torsions:
REMARK  status: ('A' for Active; 'I' for Inactive)
REMARK    1  A    between atoms: C_3  and  C_4 
REMARK       I    between atoms: C_4  and  N_5 
REMARK    2  A    between atoms: N_5  and  C_6 
REMARK    3  A    between atoms: C_13  and  C_14 
REMARK       I    between atoms: C_14  and  N_15 
REMARK    4  A    between atoms: C_25  and  O_26 
ROOT
HETATM    1  C   UNL     1     -42.490  56.074 -55.000  1.00  0.00     0.280 C 
HETATM    2  N   UNL     1     -42.063  56.281 -56.300  1.00  0.00    -0.321 N 
HETATM    3  O   UNL     1     -43.389  56.691 -54.441  1.00  0.00    -0.265 OA
HETATM    4  H   UNL     1     -41.291  55.687 -56.585  1.00  0.00     0.169 HD
ENDROOT
BRANCH   2   5
HETATM    5  C   UNL     1     -42.589  57.156 -57.269  1.00  0.00     0.036 A 
HETATM    6  C   UNL     1     -43.764  56.906 -57.991  1.00  0.00     0.046 A 
HETATM    7  C   UNL     1     -44.191  57.830 -58.970  1.00  0.00     0.030 A 
HETATM    8  C   UNL     1     -43.434  58.974 -59.189  1.00  0.00     0.063 A 
HETATM    9  C   UNL     1     -45.282  57.927 -59.888  1.00  0.00     0.156 A 
HETATM   10  N   UNL     1     -44.084  59.656 -60.179  1.00  0.00    -0.277 N 
HETATM   11  C   UNL     1     -42.265  59.261 -58.482  1.00  0.00     0.034 A 
HETATM   12  H   UNL     1     -43.812  60.538 -60.597  1.00  0.00     0.189 HD
HETATM   13  N   UNL     1     -45.199  59.057 -60.628  1.00  0.00    -0.168 NA
HETATM   14  C   UNL     1     -41.860  58.327 -57.520  1.00  0.00     0.032 A 
BRANCH   9  15
HETATM   15  C   UNL     1     -46.383  56.974 -60.077  1.00  0.00     0.270 C 
HETATM   16  N   UNL     1     -47.113  56.733 -58.944  1.00  0.00    -0.365 N 
HETATM   17  H   UNL     1     -46.854  57.212 -58.091  1.00  0.00     0.159 HD
HETATM   18  H   UNL     1     -47.890  56.094 -58.978  1.00  0.00     0.159 HD
HETATM   19  O   UNL     1     -46.657  56.422 -61.137  1.00  0.00    -0.266 OA
ENDBRANCH   9  15
ENDBRANCH   2   5
BRANCH   1  20
HETATM   20  C   UNL     1     -41.758  55.001 -54.341  1.00  0.00     0.150 A 
HETATM   21  C   UNL     1     -41.277  54.878 -53.043  1.00  0.00    -0.009 A 
HETATM   22  C   UNL     1     -41.382  55.891 -51.961  1.00  0.00     0.052 C 
HETATM   23  C   UNL     1     -40.698  53.576 -52.956  1.00  0.00     0.009 A 
HETATM   24  C   UNL     1     -40.841  53.006 -54.214  1.00  0.00     0.087 A 
HETATM   25  C   UNL     1     -40.077  52.811 -51.951  1.00  0.00     0.051 A 
HETATM   26  O   UNL     1     -41.475  53.863 -55.054  1.00  0.00    -0.304 OA
HETATM   27  C   UNL     1     -40.399  51.729 -54.548  1.00  0.00     0.041 A 
HETATM   28  C   UNL     1     -39.790  50.985 -53.529  1.00  0.00     0.039 A 
HETATM   29  C   UNL     1     -39.638  51.509 -52.241  1.00  0.00     0.069 A 
BRANCH  29  30
HETATM   30  O   UNL     1     -39.072  50.858 -51.177  1.00  0.00    -0.356 OA
HETATM   31  C   UNL     1     -39.851  49.848 -50.550  1.00  0.00     0.210 C 
ENDBRANCH  29  30
ENDBRANCH   1  20
TORSDOF 4
ENDMDL
MODEL 6
REMARK VINA RESULT:      -7.7      4.898      8.536
REMARK  4 active torsions:
REMARK  status: ('A' for Active; 'I' for Inactive)
REMARK    1  A    between atoms: C_3  and  C_4 
REMARK       I    between atoms: C_4  and  N_5 
REMARK    2  A    between atoms: N_5  and  C_6 
REMARK    3  A    between atoms: C_13  and  C_14 
REMARK       I    between atoms: C_14  and  N_15 
REMARK    4  A    between atoms: C_25  and  O_26 
ROOT
HETATM    1  C   UNL     1     -42.554  56.669 -56.440  1.00  0.00     0.280 C 
HETATM    2  N   UNL     1     -41.381  56.048 -56.046  1.00  0.00    -0.321 N 
HETATM    3  O   UNL     1     -43.660  56.475 -55.951  1.00  0.00    -0.265 OA
HETATM    4  H   UNL     1     -40.565  56.322 -56.582  1.00  0.00     0.169 HD
ENDROOT
BRANCH   2   5
HETATM    5  C   UNL     1     -41.179  55.145 -54.985  1.00  0.00     0.036 A 
HETATM    6  C   UNL     1     -41.756  55.289 -53.716  1.00  0.00     0.046 A 
HETATM    7  C   UNL     1     -41.462  54.348 -52.705  1.00  0.00     0.030 A 
HETATM    8  C   UNL     1     -40.609  53.293 -52.998  1.00  0.00     0.063 A 
HETATM    9  C   UNL     1     -41.826  54.160 -51.336  1.00  0.00     0.156 A 
HETATM   10  N   UNL     1     -40.514  52.570 -51.842  1.00  0.00    -0.277 N 
HETATM   11  C   UNL     1     -40.024  53.111 -54.253  1.00  0.00     0.034 A 
HETATM   12  H   UNL     1     -39.970  51.729 -51.687  1.00  0.00     0.189 HD
HETATM   13  N   UNL     1     -41.231  53.061 -50.818  1.00  0.00    -0.168 NA
HETATM   14  C   UNL     1     -40.327  54.060 -55.237  1.00  0.00     0.032 A 
BRANCH   9  15
HETATM   15  C   UNL     1     -42.712  55.000 -50.520  1.00  0.00     0.270 C 
HETATM   16  N   UNL     1     -42.160  56.197 -50.147  1.00  0.00    -0.365 N 
HETATM   17  H   UNL     1     -41.219  56.411 -50.451  1.00  0.00     0.159 HD
HETATM   18  H   UNL     1     -42.696  56.840 -49.588  1.00  0.00     0.159 HD
HETATM   19  O   UNL     1     -43.850  54.695 -50.181  1.00  0.00    -0.266 OA
ENDBRANCH   9  15
ENDBRANCH   2   5
BRANCH   1  20
HETATM   20  C   UNL     1     -42.338  57.626 -57.517  1.00  0.00     0.150 A 
HETATM   21  C   UNL     1     -42.436  57.495 -58.897  1.00  0.00    -0.009 A 
HETATM   22  C   UNL     1     -42.783  56.258 -59.645  1.00  0.00     0.052 C 
HETATM   23  C   UNL     1     -42.173  58.790 -59.438  1.00  0.00     0.009 A 
HETATM   24  C   UNL     1     -41.905  59.614 -58.354  1.00  0.00     0.087 A 
HETATM   25  C   UNL     1     -42.141  59.359 -60.725  1.00  0.00     0.051 A 
HETATM   26  O   UNL     1     -41.999  58.915 -57.193  1.00  0.00    -0.304 OA
HETATM   27  C   UNL     1     -41.595  60.967 -58.458  1.00  0.00     0.041 A 
HETATM   28  C   UNL     1     -41.576  61.512 -59.749  1.00  0.00     0.039 A 
HETATM   29  C   UNL     1     -41.856  60.726 -60.872  1.00  0.00     0.069 A 
BRANCH  29  30
HETATM   30  O   UNL     1     -41.876  61.167 -62.168  1.00  0.00    -0.356 OA
HETATM   31  C   UNL     1     -43.118  61.090 -62.856  1.00  0.00     0.210 C 
ENDBRANCH  29  30
ENDBRANCH   1  20
TORSDOF 4
ENDMDL
MODEL 7
REMARK VINA RESULT:      -7.6      2.019      2.761
REMARK  4 active torsions:
REMARK  status: ('A' for Active; 'I' for Inactive)
REMARK    1  A    between atoms: C_3  and  C_4 
REMARK       I    between atoms: C_4  and  N_5 
REMARK    2  A    between atoms: N_5  and  C_6 
REMARK    3  A    between atoms: C_13  and  C_14 
REMARK       I    between atoms: C_14  and  N_15 
REMARK    4  A    between atoms: C_25  and  O_26 
ROOT
HETATM    1  C   UNL     1     -41.821  57.522 -51.478  1.00  0.00     0.280 C 
HETATM    2  N   UNL     1     -43.138  57.757 -51.834  1.00  0.00    -0.321 N 
HETATM    3  O   UNL     1     -41.106  58.293 -50.849  1.00  0.00    -0.265 OA
HETATM    4  H   UNL     1     -43.563  57.010 -52.373  1.00  0.00     0.169 HD
ENDROOT
BRANCH   2   5
HETATM    5  C   UNL     1     -43.955  58.854 -51.504  1.00  0.00     0.036 A 
HETATM    6  C   UNL     1     -43.523  60.187 -51.537  1.00  0.00     0.046 A 
HETATM    7  C   UNL     1     -44.408  61.217 -51.151  1.00  0.00     0.030 A 
HETATM    8  C   UNL     1     -45.696  60.881 -50.753  1.00  0.00     0.063 A 
HETATM    9  C   UNL     1     -44.347  62.641 -51.040  1.00  0.00     0.156 A 
HETATM   10  N   UNL     1     -46.301  62.066 -50.440  1.00  0.00    -0.277 N 
HETATM   11  C   UNL     1     -46.164  59.567 -50.718  1.00  0.00     0.034 A 
HETATM   12  H   UNL     1     -47.248  62.203 -50.108  1.00  0.00     0.189 HD
HETATM   13  N   UNL     1     -45.520  63.148 -50.598  1.00  0.00    -0.168 NA
HETATM   14  C   UNL     1     -45.266  58.563 -51.101  1.00  0.00     0.032 A 
BRANCH   9  15
HETATM   15  C   UNL     1     -43.204  63.514 -51.336  1.00  0.00     0.270 C 
HETATM   16  N   UNL     1     -42.998  63.731 -52.672  1.00  0.00    -0.365 N 
HETATM   17  H   UNL     1     -43.625  63.293 -53.336  1.00  0.00     0.159 HD
HETATM   18  H   UNL     1     -42.238  64.320 -52.971  1.00  0.00     0.159 HD
HETATM   19  O   UNL     1     -42.475  64.024 -50.492  1.00  0.00    -0.266 OA
ENDBRANCH   9  15
ENDBRANCH   2   5
BRANCH   1  20
HETATM   20  C   UNL     1     -41.353  56.216 -51.921  1.00  0.00     0.150 A 
HETATM   21  C   UNL     1     -41.097  55.043 -51.218  1.00  0.00    -0.009 A 
HETATM   22  C   UNL     1     -41.226  54.845 -49.751  1.00  0.00     0.052 C 
HETATM   23  C   UNL     1     -40.722  54.070 -52.194  1.00  0.00     0.009 A 
HETATM   24  C   UNL     1     -40.748  54.722 -53.419  1.00  0.00     0.087 A 
HETATM   25  C   UNL     1     -40.374  52.707 -52.178  1.00  0.00     0.051 A 
HETATM   26  O   UNL     1     -41.123  56.017 -53.259  1.00  0.00    -0.304 OA
HETATM   27  C   UNL     1     -40.439  54.117 -54.634  1.00  0.00     0.041 A 
HETATM   28  C   UNL     1     -40.101  52.757 -54.593  1.00  0.00     0.039 A 
HETATM   29  C   UNL     1     -40.078  52.052 -53.385  1.00  0.00     0.069 A 
BRANCH  29  30
HETATM   30  O   UNL     1     -39.775  50.724 -53.243  1.00  0.00    -0.356 OA
HETATM   31  C   UNL     1     -39.808  49.926 -54.419  1.00  0.00     0.210 C 
ENDBRANCH  29  30
ENDBRANCH   1  20
TORSDOF 4
ENDMDL
MODEL 8
REMARK VINA RESULT:      -7.5     17.409     20.393
REMARK  4 active torsions:
REMARK  status: ('A' for Active; 'I' for Inactive)
REMARK    1  A    between atoms: C_3  and  C_4 
REMARK       I    between atoms: C_4  and  N_5 
REMARK    2  A    between atoms: N_5  and  C_6 
REMARK    3  A    between atoms: C_13  and  C_14 
REMARK       I    between atoms: C_14  and  N_15 
REMARK    4  A    between atoms: C_25  and  O_26 
ROOT
HETATM    1  C   UNL     1     -32.847  39.761 -52.260  1.00  0.00     0.280 C 
HETATM    2  N   UNL     1     -33.515  39.954 -51.063  1.00  0.00    -0.321 N 
HETATM    3  O   UNL     1     -31.783  39.168 -52.393  1.00  0.00    -0.265 OA
HETATM    4  H   UNL     1     -34.374  40.488 -51.147  1.00  0.00     0.169 HD
ENDROOT
BRANCH   2   5
HETATM    5  C   UNL     1     -33.185  39.468 -49.784  1.00  0.00     0.036 A 
HETATM    6  C   UNL     1     -32.000  39.789 -49.109  1.00  0.00     0.046 A 
HETATM    7  C   UNL     1     -31.742  39.220 -47.842  1.00  0.00     0.030 A 
HETATM    8  C   UNL     1     -32.679  38.356 -47.292  1.00  0.00     0.063 A 
HETATM    9  C   UNL     1     -30.688  39.285 -46.879  1.00  0.00     0.156 A 
HETATM   10  N   UNL     1     -32.157  37.971 -46.089  1.00  0.00    -0.277 N 
HETATM   11  C   UNL     1     -33.875  38.021 -47.930  1.00  0.00     0.034 A 
HETATM   12  H   UNL     1     -32.571  37.337 -45.415  1.00  0.00     0.189 HD
HETATM   13  N   UNL     1     -30.959  38.507 -45.805  1.00  0.00    -0.168 NA
HETATM   14  C   UNL     1     -34.105  38.595 -49.186  1.00  0.00     0.032 A 
BRANCH   9  15
HETATM   15  C   UNL     1     -29.443  40.057 -46.964  1.00  0.00     0.270 C 
HETATM   16  N   UNL     1     -29.461  41.226 -46.251  1.00  0.00    -0.365 N 
HETATM   17  H   UNL     1     -30.298  41.465 -45.733  1.00  0.00     0.159 HD
HETATM   18  H   UNL     1     -28.649  41.821 -46.247  1.00  0.00     0.159 HD
HETATM   19  O   UNL     1     -28.452  39.722 -47.603  1.00  0.00    -0.266 OA
ENDBRANCH   9  15
ENDBRANCH   2   5
BRANCH   1  20
HETATM   20  C   UNL     1     -33.563  40.333 -53.392  1.00  0.00     0.150 A 
HETATM   21  C   UNL     1     -33.241  40.408 -54.742  1.00  0.00    -0.009 A 
HETATM   22  C   UNL     1     -31.996  39.910 -55.383  1.00  0.00     0.052 C 
HETATM   23  C   UNL     1     -34.358  41.023 -55.384  1.00  0.00     0.009 A 
HETATM   24  C   UNL     1     -35.272  41.307 -54.378  1.00  0.00     0.087 A 
HETATM   25  C   UNL     1     -34.704  41.363 -56.705  1.00  0.00     0.051 A 
HETATM   26  O   UNL     1     -34.795  40.897 -53.174  1.00  0.00    -0.304 OA
HETATM   27  C   UNL     1     -36.505  41.918 -54.591  1.00  0.00     0.041 A 
HETATM   28  C   UNL     1     -36.828  42.241 -55.915  1.00  0.00     0.039 A 
HETATM   29  C   UNL     1     -35.948  41.960 -56.966  1.00  0.00     0.069 A 
BRANCH  29  30
HETATM   30  O   UNL     1     -36.177  42.222 -58.290  1.00  0.00    -0.356 OA
HETATM   31  C   UNL     1     -37.249  41.523 -58.910  1.00  0.00     0.210 C 
ENDBRANCH  29  30
ENDBRANCH   1  20
TORSDOF 4
ENDMDL
MODEL 9
REMARK VINA RESULT:      -7.3      2.357      2.824
REMARK  4 active torsions:
REMARK  status: ('A' for Active; 'I' for Inactive)
REMARK    1  A    between atoms: C_3  and  C_4 
REMARK       I    between atoms: C_4  and  N_5 
REMARK    2  A    between atoms: N_5  and  C_6 
REMARK    3  A    between atoms: C_13  and  C_14 
REMARK       I    between atoms: C_14  and  N_15 
REMARK    4  A    between atoms: C_25  and  O_26 
ROOT
HETATM    1  C   UNL     1     -42.666  56.703 -52.943  1.00  0.00     0.280 C 
HETATM    2  N   UNL     1     -41.868  57.834 -52.970  1.00  0.00    -0.321 N 
HETATM    3  O   UNL     1     -43.886  56.691 -53.057  1.00  0.00    -0.265 OA
HETATM    4  H   UNL     1     -40.879  57.649 -52.838  1.00  0.00     0.169 HD
ENDROOT
BRANCH   2   5
HETATM    5  C   UNL     1     -42.245  59.169 -53.204  1.00  0.00     0.036 A 
HETATM    6  C   UNL     1     -42.516  60.094 -52.187  1.00  0.00     0.046 A 
HETATM    7  C   UNL     1     -42.924  61.403 -52.525  1.00  0.00     0.030 A 
HETATM    8  C   UNL     1     -43.039  61.745 -53.865  1.00  0.00     0.063 A 
HETATM    9  C   UNL     1     -43.290  62.585 -51.809  1.00  0.00     0.156 A 
HETATM   10  N   UNL     1     -43.449  63.049 -53.875  1.00  0.00    -0.277 N 
HETATM   11  C   UNL     1     -42.768  60.855 -54.906  1.00  0.00     0.034 A 
HETATM   12  H   UNL     1     -43.640  63.627 -54.685  1.00  0.00     0.189 HD
HETATM   13  N   UNL     1     -43.613  63.589 -52.656  1.00  0.00    -0.168 NA
HETATM   14  C   UNL     1     -42.369  59.561 -54.545  1.00  0.00     0.032 A 
BRANCH   9  15
HETATM   15  C   UNL     1     -43.343  62.771 -50.353  1.00  0.00     0.270 C 
HETATM   16  N   UNL     1     -42.687  63.888 -49.909  1.00  0.00    -0.365 N 
HETATM   17  H   UNL     1     -42.232  64.485 -50.589  1.00  0.00     0.159 HD
HETATM   18  H   UNL     1     -42.672  64.100 -48.925  1.00  0.00     0.159 HD
HETATM   19  O   UNL     1     -43.912  62.018 -49.571  1.00  0.00    -0.266 OA
ENDBRANCH   9  15
ENDBRANCH   2   5
BRANCH   1  20
HETATM   20  C   UNL     1     -41.889  55.482 -52.779  1.00  0.00     0.150 A 
HETATM   21  C   UNL     1     -41.351  54.878 -51.648  1.00  0.00    -0.009 A 
HETATM   22  C   UNL     1     -41.427  55.386 -50.254  1.00  0.00     0.052 C 
HETATM   23  C   UNL     1     -40.748  53.663 -52.096  1.00  0.00     0.009 A 
HETATM   24  C   UNL     1     -40.935  53.624 -53.471  1.00  0.00     0.087 A 
HETATM   25  C   UNL     1     -40.073  52.587 -51.490  1.00  0.00     0.051 A 
HETATM   26  O   UNL     1     -41.618  54.720 -53.888  1.00  0.00    -0.304 OA
HETATM   27  C   UNL     1     -40.487  52.593 -54.292  1.00  0.00     0.041 A 
HETATM   28  C   UNL     1     -39.823  51.530 -53.664  1.00  0.00     0.039 A 
HETATM   29  C   UNL     1     -39.625  51.516 -52.279  1.00  0.00     0.069 A 
BRANCH  29  30
HETATM   30  O   UNL     1     -39.004  50.521 -51.573  1.00  0.00    -0.356 OA
HETATM   31  C   UNL     1     -39.795  49.810 -50.629  1.00  0.00     0.210 C 
ENDBRANCH  29  30
ENDBRANCH   1  20
TORSDOF 4
ENDMDL
MODEL 10
REMARK VINA RESULT:      -7.2      1.804      2.392
REMARK  4 active torsions:
REMARK  status: ('A' for Active; 'I' for Inactive)
REMARK    1  A    between atoms: C_3  and  C_4 
REMARK       I    between atoms: C_4  and  N_5 
REMARK    2  A    between atoms: N_5  and  C_6 
REMARK    3  A    between atoms: C_13  and  C_14 
REMARK       I    between atoms: C_14  and  N_15 
REMARK    4  A    between atoms: C_25  and  O_26 
ROOT
HETATM    1  C   UNL     1     -41.838  56.832 -52.843  1.00  0.00     0.280 C 
HETATM    2  N   UNL     1     -43.114  56.951 -52.319  1.00  0.00    -0.321 N 
HETATM    3  O   UNL     1     -41.145  57.760 -53.243  1.00  0.00    -0.265 OA
HETATM    4  H   UNL     1     -43.541  56.068 -52.059  1.00  0.00     0.169 HD
ENDROOT
BRANCH   2   5
HETATM    5  C   UNL     1     -43.852  58.121 -52.061  1.00  0.00     0.036 A 
HETATM    6  C   UNL     1     -43.578  59.363 -52.650  1.00  0.00     0.046 A 
HETATM    7  C   UNL     1     -44.355  60.489 -52.298  1.00  0.00     0.030 A 
HETATM    8  C   UNL     1     -45.383  60.333 -51.377  1.00  0.00     0.063 A 
HETATM    9  C   UNL     1     -44.382  61.873 -52.652  1.00  0.00     0.156 A 
HETATM   10  N   UNL     1     -45.938  61.574 -51.239  1.00  0.00    -0.277 N 
HETATM   11  C   UNL     1     -45.692  59.110 -50.779  1.00  0.00     0.034 A 
HETATM   12  H   UNL     1     -46.714  61.836 -50.642  1.00  0.00     0.189 HD
HETATM   13  N   UNL     1     -45.362  62.528 -51.988  1.00  0.00    -0.168 NA
HETATM   14  C   UNL     1     -44.905  58.010 -51.141  1.00  0.00     0.032 A 
BRANCH   9  15
HETATM   15  C   UNL     1     -43.500  62.575 -53.592  1.00  0.00     0.270 C 
HETATM   16  N   UNL     1     -43.003  63.758 -53.114  1.00  0.00    -0.365 N 
HETATM   17  H   UNL     1     -43.266  64.052 -52.182  1.00  0.00     0.159 HD
HETATM   18  H   UNL     1     -42.386  64.309 -53.689  1.00  0.00     0.159 HD
HETATM   19  O   UNL     1     -43.208  62.173 -54.713  1.00  0.00    -0.266 OA
ENDBRANCH   9  15
ENDBRANCH   2   5
BRANCH   1  20
HETATM   20  C   UNL     1     -41.371  55.453 -52.855  1.00  0.00     0.150 A 
HETATM   21  C   UNL     1     -41.216  54.543 -53.895  1.00  0.00    -0.009 A 
HETATM   22  C   UNL     1     -41.537  54.775 -55.328  1.00  0.00     0.052 C 
HETATM   23  C   UNL     1     -40.658  53.366 -53.312  1.00  0.00     0.009 A 
HETATM   24  C   UNL     1     -40.537  53.627 -51.955  1.00  0.00     0.087 A 
HETATM   25  C   UNL     1     -40.232  52.110 -53.784  1.00  0.00     0.051 A 
HETATM   26  O   UNL     1     -40.970  54.883 -51.673  1.00  0.00    -0.304 OA
HETATM   27  C   UNL     1     -40.032  52.722 -51.026  1.00  0.00     0.041 A 
HETATM   28  C   UNL     1     -39.608  51.481 -51.520  1.00  0.00     0.039 A 
HETATM   29  C   UNL     1     -39.694  51.176 -52.883  1.00  0.00     0.069 A 
BRANCH  29  30
HETATM   30  O   UNL     1     -39.295  50.002 -53.464  1.00  0.00    -0.356 OA
HETATM   31  C   UNL     1     -39.755  49.748 -54.785  1.00  0.00     0.210 C 
ENDBRANCH  29  30
ENDBRANCH   1  20
TORSDOF 4
ENDMDL
