MODEL 1
REMARK VINA RESULT:      -8.0      0.000      0.000
REMARK  7 active torsions:
REMARK  status: ('A' for Active; 'I' for Inactive)
REMARK    1  A    between atoms: CG_4  and  CB_5 
REMARK    2  A    between atoms: CB_5  and  CA_6 
REMARK    3  A    between atoms: CA_6  and  N_7 
REMARK    4  A    between atoms: CA_6  and  C_8 
REMARK       I    between atoms: N_7  and  C_14 
REMARK    5  A    between atoms: C_8  and  O_9 
REMARK       I    between atoms: C_14  and  N_15 
REMARK    6  A    between atoms: N_15  and  C_16 
REMARK    7  A    between atoms: C_22  and  C_23 
ROOT
ATOM      1  N   PHE A   1     -41.803  53.972 -50.243  1.00  0.00    -0.336 N 
ATOM      2  H   PHE A   1     -42.468  53.815 -49.494  1.00  0.00     0.164 HD
HETATM    3  C   UNK A   0     -42.368  54.667 -51.271  1.00  0.00     0.321 C 
HETATM    4  N   UNK A   0     -41.519  55.050 -52.270  1.00  0.00    -0.309 N 
HETATM    5  O   UNK A   0     -43.574  54.881 -51.213  1.00  0.00    -0.247 OA
HETATM    6  H   UNK A   0     -40.538  55.066 -52.042  1.00  0.00     0.170 HD
ENDROOT
BRANCH   1   7
ATOM      7  CA  PHE A   1     -40.420  53.542 -50.034  1.00  0.00     0.113 C 
BRANCH   7   8
ATOM      8  CB  PHE A   1     -40.287  52.001 -50.022  1.00  0.00     0.065 C 
BRANCH   8   9
ATOM      9  CG  PHE A   1     -39.981  51.352 -51.354  1.00  0.00    -0.056 A 
ATOM     10  CD1 PHE A   1     -39.891  52.132 -52.517  1.00  0.00     0.007 A 
ATOM     11  CE1 PHE A   1     -39.622  51.539 -53.751  1.00  0.00     0.001 A 
ATOM     12  CZ  PHE A   1     -39.432  50.162 -53.835  1.00  0.00     0.000 A 
ATOM     13  CE2 PHE A   1     -39.503  49.379 -52.686  1.00  0.00     0.001 A 
ATOM     14  CD2 PHE A   1     -39.773  49.970 -51.451  1.00  0.00     0.007 A 
ENDBRANCH   8   9
ENDBRANCH   7   8
BRANCH   7  15
ATOM     15  C   PHE A   1     -39.814  54.225 -48.795  1.00  0.00     0.189 C 
BRANCH  15  16
ATOM     16  O   PHE A   1     -40.835  54.710 -47.929  1.00  0.00    -0.399 OA
ATOM     17  H   PHE A   1     -40.525  54.593 -47.014  1.00  0.00     0.209 HD
ENDBRANCH  15  16
ENDBRANCH   7  15
ENDBRANCH   1   7
BRANCH   4  18
HETATM   18  C   UNK A   0     -41.867  55.596 -53.526  1.00  0.00     0.038 A 
HETATM   19  C   UNK A   0     -42.284  54.818 -54.614  1.00  0.00     0.063 A 
HETATM   20  C   UNK A   0     -42.562  55.449 -55.836  1.00  0.00     0.087 A 
HETATM   21  C   UNK A   0     -42.426  56.828 -55.940  1.00  0.00     0.063 A 
HETATM   22  N   UNK A   0     -42.961  54.907 -57.036  1.00  0.00    -0.228 NA
HETATM   23  N   UNK A   0     -42.765  57.107 -57.239  1.00  0.00    -0.338 N 
HETATM   24  C   UNK A   0     -42.020  57.637 -54.881  1.00  0.00     0.034 A 
HETATM   25  H   UNK A   0     -42.778  58.020 -57.672  1.00  0.00     0.167 HD
HETATM   26  C   UNK A   0     -43.072  55.926 -57.870  1.00  0.00     0.170 A 
HETATM   27  C   UNK A   0     -41.737  56.986 -53.672  1.00  0.00     0.032 A 
BRANCH  26  28
HETATM   28  C   UNK A   0     -43.459  55.903 -59.303  1.00  0.00     0.422 C 
HETATM   29  F   UNK A   0     -42.359  56.008 -60.099  1.00  0.00    -0.206 F 
HETATM   30  F   UNK A   0     -44.029  54.708 -59.626  1.00  0.00    -0.206 F 
ENDBRANCH  26  28
ENDBRANCH   4  18
TORSDOF 7
ENDMDL
MODEL 2
REMARK VINA RESULT:      -7.7      1.292      2.041
REMARK  7 active torsions:
REMARK  status: ('A' for Active; 'I' for Inactive)
REMARK    1  A    between atoms: CG_4  and  CB_5 
REMARK    2  A    between atoms: CB_5  and  CA_6 
REMARK    3  A    between atoms: CA_6  and  N_7 
REMARK    4  A    between atoms: CA_6  and  C_8 
REMARK       I    between atoms: N_7  and  C_14 
REMARK    5  A    between atoms: C_8  and  O_9 
REMARK       I    between atoms: C_14  and  N_15 
REMARK    6  A    between atoms: N_15  and  C_16 
REMARK    7  A    between atoms: C_22  and  C_23 
ROOT
ATOM      1  N   PHE A   1     -41.801  54.081 -50.283  1.00  0.00    -0.336 N 
ATOM      2  H   PHE A   1     -42.411  54.134 -49.474  1.00  0.00     0.164 HD
HETATM    3  C   UNK A   0     -42.402  54.596 -51.393  1.00  0.00     0.321 C 
HETATM    4  N   UNK A   0     -41.615  54.697 -52.505  1.00  0.00    -0.309 N 
HETATM    5  O   UNK A   0     -43.582  54.914 -51.301  1.00  0.00    -0.247 OA
HETATM    6  H   UNK A   0     -40.620  54.680 -52.351  1.00  0.00     0.170 HD
ENDROOT
BRANCH   1   7
ATOM      7  CA  PHE A   1     -40.437  53.591 -50.082  1.00  0.00     0.113 C 
BRANCH   7   8
ATOM      8  CB  PHE A   1     -40.371  52.046 -50.060  1.00  0.00     0.065 C 
BRANCH   8   9
ATOM      9  CG  PHE A   1     -40.044  51.378 -51.378  1.00  0.00    -0.056 A 
ATOM     10  CD1 PHE A   1     -39.799  49.998 -51.429  1.00  0.00     0.007 A 
ATOM     11  CE1 PHE A   1     -39.484  49.377 -52.639  1.00  0.00     0.001 A 
ATOM     12  CZ  PHE A   1     -39.419  50.127 -53.811  1.00  0.00     0.000 A 
ATOM     13  CE2 PHE A   1     -39.677  51.495 -53.775  1.00  0.00     0.001 A 
ATOM     14  CD2 PHE A   1     -39.990  52.118 -52.566  1.00  0.00     0.007 A 
ENDBRANCH   8   9
ENDBRANCH   7   8
BRANCH   7  15
ATOM     15  C   PHE A   1     -39.791  54.255 -48.853  1.00  0.00     0.189 C 
BRANCH  15  16
ATOM     16  O   PHE A   1     -40.601  54.084 -47.695  1.00  0.00    -0.399 OA
ATOM     17  H   PHE A   1     -40.064  53.631 -47.023  1.00  0.00     0.209 HD
ENDBRANCH  15  16
ENDBRANCH   7  15
ENDBRANCH   1   7
BRANCH   4  18
HETATM   18  C   UNK A   0     -42.028  55.003 -53.820  1.00  0.00     0.038 A 
HETATM   19  C   UNK A   0     -41.871  56.268 -54.402  1.00  0.00     0.063 A 
HETATM   20  C   UNK A   0     -42.360  56.486 -55.700  1.00  0.00     0.087 A 
HETATM   21  C   UNK A   0     -42.979  55.446 -56.382  1.00  0.00     0.063 A 
HETATM   22  N   UNK A   0     -42.344  57.629 -56.466  1.00  0.00    -0.228 NA
HETATM   23  N   UNK A   0     -43.330  55.991 -57.590  1.00  0.00    -0.338 N 
HETATM   24  C   UNK A   0     -43.149  54.173 -55.842  1.00  0.00     0.034 A 
HETATM   25  H   UNK A   0     -43.806  55.518 -58.345  1.00  0.00     0.167 HD
HETATM   26  C   UNK A   0     -42.939  57.308 -57.600  1.00  0.00     0.170 A 
HETATM   27  C   UNK A   0     -42.664  53.978 -54.540  1.00  0.00     0.032 A 
BRANCH  26  28
HETATM   28  C   UNK A   0     -43.205  58.175 -58.776  1.00  0.00     0.422 C 
HETATM   29  F   UNK A   0     -43.949  59.258 -58.417  1.00  0.00    -0.206 F 
HETATM   30  F   UNK A   0     -42.040  58.681 -59.270  1.00  0.00    -0.206 F 
ENDBRANCH  26  28
ENDBRANCH   4  18
TORSDOF 7
ENDMDL
MODEL 3
REMARK VINA RESULT:      -7.7      3.584      6.708
REMARK  7 active torsions:
REMARK  status: ('A' for Active; 'I' for Inactive)
REMARK    1  A    between atoms: CG_4  and  CB_5 
REMARK    2  A    between atoms: CB_5  and  CA_6 
REMARK    3  A    between atoms: CA_6  and  N_7 
REMARK    4  A    between atoms: CA_6  and  C_8 
REMARK       I    between atoms: N_7  and  C_14 
REMARK    5  A    between atoms: C_8  and  O_9 
REMARK       I    between atoms: C_14  and  N_15 
REMARK    6  A    between atoms: N_15  and  C_16 
REMARK    7  A    between atoms: C_22  and  C_23 
ROOT
ATOM      1  N   PHE A   1     -42.612  58.863 -51.017  1.00  0.00    -0.336 N 
ATOM      2  H   PHE A   1     -42.199  59.747 -50.739  1.00  0.00     0.164 HD
HETATM    3  C   UNK A   0     -41.711  57.845 -50.928  1.00  0.00     0.321 C 
HETATM    4  N   UNK A   0     -42.205  56.590 -51.150  1.00  0.00    -0.309 N 
HETATM    5  O   UNK A   0     -40.550  58.137 -50.667  1.00  0.00    -0.247 OA
HETATM    6  H   UNK A   0     -43.201  56.480 -51.058  1.00  0.00     0.170 HD
ENDROOT
BRANCH   1   7
ATOM      7  CA  PHE A   1     -44.040  58.843 -51.334  1.00  0.00     0.113 C 
BRANCH   7   8
ATOM      8  CB  PHE A   1     -44.309  59.153 -52.826  1.00  0.00     0.065 C 
BRANCH   8   9
ATOM      9  CG  PHE A   1     -43.823  58.117 -53.815  1.00  0.00    -0.056 A 
ATOM     10  CD1 PHE A   1     -44.449  56.864 -53.892  1.00  0.00     0.007 A 
ATOM     11  CE1 PHE A   1     -43.998  55.899 -54.793  1.00  0.00     0.001 A 
ATOM     12  CZ  PHE A   1     -42.924  56.179 -55.634  1.00  0.00     0.000 A 
ATOM     13  CE2 PHE A   1     -42.305  57.425 -55.579  1.00  0.00     0.001 A 
ATOM     14  CD2 PHE A   1     -42.753  58.391 -54.677  1.00  0.00     0.007 A 
ENDBRANCH   8   9
ENDBRANCH   7   8
BRANCH   7  15
ATOM     15  C   PHE A   1     -44.830  59.740 -50.364  1.00  0.00     0.189 C 
BRANCH  15  16
ATOM     16  O   PHE A   1     -45.758  58.975 -49.602  1.00  0.00    -0.399 OA
ATOM     17  H   PHE A   1     -45.251  58.331 -49.079  1.00  0.00     0.209 HD
ENDBRANCH  15  16
ENDBRANCH   7  15
ENDBRANCH   1   7
BRANCH   4  18
HETATM   18  C   UNK A   0     -41.467  55.397 -51.315  1.00  0.00     0.038 A 
HETATM   19  C   UNK A   0     -41.502  54.626 -52.485  1.00  0.00     0.063 A 
HETATM   20  C   UNK A   0     -40.769  53.430 -52.534  1.00  0.00     0.087 A 
HETATM   21  C   UNK A   0     -40.021  53.039 -51.430  1.00  0.00     0.063 A 
HETATM   22  N   UNK A   0     -40.662  52.505 -53.547  1.00  0.00    -0.228 NA
HETATM   23  N   UNK A   0     -39.449  51.852 -51.809  1.00  0.00    -0.338 N 
HETATM   24  C   UNK A   0     -39.954  53.780 -50.252  1.00  0.00     0.034 A 
HETATM   25  H   UNK A   0     -38.834  51.278 -51.249  1.00  0.00     0.167 HD
HETATM   26  C   UNK A   0     -39.865  51.559 -53.085  1.00  0.00     0.170 A 
HETATM   27  C   UNK A   0     -40.702  54.966 -50.219  1.00  0.00     0.032 A 
BRANCH  26  28
HETATM   28  C   UNK A   0     -39.425  50.314 -53.764  1.00  0.00     0.422 C 
HETATM   29  F   UNK A   0     -39.403  49.271 -52.888  1.00  0.00    -0.206 F 
HETATM   30  F   UNK A   0     -40.314  49.957 -54.733  1.00  0.00    -0.206 F 
ENDBRANCH  26  28
ENDBRANCH   4  18
TORSDOF 7
ENDMDL
MODEL 4
REMARK VINA RESULT:      -7.6      3.698      7.431
REMARK  7 active torsions:
REMARK  status: ('A' for Active; 'I' for Inactive)
REMARK    1  A    between atoms: CG_4  and  CB_5 
REMARK    2  A    between atoms: CB_5  and  CA_6 
REMARK    3  A    between atoms: CA_6  and  N_7 
REMARK    4  A    between atoms: CA_6  and  C_8 
REMARK       I    between atoms: N_7  and  C_14 
REMARK    5  A    between atoms: C_8  and  O_9 
REMARK       I    between atoms: C_14  and  N_15 
REMARK    6  A    between atoms: N_15  and  C_16 
REMARK    7  A    between atoms: C_22  and  C_23 
ROOT
ATOM      1  N   PHE A   1     -41.507  59.431 -54.589  1.00  0.00    -0.336 N 
ATOM      2  H   PHE A   1     -41.067  60.296 -54.296  1.00  0.00     0.164 HD
HETATM    3  C   UNK A   0     -41.030  58.368 -53.881  1.00  0.00     0.321 C 
HETATM    4  N   UNK A   0     -41.657  57.174 -54.103  1.00  0.00    -0.309 N 
HETATM    5  O   UNK A   0     -40.090  58.570 -53.121  1.00  0.00    -0.247 OA
HETATM    6  H   UNK A   0     -42.575  57.221 -54.514  1.00  0.00     0.170 HD
ENDROOT
BRANCH   1   7
ATOM      7  CA  PHE A   1     -42.582  59.508 -55.578  1.00  0.00     0.113 C 
BRANCH   7   8
ATOM      8  CB  PHE A   1     -42.038  59.521 -57.027  1.00  0.00     0.065 C 
BRANCH   8   9
ATOM      9  CG  PHE A   1     -42.297  58.275 -57.843  1.00  0.00    -0.056 A 
ATOM     10  CD1 PHE A   1     -41.909  58.218 -59.190  1.00  0.00     0.007 A 
ATOM     11  CE1 PHE A   1     -42.157  57.076 -59.953  1.00  0.00     0.001 A 
ATOM     12  CZ  PHE A   1     -42.787  55.976 -59.376  1.00  0.00     0.000 A 
ATOM     13  CE2 PHE A   1     -43.162  56.014 -58.036  1.00  0.00     0.001 A 
ATOM     14  CD2 PHE A   1     -42.917  57.156 -57.272  1.00  0.00     0.007 A 
ENDBRANCH   8   9
ENDBRANCH   7   8
BRANCH   7  15
ATOM     15  C   PHE A   1     -43.533  60.676 -55.264  1.00  0.00     0.189 C 
BRANCH  15  16
ATOM     16  O   PHE A   1     -42.806  61.850 -54.918  1.00  0.00    -0.399 OA
ATOM     17  H   PHE A   1     -41.939  61.570 -54.576  1.00  0.00     0.209 HD
ENDBRANCH  15  16
ENDBRANCH   7  15
ENDBRANCH   1   7
BRANCH   4  18
HETATM   18  C   UNK A   0     -41.244  55.897 -53.663  1.00  0.00     0.038 A 
HETATM   19  C   UNK A   0     -40.824  54.882 -54.532  1.00  0.00     0.063 A 
HETATM   20  C   UNK A   0     -40.479  53.629 -54.001  1.00  0.00     0.087 A 
HETATM   21  C   UNK A   0     -40.553  53.424 -52.628  1.00  0.00     0.063 A 
HETATM   22  N   UNK A   0     -40.063  52.485 -54.642  1.00  0.00    -0.228 NA
HETATM   23  N   UNK A   0     -40.160  52.122 -52.456  1.00  0.00    -0.338 N 
HETATM   24  C   UNK A   0     -40.960  54.408 -51.730  1.00  0.00     0.034 A 
HETATM   25  H   UNK A   0     -40.095  51.627 -51.578  1.00  0.00     0.167 HD
HETATM   26  C   UNK A   0     -39.882  51.587 -53.691  1.00  0.00     0.170 A 
HETATM   27  C   UNK A   0     -41.311  55.649 -52.282  1.00  0.00     0.032 A 
BRANCH  26  28
HETATM   28  C   UNK A   0     -39.448  50.174 -53.831  1.00  0.00     0.422 C 
HETATM   29  F   UNK A   0     -39.834  49.443 -52.748  1.00  0.00    -0.206 F 
HETATM   30  F   UNK A   0     -40.058  49.590 -54.900  1.00  0.00    -0.206 F 
ENDBRANCH  26  28
ENDBRANCH   4  18
TORSDOF 7
ENDMDL
MODEL 5
REMARK VINA RESULT:      -7.6      4.087      8.164
REMARK  7 active torsions:
REMARK  status: ('A' for Active; 'I' for Inactive)
REMARK    1  A    between atoms: CG_4  and  CB_5 
REMARK    2  A    between atoms: CB_5  and  CA_6 
REMARK    3  A    between atoms: CA_6  and  N_7 
REMARK    4  A    between atoms: CA_6  and  C_8 
REMARK       I    between atoms: N_7  and  C_14 
REMARK    5  A    between atoms: C_8  and  O_9 
REMARK       I    between atoms: C_14  and  N_15 
REMARK    6  A    between atoms: N_15  and  C_16 
REMARK    7  A    between atoms: C_22  and  C_23 
ROOT
ATOM      1  N   PHE A   1     -43.065  56.291 -57.953  1.00  0.00    -0.336 N 
ATOM      2  H   PHE A   1     -43.832  55.983 -58.540  1.00  0.00     0.164 HD
HETATM    3  C   UNK A   0     -42.785  55.377 -56.981  1.00  0.00     0.321 C 
HETATM    4  N   UNK A   0     -41.678  55.634 -56.221  1.00  0.00    -0.309 N 
HETATM    5  O   UNK A   0     -43.542  54.420 -56.869  1.00  0.00    -0.247 OA
HETATM    6  H   UNK A   0     -41.008  56.276 -56.612  1.00  0.00     0.170 HD
ENDROOT
BRANCH   1   7
ATOM      7  CA  PHE A   1     -42.381  57.533 -58.315  1.00  0.00     0.113 C 
BRANCH   7   8
ATOM      8  CB  PHE A   1     -43.092  58.779 -57.735  1.00  0.00     0.065 C 
BRANCH   8   9
ATOM      9  CG  PHE A   1     -43.114  58.887 -56.227  1.00  0.00    -0.056 A 
ATOM     10  CD1 PHE A   1     -41.988  59.355 -55.534  1.00  0.00     0.007 A 
ATOM     11  CE1 PHE A   1     -41.997  59.444 -54.142  1.00  0.00     0.001 A 
ATOM     12  CZ  PHE A   1     -43.134  59.077 -53.427  1.00  0.00     0.000 A 
ATOM     13  CE2 PHE A   1     -44.264  58.626 -54.104  1.00  0.00     0.001 A 
ATOM     14  CD2 PHE A   1     -44.257  58.533 -55.497  1.00  0.00     0.007 A 
ENDBRANCH   8   9
ENDBRANCH   7   8
BRANCH   7  15
ATOM     15  C   PHE A   1     -42.144  57.606 -59.834  1.00  0.00     0.189 C 
BRANCH  15  16
ATOM     16  O   PHE A   1     -41.361  56.505 -60.283  1.00  0.00    -0.399 OA
ATOM     17  H   PHE A   1     -41.257  56.591 -61.246  1.00  0.00     0.209 HD
ENDBRANCH  15  16
ENDBRANCH   7  15
ENDBRANCH   1   7
BRANCH   4  18
HETATM   18  C   UNK A   0     -41.280  54.972 -55.039  1.00  0.00     0.038 A 
HETATM   19  C   UNK A   0     -40.765  53.669 -55.023  1.00  0.00     0.063 A 
HETATM   20  C   UNK A   0     -40.442  53.079 -53.791  1.00  0.00     0.087 A 
HETATM   21  C   UNK A   0     -40.633  53.798 -52.618  1.00  0.00     0.063 A 
HETATM   22  N   UNK A   0     -39.949  51.824 -53.519  1.00  0.00    -0.228 NA
HETATM   23  N   UNK A   0     -40.230  52.943 -51.624  1.00  0.00    -0.338 N 
HETATM   24  C   UNK A   0     -41.136  55.096 -52.591  1.00  0.00     0.034 A 
HETATM   25  H   UNK A   0     -40.231  53.133 -50.632  1.00  0.00     0.167 HD
HETATM   26  C   UNK A   0     -39.833  51.762 -52.205  1.00  0.00     0.170 A 
HETATM   27  C   UNK A   0     -41.462  55.664 -53.831  1.00  0.00     0.032 A 
BRANCH  26  28
HETATM   28  C   UNK A   0     -39.360  50.624 -51.376  1.00  0.00     0.422 C 
HETATM   29  F   UNK A   0     -40.018  50.593 -50.183  1.00  0.00    -0.206 F 
HETATM   30  F   UNK A   0     -39.648  49.439 -51.982  1.00  0.00    -0.206 F 
ENDBRANCH  26  28
ENDBRANCH   4  18
TORSDOF 7
ENDMDL
MODEL 6
REMARK VINA RESULT:      -7.6      3.942      6.992
REMARK  7 active torsions:
REMARK  status: ('A' for Active; 'I' for Inactive)
REMARK    1  A    between atoms: CG_4  and  CB_5 
REMARK    2  A    between atoms: CB_5  and  CA_6 
REMARK    3  A    between atoms: CA_6  and  N_7 
REMARK    4  A    between atoms: CA_6  and  C_8 
REMARK       I    between atoms: N_7  and  C_14 
REMARK    5  A    between atoms: C_8  and  O_9 
REMARK       I    between atoms: C_14  and  N_15 
REMARK    6  A    between atoms: N_15  and  C_16 
REMARK    7  A    between atoms: C_22  and  C_23 
ROOT
ATOM      1  N   PHE A   1     -44.753  58.083 -51.316  1.00  0.00    -0.336 N 
ATOM      2  H   PHE A   1     -45.561  58.132 -50.705  1.00  0.00     0.164 HD
HETATM    3  C   UNK A   0     -44.184  56.845 -51.289  1.00  0.00     0.321 C 
HETATM    4  N   UNK A   0     -43.171  56.634 -52.182  1.00  0.00    -0.309 N 
HETATM    5  O   UNK A   0     -44.619  56.040 -50.473  1.00  0.00    -0.247 OA
HETATM    6  H   UNK A   0     -43.129  57.264 -52.965  1.00  0.00     0.170 HD
ENDROOT
BRANCH   1   7
ATOM      7  CA  PHE A   1     -44.447  59.251 -52.141  1.00  0.00     0.113 C 
BRANCH   7   8
ATOM      8  CB  PHE A   1     -43.480  60.227 -51.430  1.00  0.00     0.065 C 
BRANCH   8   9
ATOM      9  CG  PHE A   1     -42.021  59.826 -51.420  1.00  0.00    -0.056 A 
ATOM     10  CD1 PHE A   1     -41.275  59.900 -50.235  1.00  0.00     0.007 A 
ATOM     11  CE1 PHE A   1     -39.926  59.545 -50.222  1.00  0.00     0.001 A 
ATOM     12  CZ  PHE A   1     -39.310  59.102 -51.390  1.00  0.00     0.000 A 
ATOM     13  CE2 PHE A   1     -40.045  59.008 -52.569  1.00  0.00     0.001 A 
ATOM     14  CD2 PHE A   1     -41.394  59.365 -52.585  1.00  0.00     0.007 A 
ENDBRANCH   8   9
ENDBRANCH   7   8
BRANCH   7  15
ATOM     15  C   PHE A   1     -45.737  59.919 -52.649  1.00  0.00     0.189 C 
BRANCH  15  16
ATOM     16  O   PHE A   1     -45.762  59.968 -54.072  1.00  0.00    -0.399 OA
ATOM     17  H   PHE A   1     -46.478  59.384 -54.374  1.00  0.00     0.209 HD
ENDBRANCH  15  16
ENDBRANCH   7  15
ENDBRANCH   1   7
BRANCH   4  18
HETATM   18  C   UNK A   0     -42.290  55.531 -52.230  1.00  0.00     0.038 A 
HETATM   19  C   UNK A   0     -42.295  54.587 -53.265  1.00  0.00     0.063 A 
HETATM   20  C   UNK A   0     -41.412  53.498 -53.198  1.00  0.00     0.087 A 
HETATM   21  C   UNK A   0     -40.548  53.383 -52.116  1.00  0.00     0.063 A 
HETATM   22  N   UNK A   0     -41.245  52.445 -54.068  1.00  0.00    -0.228 NA
HETATM   23  N   UNK A   0     -39.845  52.232 -52.361  1.00  0.00    -0.338 N 
HETATM   24  C   UNK A   0     -40.507  54.304 -51.071  1.00  0.00     0.034 A 
HETATM   25  H   UNK A   0     -39.123  51.834 -51.776  1.00  0.00     0.167 HD
HETATM   26  C   UNK A   0     -40.299  51.690 -53.540  1.00  0.00     0.170 A 
HETATM   27  C   UNK A   0     -41.405  55.378 -51.151  1.00  0.00     0.032 A 
BRANCH  26  28
HETATM   28  C   UNK A   0     -39.738  50.418 -54.062  1.00  0.00     0.422 C 
HETATM   29  F   UNK A   0     -39.393  49.589 -53.037  1.00  0.00    -0.206 F 
HETATM   30  F   UNK A   0     -40.678  49.740 -54.778  1.00  0.00    -0.206 F 
ENDBRANCH  26  28
ENDBRANCH   4  18
TORSDOF 7
ENDMDL
MODEL 7
REMARK VINA RESULT:      -7.5      3.532      5.677
REMARK  7 active torsions:
REMARK  status: ('A' for Active; 'I' for Inactive)
REMARK    1  A    between atoms: CG_4  and  CB_5 
REMARK    2  A    between atoms: CB_5  and  CA_6 
REMARK    3  A    between atoms: CA_6  and  N_7 
REMARK    4  A    between atoms: CA_6  and  C_8 
REMARK       I    between atoms: N_7  and  C_14 
REMARK    5  A    between atoms: C_8  and  O_9 
REMARK       I    between atoms: C_14  and  N_15 
REMARK    6  A    between atoms: N_15  and  C_16 
REMARK    7  A    between atoms: C_22  and  C_23 
ROOT
ATOM      1  N   PHE A   1     -41.983  56.847 -55.612  1.00  0.00    -0.336 N 
ATOM      2  H   PHE A   1     -41.267  57.538 -55.414  1.00  0.00     0.164 HD
HETATM    3  C   UNK A   0     -42.500  57.013 -56.863  1.00  0.00     0.321 C 
HETATM    4  N   UNK A   0     -43.375  56.049 -57.280  1.00  0.00    -0.309 N 
HETATM    5  O   UNK A   0     -42.146  58.001 -57.495  1.00  0.00    -0.247 OA
HETATM    6  H   UNK A   0     -43.338  55.171 -56.789  1.00  0.00     0.170 HD
ENDROOT
BRANCH   1   7
ATOM      7  CA  PHE A   1     -42.224  55.804 -54.615  1.00  0.00     0.113 C 
BRANCH   7   8
ATOM      8  CB  PHE A   1     -41.749  54.414 -55.102  1.00  0.00     0.065 C 
BRANCH   8   9
ATOM      9  CG  PHE A   1     -41.033  53.563 -54.077  1.00  0.00    -0.056 A 
ATOM     10  CD1 PHE A   1     -40.485  52.324 -54.445  1.00  0.00     0.007 A 
ATOM     11  CE1 PHE A   1     -39.835  51.527 -53.502  1.00  0.00     0.001 A 
ATOM     12  CZ  PHE A   1     -39.716  51.963 -52.185  1.00  0.00     0.000 A 
ATOM     13  CE2 PHE A   1     -40.240  53.198 -51.811  1.00  0.00     0.001 A 
ATOM     14  CD2 PHE A   1     -40.893  53.996 -52.752  1.00  0.00     0.007 A 
ENDBRANCH   8   9
ENDBRANCH   7   8
BRANCH   7  15
ATOM     15  C   PHE A   1     -43.688  55.826 -54.141  1.00  0.00     0.189 C 
BRANCH  15  16
ATOM     16  O   PHE A   1     -44.397  54.686 -54.617  1.00  0.00    -0.399 OA
ATOM     17  H   PHE A   1     -43.740  54.033 -54.914  1.00  0.00     0.209 HD
ENDBRANCH  15  16
ENDBRANCH   7  15
ENDBRANCH   1   7
BRANCH   4  18
HETATM   18  C   UNK A   0     -44.195  56.079 -58.428  1.00  0.00     0.038 A 
HETATM   19  C   UNK A   0     -45.208  57.027 -58.626  1.00  0.00     0.063 A 
HETATM   20  C   UNK A   0     -46.003  56.944 -59.780  1.00  0.00     0.087 A 
HETATM   21  C   UNK A   0     -45.766  55.932 -60.703  1.00  0.00     0.063 A 
HETATM   22  N   UNK A   0     -47.056  57.733 -60.182  1.00  0.00    -0.228 NA
HETATM   23  N   UNK A   0     -46.703  56.138 -61.682  1.00  0.00    -0.338 N 
HETATM   24  C   UNK A   0     -44.766  54.975 -60.546  1.00  0.00     0.034 A 
HETATM   25  H   UNK A   0     -46.827  55.584 -62.519  1.00  0.00     0.167 HD
HETATM   26  C   UNK A   0     -47.466  57.225 -61.330  1.00  0.00     0.170 A 
HETATM   27  C   UNK A   0     -43.990  55.068 -59.382  1.00  0.00     0.032 A 
BRANCH  26  28
HETATM   28  C   UNK A   0     -48.585  57.683 -62.191  1.00  0.00     0.422 C 
HETATM   29  F   UNK A   0     -49.593  56.766 -62.198  1.00  0.00    -0.206 F 
HETATM   30  F   UNK A   0     -49.137  58.825 -61.692  1.00  0.00    -0.206 F 
ENDBRANCH  26  28
ENDBRANCH   4  18
TORSDOF 7
ENDMDL
MODEL 8
REMARK VINA RESULT:      -7.4      2.220      3.191
REMARK  7 active torsions:
REMARK  status: ('A' for Active; 'I' for Inactive)
REMARK    1  A    between atoms: CG_4  and  CB_5 
REMARK    2  A    between atoms: CB_5  and  CA_6 
REMARK    3  A    between atoms: CA_6  and  N_7 
REMARK    4  A    between atoms: CA_6  and  C_8 
REMARK       I    between atoms: N_7  and  C_14 
REMARK    5  A    between atoms: C_8  and  O_9 
REMARK       I    between atoms: C_14  and  N_15 
REMARK    6  A    between atoms: N_15  and  C_16 
REMARK    7  A    between atoms: C_22  and  C_23 
ROOT
ATOM      1  N   PHE A   1     -42.884  56.176 -52.024  1.00  0.00    -0.336 N 
ATOM      2  H   PHE A   1     -43.649  56.257 -51.363  1.00  0.00     0.164 HD
HETATM    3  C   UNK A   0     -43.245  56.627 -53.259  1.00  0.00     0.321 C 
HETATM    4  N   UNK A   0     -42.244  56.689 -54.187  1.00  0.00    -0.309 N 
HETATM    5  O   UNK A   0     -44.421  56.928 -53.430  1.00  0.00    -0.247 OA
HETATM    6  H   UNK A   0     -41.303  56.696 -53.829  1.00  0.00     0.170 HD
ENDROOT
BRANCH   1   7
ATOM      7  CA  PHE A   1     -41.588  55.722 -51.520  1.00  0.00     0.113 C 
BRANCH   7   8
ATOM      8  CB  PHE A   1     -41.619  54.235 -51.095  1.00  0.00     0.065 C 
BRANCH   8   9
ATOM      9  CG  PHE A   1     -40.909  53.267 -52.016  1.00  0.00    -0.056 A 
ATOM     10  CD1 PHE A   1     -40.020  52.316 -51.493  1.00  0.00     0.007 A 
ATOM     11  CE1 PHE A   1     -39.351  51.429 -52.338  1.00  0.00     0.001 A 
ATOM     12  CZ  PHE A   1     -39.571  51.476 -53.712  1.00  0.00     0.000 A 
ATOM     13  CE2 PHE A   1     -40.464  52.405 -54.241  1.00  0.00     0.001 A 
ATOM     14  CD2 PHE A   1     -41.132  53.294 -53.398  1.00  0.00     0.007 A 
ENDBRANCH   8   9
ENDBRANCH   7   8
BRANCH   7  15
ATOM     15  C   PHE A   1     -41.062  56.667 -50.425  1.00  0.00     0.189 C 
BRANCH  15  16
ATOM     16  O   PHE A   1     -41.339  56.150 -49.128  1.00  0.00    -0.399 OA
ATOM     17  H   PHE A   1     -41.388  55.182 -49.200  1.00  0.00     0.209 HD
ENDBRANCH  15  16
ENDBRANCH   7  15
ENDBRANCH   1   7
BRANCH   4  18
HETATM   18  C   UNK A   0     -42.377  56.923 -55.574  1.00  0.00     0.038 A 
HETATM   19  C   UNK A   0     -42.155  58.173 -56.168  1.00  0.00     0.063 A 
HETATM   20  C   UNK A   0     -42.360  58.317 -57.549  1.00  0.00     0.087 A 
HETATM   21  C   UNK A   0     -42.771  57.221 -58.297  1.00  0.00     0.063 A 
HETATM   22  N   UNK A   0     -42.230  59.430 -58.346  1.00  0.00    -0.228 NA
HETATM   23  N   UNK A   0     -42.877  57.702 -59.577  1.00  0.00    -0.338 N 
HETATM   24  C   UNK A   0     -42.997  55.961 -57.746  1.00  0.00     0.034 A 
HETATM   25  H   UNK A   0     -43.157  57.176 -60.393  1.00  0.00     0.167 HD
HETATM   26  C   UNK A   0     -42.552  59.037 -59.565  1.00  0.00     0.170 A 
HETATM   27  C   UNK A   0     -42.797  55.841 -56.363  1.00  0.00     0.032 A 
BRANCH  26  28
HETATM   28  C   UNK A   0     -42.596  59.844 -60.811  1.00  0.00     0.422 C 
HETATM   29  F   UNK A   0     -41.562  59.512 -61.635  1.00  0.00    -0.206 F 
HETATM   30  F   UNK A   0     -43.727  59.571 -61.519  1.00  0.00    -0.206 F 
ENDBRANCH  26  28
ENDBRANCH   4  18
TORSDOF 7
ENDMDL
MODEL 9
REMARK VINA RESULT:      -7.2      4.158      7.523
REMARK  7 active torsions:
REMARK  status: ('A' for Active; 'I' for Inactive)
REMARK    1  A    between atoms: CG_4  and  CB_5 
REMARK    2  A    between atoms: CB_5  and  CA_6 
REMARK    3  A    between atoms: CA_6  and  N_7 
REMARK    4  A    between atoms: CA_6  and  C_8 
REMARK       I    between atoms: N_7  and  C_14 
REMARK    5  A    between atoms: C_8  and  O_9 
REMARK       I    between atoms: C_14  and  N_15 
REMARK    6  A    between atoms: N_15  and  C_16 
REMARK    7  A    between atoms: C_22  and  C_23 
ROOT
ATOM      1  N   PHE A   1     -42.726  57.835 -55.592  1.00  0.00    -0.336 N 
ATOM      2  H   PHE A   1     -43.504  57.992 -56.223  1.00  0.00     0.164 HD
HETATM    3  C   UNK A   0     -42.459  56.505 -55.455  1.00  0.00     0.321 C 
HETATM    4  N   UNK A   0     -41.341  56.192 -54.734  1.00  0.00    -0.309 N 
HETATM    5  O   UNK A   0     -43.236  55.715 -55.978  1.00  0.00    -0.247 OA
HETATM    6  H   UNK A   0     -40.660  56.926 -54.626  1.00  0.00     0.170 HD
ENDROOT
BRANCH   1   7
ATOM      7  CA  PHE A   1     -42.018  59.005 -55.073  1.00  0.00     0.113 C 
BRANCH   7   8
ATOM      8  CB  PHE A   1     -42.570  59.456 -53.700  1.00  0.00     0.065 C 
BRANCH   8   9
ATOM      9  CG  PHE A   1     -42.103  58.659 -52.502  1.00  0.00    -0.056 A 
ATOM     10  CD1 PHE A   1     -42.944  57.698 -51.921  1.00  0.00     0.007 A 
ATOM     11  CE1 PHE A   1     -42.524  56.969 -50.808  1.00  0.00     0.001 A 
ATOM     12  CZ  PHE A   1     -41.258  57.184 -50.270  1.00  0.00     0.000 A 
ATOM     13  CE2 PHE A   1     -40.408  58.123 -50.848  1.00  0.00     0.001 A 
ATOM     14  CD2 PHE A   1     -40.826  58.856 -51.960  1.00  0.00     0.007 A 
ENDBRANCH   8   9
ENDBRANCH   7   8
BRANCH   7  15
ATOM     15  C   PHE A   1     -41.972  60.130 -56.121  1.00  0.00     0.189 C 
BRANCH  15  16
ATOM     16  O   PHE A   1     -41.884  59.597 -57.439  1.00  0.00    -0.399 OA
ATOM     17  H   PHE A   1     -42.468  60.124 -58.010  1.00  0.00     0.209 HD
ENDBRANCH  15  16
ENDBRANCH   7  15
ENDBRANCH   1   7
BRANCH   4  18
HETATM   18  C   UNK A   0     -40.949  54.915 -54.276  1.00  0.00     0.038 A 
HETATM   19  C   UNK A   0     -41.058  54.510 -52.939  1.00  0.00     0.063 A 
HETATM   20  C   UNK A   0     -40.596  53.236 -52.573  1.00  0.00     0.087 A 
HETATM   21  C   UNK A   0     -40.048  52.403 -53.541  1.00  0.00     0.063 A 
HETATM   22  N   UNK A   0     -40.575  52.628 -51.340  1.00  0.00    -0.228 NA
HETATM   23  N   UNK A   0     -39.704  51.266 -52.858  1.00  0.00    -0.338 N 
HETATM   24  C   UNK A   0     -39.928  52.765 -54.881  1.00  0.00     0.034 A 
HETATM   25  H   UNK A   0     -39.274  50.439 -53.248  1.00  0.00     0.167 HD
HETATM   26  C   UNK A   0     -40.028  51.442 -51.534  1.00  0.00     0.170 A 
HETATM   27  C   UNK A   0     -40.386  54.046 -55.224  1.00  0.00     0.032 A 
BRANCH  26  28
HETATM   28  C   UNK A   0     -39.752  50.381 -50.532  1.00  0.00     0.422 C 
HETATM   29  F   UNK A   0     -40.526  50.553 -49.425  1.00  0.00    -0.206 F 
HETATM   30  F   UNK A   0     -40.090  49.157 -51.026  1.00  0.00    -0.206 F 
ENDBRANCH  26  28
ENDBRANCH   4  18
TORSDOF 7
ENDMDL
MODEL 10
REMARK VINA RESULT:      -7.1      4.495      7.447
REMARK  7 active torsions:
REMARK  status: ('A' for Active; 'I' for Inactive)
REMARK    1  A    between atoms: CG_4  and  CB_5 
REMARK    2  A    between atoms: CB_5  and  CA_6 
REMARK    3  A    between atoms: CA_6  and  N_7 
REMARK    4  A    between atoms: CA_6  and  C_8 
REMARK       I    between atoms: N_7  and  C_14 
REMARK    5  A    between atoms: C_8  and  O_9 
REMARK       I    between atoms: C_14  and  N_15 
REMARK    6  A    between atoms: N_15  and  C_16 
REMARK    7  A    between atoms: C_22  and  C_23 
ROOT
ATOM      1  N   PHE A   1     -41.315  58.113 -49.864  1.00  0.00    -0.336 N 
ATOM      2  H   PHE A   1     -41.672  58.131 -48.915  1.00  0.00     0.164 HD
HETATM    3  C   UNK A   0     -41.418  56.867 -50.409  1.00  0.00     0.321 C 
HETATM    4  N   UNK A   0     -41.091  56.766 -51.732  1.00  0.00    -0.309 N 
HETATM    5  O   UNK A   0     -41.784  55.957 -49.675  1.00  0.00    -0.247 OA
HETATM    6  H   UNK A   0     -41.099  57.623 -52.261  1.00  0.00     0.170 HD
ENDROOT
BRANCH   1   7
ATOM      7  CA  PHE A   1     -40.888  59.378 -50.461  1.00  0.00     0.113 C 
BRANCH   7   8
ATOM      8  CB  PHE A   1     -41.928  59.926 -51.467  1.00  0.00     0.065 C 
BRANCH   8   9
ATOM      9  CG  PHE A   1     -43.265  60.328 -50.886  1.00  0.00    -0.056 A 
ATOM     10  CD1 PHE A   1     -43.361  61.437 -50.032  1.00  0.00     0.007 A 
ATOM     11  CE1 PHE A   1     -44.589  61.806 -49.481  1.00  0.00     0.001 A 
ATOM     12  CZ  PHE A   1     -45.736  61.076 -49.784  1.00  0.00     0.000 A 
ATOM     13  CE2 PHE A   1     -45.656  59.983 -50.643  1.00  0.00     0.001 A 
ATOM     14  CD2 PHE A   1     -44.429  59.612 -51.194  1.00  0.00     0.007 A 
ENDBRANCH   8   9
ENDBRANCH   7   8
BRANCH   7  15
ATOM     15  C   PHE A   1     -39.468  59.261 -51.042  1.00  0.00     0.189 C 
BRANCH  15  16
ATOM     16  O   PHE A   1     -39.499  59.227 -52.465  1.00  0.00    -0.399 OA
ATOM     17  H   PHE A   1     -39.841  58.356 -52.732  1.00  0.00     0.209 HD
ENDBRANCH  15  16
ENDBRANCH   7  15
ENDBRANCH   1   7
BRANCH   4  18
HETATM   18  C   UNK A   0     -40.919  55.582 -52.482  1.00  0.00     0.038 A 
HETATM   19  C   UNK A   0     -40.509  54.367 -51.918  1.00  0.00     0.063 A 
HETATM   20  C   UNK A   0     -40.320  53.256 -52.756  1.00  0.00     0.087 A 
HETATM   21  C   UNK A   0     -40.550  53.381 -54.120  1.00  0.00     0.063 A 
HETATM   22  N   UNK A   0     -39.907  51.981 -52.446  1.00  0.00    -0.228 NA
HETATM   23  N   UNK A   0     -40.273  52.138 -54.628  1.00  0.00    -0.338 N 
HETATM   24  C   UNK A   0     -40.964  54.569 -54.719  1.00  0.00     0.034 A 
HETATM   25  H   UNK A   0     -40.331  51.860 -55.598  1.00  0.00     0.167 HD
HETATM   26  C   UNK A   0     -39.881  51.325 -53.592  1.00  0.00     0.170 A 
HETATM   27  C   UNK A   0     -41.137  55.669 -53.867  1.00  0.00     0.032 A 
BRANCH  26  28
HETATM   28  C   UNK A   0     -39.492  49.913 -53.835  1.00  0.00     0.422 C 
HETATM   29  F   UNK A   0     -39.866  49.125 -52.788  1.00  0.00    -0.206 F 
HETATM   30  F   UNK A   0     -40.151  49.414 -54.919  1.00  0.00    -0.206 F 
ENDBRANCH  26  28
ENDBRANCH   4  18
TORSDOF 7
ENDMDL
