MODEL 1
REMARK VINA RESULT:     -10.4      0.000      0.000
REMARK  5 active torsions:
REMARK  status: ('A' for Active; 'I' for Inactive)
REMARK    1  A    between atoms: C_4  and  N_5 
REMARK       I    between atoms: N_5  and  C_6 
REMARK    2  A    between atoms: C_6  and  C_7 
REMARK    3  A    between atoms: C_8  and  N_9 
REMARK    4  A    between atoms: N_10  and  N_11 
REMARK    5  A    between atoms: C_12  and  C_13 
ROOT
HETATM    1  C   UNL     1     -43.329  57.118 -55.791  1.00  0.00     0.110 A 
HETATM    2  C   UNL     1     -42.611  56.001 -55.414  1.00  0.00     0.143 A 
HETATM    3  N   UNL     1     -42.764  55.801 -54.046  1.00  0.00    -0.197 N 
HETATM    4  C   UNL     1     -43.499  56.865 -53.537  1.00  0.00     0.183 A 
HETATM    5  C   UNL     1     -43.860  57.679 -54.611  1.00  0.00     0.125 A 
HETATM    6  N   UNL     1     -44.637  58.777 -54.440  1.00  0.00    -0.242 NA
HETATM    7  C   UNL     1     -44.973  59.036 -53.167  1.00  0.00     0.086 A 
HETATM    8  C   UNL     1     -44.584  58.203 -52.085  1.00  0.00     0.088 A 
HETATM    9  N   UNL     1     -43.846  57.092 -52.248  1.00  0.00    -0.225 NA
HETATM   10  C   UNL     1     -45.739  60.166 -52.905  1.00  0.00     0.034 A 
HETATM   11  C   UNL     1     -46.133  60.498 -51.608  1.00  0.00     0.002 A 
HETATM   12  C   UNL     1     -45.757  59.682 -50.550  1.00  0.00     0.002 A 
HETATM   13  C   UNL     1     -44.988  58.545 -50.800  1.00  0.00     0.034 A 
ENDROOT
BRANCH   1  14
HETATM   14  C   UNL     1     -43.546  57.498 -57.170  1.00  0.00     0.262 C 
HETATM   15  N   UNL     1     -44.877  57.331 -57.504  1.00  0.00    -0.322 N 
HETATM   16  H   UNL     1     -45.494  57.175 -56.720  1.00  0.00     0.169 HD
HETATM   17  O   UNL     1     -42.622  57.803 -57.909  1.00  0.00    -0.267 OA
BRANCH  15  18
HETATM   18  C   UNL     1     -45.437  57.104 -58.779  1.00  0.00     0.041 A 
HETATM   19  C   UNL     1     -44.918  56.153 -59.667  1.00  0.00     0.037 A 
HETATM   20  C   UNL     1     -45.569  55.857 -60.874  1.00  0.00    -0.060 A 
HETATM   21  C   UNL     1     -45.031  54.780 -61.769  1.00  0.00     0.048 C 
HETATM   22  C   UNL     1     -46.753  56.524 -61.194  1.00  0.00     0.007 A 
HETATM   23  C   UNL     1     -47.267  57.490 -60.332  1.00  0.00     0.009 A 
HETATM   24  C   UNL     1     -46.619  57.795 -59.124  1.00  0.00    -0.035 A 
HETATM   25  C   UNL     1     -47.240  58.830 -58.222  1.00  0.00     0.050 C 
ENDBRANCH  15  18
ENDBRANCH   1  14
BRANCH   2  26
HETATM   26  N   UNL     1     -41.912  55.109 -56.167  1.00  0.00    -0.383 N 
HETATM   27  H   UNL     1     -42.025  55.084 -57.178  1.00  0.00     0.157 HD
HETATM   28  H   UNL     1     -40.971  54.860 -55.855  1.00  0.00     0.157 HD
ENDBRANCH   2  26
BRANCH   3  29
HETATM   29  N   UNL     1     -42.256  54.670 -53.466  1.00  0.00    -0.176 NA
HETATM   30  C   UNL     1     -41.088  54.741 -52.928  1.00  0.00     0.153 C 
BRANCH  30  31
HETATM   31  C   UNL     1     -40.625  53.574 -52.198  1.00  0.00     0.011 A 
HETATM   32  C   UNL     1     -40.314  52.277 -52.720  1.00  0.00     0.004 A 
HETATM   33  C   UNL     1     -39.829  51.507 -51.661  1.00  0.00     0.043 A 
HETATM   34  C   UNL     1     -40.374  51.690 -54.002  1.00  0.00     0.014 A 
HETATM   35  C   UNL     1     -39.398  50.185 -51.817  1.00  0.00     0.030 A 
HETATM   36  N   UNL     1     -39.865  52.294 -50.534  1.00  0.00    -0.364 N 
HETATM   37  C   UNL     1     -39.467  49.628 -53.098  1.00  0.00     0.002 A 
HETATM   38  C   UNL     1     -39.950  50.366 -54.174  1.00  0.00     0.001 A 
HETATM   39  H   UNL     1     -39.565  51.996 -49.616  1.00  0.00     0.165 HD
HETATM   40  C   UNL     1     -40.339  53.536 -50.844  1.00  0.00     0.102 A 
ENDBRANCH  30  31
ENDBRANCH   3  29
TORSDOF 5
ENDMDL
MODEL 2
REMARK VINA RESULT:     -10.4      3.354      8.596
REMARK  5 active torsions:
REMARK  status: ('A' for Active; 'I' for Inactive)
REMARK    1  A    between atoms: C_4  and  N_5 
REMARK       I    between atoms: N_5  and  C_6 
REMARK    2  A    between atoms: C_6  and  C_7 
REMARK    3  A    between atoms: C_8  and  N_9 
REMARK    4  A    between atoms: N_10  and  N_11 
REMARK    5  A    between atoms: C_12  and  C_13 
ROOT
HETATM    1  C   UNL     1     -42.693  56.116 -55.250  1.00  0.00     0.110 A 
HETATM    2  C   UNL     1     -42.543  56.505 -56.566  1.00  0.00     0.143 A 
HETATM    3  N   UNL     1     -42.412  57.889 -56.620  1.00  0.00    -0.197 N 
HETATM    4  C   UNL     1     -42.588  58.386 -55.335  1.00  0.00     0.183 A 
HETATM    5  C   UNL     1     -42.754  57.296 -54.481  1.00  0.00     0.125 A 
HETATM    6  N   UNL     1     -42.892  57.458 -53.141  1.00  0.00    -0.242 NA
HETATM    7  C   UNL     1     -42.912  58.735 -52.728  1.00  0.00     0.086 A 
HETATM    8  C   UNL     1     -42.757  59.832 -53.615  1.00  0.00     0.088 A 
HETATM    9  N   UNL     1     -42.580  59.682 -54.939  1.00  0.00    -0.225 NA
HETATM   10  C   UNL     1     -43.088  58.985 -51.372  1.00  0.00     0.034 A 
HETATM   11  C   UNL     1     -43.114  60.285 -50.865  1.00  0.00     0.002 A 
HETATM   12  C   UNL     1     -42.956  61.358 -51.731  1.00  0.00     0.002 A 
HETATM   13  C   UNL     1     -42.780  61.121 -53.095  1.00  0.00     0.034 A 
ENDROOT
BRANCH   1  14
HETATM   14  C   UNL     1     -42.661  54.736 -54.818  1.00  0.00     0.262 C 
HETATM   15  N   UNL     1     -41.845  54.604 -53.710  1.00  0.00    -0.322 N 
HETATM   16  H   UNL     1     -41.579  55.477 -53.275  1.00  0.00     0.169 HD
HETATM   17  O   UNL     1     -43.206  53.846 -55.456  1.00  0.00    -0.267 OA
BRANCH  15  18
HETATM   18  C   UNL     1     -41.149  53.461 -53.267  1.00  0.00     0.041 A 
HETATM   19  C   UNL     1     -40.875  52.376 -54.109  1.00  0.00     0.037 A 
HETATM   20  C   UNL     1     -40.072  51.309 -53.681  1.00  0.00    -0.060 A 
HETATM   21  C   UNL     1     -39.734  50.198 -54.632  1.00  0.00     0.048 C 
HETATM   22  C   UNL     1     -39.537  51.331 -52.392  1.00  0.00     0.007 A 
HETATM   23  C   UNL     1     -39.822  52.391 -51.534  1.00  0.00     0.009 A 
HETATM   24  C   UNL     1     -40.629  53.460 -51.953  1.00  0.00    -0.035 A 
HETATM   25  C   UNL     1     -40.876  54.590 -50.988  1.00  0.00     0.050 C 
ENDBRANCH  15  18
ENDBRANCH   1  14
BRANCH   2  26
HETATM   26  N   UNL     1     -42.430  55.757 -57.697  1.00  0.00    -0.383 N 
HETATM   27  H   UNL     1     -43.202  55.699 -58.358  1.00  0.00     0.157 HD
HETATM   28  H   UNL     1     -41.509  55.701 -58.138  1.00  0.00     0.157 HD
ENDBRANCH   2  26
BRANCH   3  29
HETATM   29  N   UNL     1     -42.110  58.494 -57.810  1.00  0.00    -0.176 NA
HETATM   30  C   UNL     1     -42.981  59.297 -58.315  1.00  0.00     0.153 C 
BRANCH  30  31
HETATM   31  C   UNL     1     -42.589  60.035 -59.503  1.00  0.00     0.011 A 
HETATM   32  C   UNL     1     -41.621  61.086 -59.606  1.00  0.00     0.004 A 
HETATM   33  C   UNL     1     -41.522  61.431 -60.956  1.00  0.00     0.043 A 
HETATM   34  C   UNL     1     -40.798  61.761 -58.681  1.00  0.00     0.014 A 
HETATM   35  C   UNL     1     -40.642  62.410 -61.427  1.00  0.00     0.030 A 
HETATM   36  N   UNL     1     -42.410  60.639 -61.645  1.00  0.00    -0.364 N 
HETATM   37  C   UNL     1     -39.837  63.064 -60.490  1.00  0.00     0.002 A 
HETATM   38  C   UNL     1     -39.914  62.748 -59.136  1.00  0.00     0.001 A 
HETATM   39  H   UNL     1     -42.547  60.668 -62.647  1.00  0.00     0.165 HD
HETATM   40  C   UNL     1     -43.055  59.797 -60.785  1.00  0.00     0.102 A 
ENDBRANCH  30  31
ENDBRANCH   3  29
TORSDOF 5
ENDMDL
MODEL 3
REMARK VINA RESULT:     -10.4      3.021      5.403
REMARK  5 active torsions:
REMARK  status: ('A' for Active; 'I' for Inactive)
REMARK    1  A    between atoms: C_4  and  N_5 
REMARK       I    between atoms: N_5  and  C_6 
REMARK    2  A    between atoms: C_6  and  C_7 
REMARK    3  A    between atoms: C_8  and  N_9 
REMARK    4  A    between atoms: N_10  and  N_11 
REMARK    5  A    between atoms: C_12  and  C_13 
ROOT
HETATM    1  C   UNL     1     -42.373  58.194 -55.395  1.00  0.00     0.110 A 
HETATM    2  C   UNL     1     -42.136  57.321 -54.353  1.00  0.00     0.143 A 
HETATM    3  N   UNL     1     -42.341  56.018 -54.795  1.00  0.00    -0.197 N 
HETATM    4  C   UNL     1     -42.814  56.077 -56.099  1.00  0.00     0.183 A 
HETATM    5  C   UNL     1     -42.829  57.419 -56.481  1.00  0.00     0.125 A 
HETATM    6  N   UNL     1     -43.192  57.797 -57.732  1.00  0.00    -0.242 NA
HETATM    7  C   UNL     1     -43.582  56.793 -58.533  1.00  0.00     0.086 A 
HETATM    8  C   UNL     1     -43.574  55.435 -58.121  1.00  0.00     0.088 A 
HETATM    9  N   UNL     1     -43.180  55.045 -56.897  1.00  0.00    -0.225 NA
HETATM   10  C   UNL     1     -44.005  57.105 -59.820  1.00  0.00     0.034 A 
HETATM   11  C   UNL     1     -44.419  56.116 -60.713  1.00  0.00     0.002 A 
HETATM   12  C   UNL     1     -44.407  54.787 -60.314  1.00  0.00     0.002 A 
HETATM   13  C   UNL     1     -43.985  54.461 -59.024  1.00  0.00     0.034 A 
ENDROOT
BRANCH   1  14
HETATM   14  C   UNL     1     -42.066  59.607 -55.337  1.00  0.00     0.262 C 
HETATM   15  N   UNL     1     -42.640  60.262 -56.411  1.00  0.00    -0.322 N 
HETATM   16  H   UNL     1     -43.317  59.717 -56.925  1.00  0.00     0.169 HD
HETATM   17  O   UNL     1     -41.306  60.069 -54.498  1.00  0.00    -0.267 OA
BRANCH  15  18
HETATM   18  C   UNL     1     -42.233  61.467 -57.020  1.00  0.00     0.041 A 
HETATM   19  C   UNL     1     -41.163  61.528 -57.921  1.00  0.00     0.037 A 
HETATM   20  C   UNL     1     -40.860  62.713 -58.609  1.00  0.00    -0.060 A 
HETATM   21  C   UNL     1     -39.756  62.726 -59.625  1.00  0.00     0.048 C 
HETATM   22  C   UNL     1     -41.640  63.849 -58.388  1.00  0.00     0.007 A 
HETATM   23  C   UNL     1     -42.691  63.811 -57.476  1.00  0.00     0.009 A 
HETATM   24  C   UNL     1     -42.998  62.630 -56.780  1.00  0.00    -0.035 A 
HETATM   25  C   UNL     1     -44.165  62.646 -55.827  1.00  0.00     0.050 C 
ENDBRANCH  15  18
ENDBRANCH   1  14
BRANCH   2  26
HETATM   26  N   UNL     1     -41.684  57.558 -53.092  1.00  0.00    -0.383 N 
HETATM   27  H   UNL     1     -40.996  58.288 -52.917  1.00  0.00     0.157 HD
HETATM   28  H   UNL     1     -42.340  57.421 -52.320  1.00  0.00     0.157 HD
ENDBRANCH   2  26
BRANCH   3  29
HETATM   29  N   UNL     1     -42.030  54.968 -53.974  1.00  0.00    -0.176 NA
HETATM   30  C   UNL     1     -40.811  54.551 -53.966  1.00  0.00     0.153 C 
BRANCH  30  31
HETATM   31  C   UNL     1     -40.469  53.530 -52.990  1.00  0.00     0.011 A 
HETATM   32  C   UNL     1     -40.210  52.141 -53.225  1.00  0.00     0.004 A 
HETATM   33  C   UNL     1     -39.841  51.574 -52.003  1.00  0.00     0.043 A 
HETATM   34  C   UNL     1     -40.228  51.315 -54.368  1.00  0.00     0.014 A 
HETATM   35  C   UNL     1     -39.486  50.227 -51.867  1.00  0.00     0.030 A 
HETATM   36  N   UNL     1     -39.896  52.570 -51.058  1.00  0.00    -0.364 N 
HETATM   37  C   UNL     1     -39.512  49.431 -53.015  1.00  0.00     0.002 A 
HETATM   38  C   UNL     1     -39.880  49.963 -54.248  1.00  0.00     0.001 A 
HETATM   39  H   UNL     1     -39.672  52.447 -50.079  1.00  0.00     0.165 HD
HETATM   40  C   UNL     1     -40.270  53.749 -51.638  1.00  0.00     0.102 A 
ENDBRANCH  30  31
ENDBRANCH   3  29
TORSDOF 5
ENDMDL
MODEL 4
REMARK VINA RESULT:     -10.2      2.129      2.985
REMARK  5 active torsions:
REMARK  status: ('A' for Active; 'I' for Inactive)
REMARK    1  A    between atoms: C_4  and  N_5 
REMARK       I    between atoms: N_5  and  C_6 
REMARK    2  A    between atoms: C_6  and  C_7 
REMARK    3  A    between atoms: C_8  and  N_9 
REMARK    4  A    between atoms: N_10  and  N_11 
REMARK    5  A    between atoms: C_12  and  C_13 
ROOT
HETATM    1  C   UNL     1     -43.303  57.180 -55.814  1.00  0.00     0.110 A 
HETATM    2  C   UNL     1     -42.596  56.049 -55.459  1.00  0.00     0.143 A 
HETATM    3  N   UNL     1     -42.775  55.806 -54.101  1.00  0.00    -0.197 N 
HETATM    4  C   UNL     1     -43.517  56.855 -53.573  1.00  0.00     0.183 A 
HETATM    5  C   UNL     1     -43.855  57.704 -54.627  1.00  0.00     0.125 A 
HETATM    6  N   UNL     1     -44.634  58.799 -54.436  1.00  0.00    -0.242 NA
HETATM    7  C   UNL     1     -44.994  59.018 -53.162  1.00  0.00     0.086 A 
HETATM    8  C   UNL     1     -44.627  58.150 -52.100  1.00  0.00     0.088 A 
HETATM    9  N   UNL     1     -43.889  57.042 -52.284  1.00  0.00    -0.225 NA
HETATM   10  C   UNL     1     -45.761  60.142 -52.879  1.00  0.00     0.034 A 
HETATM   11  C   UNL     1     -46.179  60.433 -51.580  1.00  0.00     0.002 A 
HETATM   12  C   UNL     1     -45.826  59.583 -50.542  1.00  0.00     0.002 A 
HETATM   13  C   UNL     1     -45.055  58.452 -50.813  1.00  0.00     0.034 A 
ENDROOT
BRANCH   1  14
HETATM   14  C   UNL     1     -43.493  57.604 -57.184  1.00  0.00     0.262 C 
HETATM   15  N   UNL     1     -42.338  58.193 -57.662  1.00  0.00    -0.322 N 
HETATM   16  H   UNL     1     -41.522  58.056 -57.082  1.00  0.00     0.169 HD
HETATM   17  O   UNL     1     -44.579  57.530 -57.739  1.00  0.00    -0.267 OA
BRANCH  15  18
HETATM   18  C   UNL     1     -42.203  59.145 -58.694  1.00  0.00     0.041 A 
HETATM   19  C   UNL     1     -42.086  60.517 -58.437  1.00  0.00     0.037 A 
HETATM   20  C   UNL     1     -41.826  61.429 -59.471  1.00  0.00    -0.060 A 
HETATM   21  C   UNL     1     -41.630  62.883 -59.154  1.00  0.00     0.048 C 
HETATM   22  C   UNL     1     -41.682  60.959 -60.777  1.00  0.00     0.007 A 
HETATM   23  C   UNL     1     -41.822  59.601 -61.051  1.00  0.00     0.009 A 
HETATM   24  C   UNL     1     -42.087  58.682 -60.023  1.00  0.00    -0.035 A 
HETATM   25  C   UNL     1     -42.198  57.223 -60.381  1.00  0.00     0.050 C 
ENDBRANCH  15  18
ENDBRANCH   1  14
BRANCH   2  26
HETATM   26  N   UNL     1     -41.885  55.179 -56.226  1.00  0.00    -0.383 N 
HETATM   27  H   UNL     1     -41.055  54.721 -55.855  1.00  0.00     0.157 HD
HETATM   28  H   UNL     1     -42.402  54.606 -56.897  1.00  0.00     0.157 HD
ENDBRANCH   2  26
BRANCH   3  29
HETATM   29  N   UNL     1     -42.282  54.655 -53.548  1.00  0.00    -0.176 NA
HETATM   30  C   UNL     1     -41.123  54.705 -52.989  1.00  0.00     0.153 C 
BRANCH  30  31
HETATM   31  C   UNL     1     -40.677  53.514 -52.288  1.00  0.00     0.011 A 
HETATM   32  C   UNL     1     -40.343  52.238 -52.847  1.00  0.00     0.004 A 
HETATM   33  C   UNL     1     -39.887  51.431 -51.802  1.00  0.00     0.043 A 
HETATM   34  C   UNL     1     -40.361  51.697 -54.150  1.00  0.00     0.014 A 
HETATM   35  C   UNL     1     -39.445  50.117 -51.992  1.00  0.00     0.030 A 
HETATM   36  N   UNL     1     -39.962  52.177 -50.649  1.00  0.00    -0.364 N 
HETATM   37  C   UNL     1     -39.473  49.607 -53.293  1.00  0.00     0.002 A 
HETATM   38  C   UNL     1     -39.926  50.382 -54.357  1.00  0.00     0.001 A 
HETATM   39  H   UNL     1     -39.688  51.847 -49.733  1.00  0.00     0.165 HD
HETATM   40  C   UNL     1     -40.432  53.428 -50.928  1.00  0.00     0.102 A 
ENDBRANCH  30  31
ENDBRANCH   3  29
TORSDOF 5
ENDMDL
MODEL 5
REMARK VINA RESULT:     -10.2      2.736      8.929
REMARK  5 active torsions:
REMARK  status: ('A' for Active; 'I' for Inactive)
REMARK    1  A    between atoms: C_4  and  N_5 
REMARK       I    between atoms: N_5  and  C_6 
REMARK    2  A    between atoms: C_6  and  C_7 
REMARK    3  A    between atoms: C_8  and  N_9 
REMARK    4  A    between atoms: N_10  and  N_11 
REMARK    5  A    between atoms: C_12  and  C_13 
ROOT
HETATM    1  C   UNL     1     -41.850  56.264 -52.324  1.00  0.00     0.110 A 
HETATM    2  C   UNL     1     -41.800  57.362 -51.489  1.00  0.00     0.143 A 
HETATM    3  N   UNL     1     -42.248  58.482 -52.182  1.00  0.00    -0.197 N 
HETATM    4  C   UNL     1     -42.481  58.106 -53.498  1.00  0.00     0.183 A 
HETATM    5  C   UNL     1     -42.246  56.735 -53.593  1.00  0.00     0.125 A 
HETATM    6  N   UNL     1     -42.445  56.058 -54.752  1.00  0.00    -0.242 NA
HETATM    7  C   UNL     1     -42.826  56.819 -55.789  1.00  0.00     0.086 A 
HETATM    8  C   UNL     1     -43.046  58.217 -55.677  1.00  0.00     0.088 A 
HETATM    9  N   UNL     1     -42.889  58.891 -54.525  1.00  0.00    -0.225 NA
HETATM   10  C   UNL     1     -43.015  56.204 -57.022  1.00  0.00     0.034 A 
HETATM   11  C   UNL     1     -43.416  56.928 -58.146  1.00  0.00     0.002 A 
HETATM   12  C   UNL     1     -43.637  58.293 -58.036  1.00  0.00     0.002 A 
HETATM   13  C   UNL     1     -43.450  58.922 -56.804  1.00  0.00     0.034 A 
ENDROOT
BRANCH   1  14
HETATM   14  C   UNL     1     -41.639  54.906 -51.870  1.00  0.00     0.262 C 
HETATM   15  N   UNL     1     -40.488  54.390 -52.434  1.00  0.00    -0.322 N 
HETATM   16  H   UNL     1     -39.896  55.073 -52.887  1.00  0.00     0.169 HD
HETATM   17  O   UNL     1     -42.462  54.321 -51.181  1.00  0.00    -0.267 OA
BRANCH  15  18
HETATM   18  C   UNL     1     -40.161  53.040 -52.676  1.00  0.00     0.041 A 
HETATM   19  C   UNL     1     -39.920  52.130 -51.640  1.00  0.00     0.037 A 
HETATM   20  C   UNL     1     -39.723  50.766 -51.903  1.00  0.00    -0.060 A 
HETATM   21  C   UNL     1     -39.542  49.803 -50.766  1.00  0.00     0.048 C 
HETATM   22  C   UNL     1     -39.767  50.311 -53.222  1.00  0.00     0.007 A 
HETATM   23  C   UNL     1     -39.981  51.209 -54.265  1.00  0.00     0.009 A 
HETATM   24  C   UNL     1     -40.175  52.576 -54.011  1.00  0.00    -0.035 A 
HETATM   25  C   UNL     1     -40.429  53.491 -55.180  1.00  0.00     0.050 C 
ENDBRANCH  15  18
ENDBRANCH   1  14
BRANCH   2  26
HETATM   26  N   UNL     1     -41.480  57.450 -50.170  1.00  0.00    -0.383 N 
HETATM   27  H   UNL     1     -40.927  56.721 -49.722  1.00  0.00     0.157 HD
HETATM   28  H   UNL     1     -41.318  58.382 -49.782  1.00  0.00     0.157 HD
ENDBRANCH   2  26
BRANCH   3  29
HETATM   29  N   UNL     1     -42.422  59.665 -51.515  1.00  0.00    -0.176 NA
HETATM   30  C   UNL     1     -43.624  60.102 -51.368  1.00  0.00     0.153 C 
BRANCH  30  31
HETATM   31  C   UNL     1     -43.801  61.283 -50.542  1.00  0.00     0.011 A 
HETATM   32  C   UNL     1     -44.529  61.396 -49.314  1.00  0.00     0.004 A 
HETATM   33  C   UNL     1     -44.350  62.698 -48.840  1.00  0.00     0.043 A 
HETATM   34  C   UNL     1     -45.305  60.505 -48.542  1.00  0.00     0.014 A 
HETATM   35  C   UNL     1     -44.900  63.152 -47.637  1.00  0.00     0.030 A 
HETATM   36  N   UNL     1     -43.564  63.359 -49.755  1.00  0.00    -0.364 N 
HETATM   37  C   UNL     1     -45.664  62.248 -46.892  1.00  0.00     0.002 A 
HETATM   38  C   UNL     1     -45.867  60.945 -47.337  1.00  0.00     0.001 A 
HETATM   39  H   UNL     1     -43.266  64.321 -49.666  1.00  0.00     0.165 HD
HETATM   40  C   UNL     1     -43.227  62.521 -50.779  1.00  0.00     0.102 A 
ENDBRANCH  30  31
ENDBRANCH   3  29
TORSDOF 5
ENDMDL
MODEL 6
REMARK VINA RESULT:      -9.8      3.437      7.150
REMARK  5 active torsions:
REMARK  status: ('A' for Active; 'I' for Inactive)
REMARK    1  A    between atoms: C_4  and  N_5 
REMARK       I    between atoms: N_5  and  C_6 
REMARK    2  A    between atoms: C_6  and  C_7 
REMARK    3  A    between atoms: C_8  and  N_9 
REMARK    4  A    between atoms: N_10  and  N_11 
REMARK    5  A    between atoms: C_12  and  C_13 
ROOT
HETATM    1  C   UNL     1     -44.781  58.478 -51.824  1.00  0.00     0.110 A 
HETATM    2  C   UNL     1     -44.366  57.193 -51.539  1.00  0.00     0.143 A 
HETATM    3  N   UNL     1     -43.461  56.780 -52.512  1.00  0.00    -0.197 N 
HETATM    4  C   UNL     1     -43.386  57.776 -53.477  1.00  0.00     0.183 A 
HETATM    5  C   UNL     1     -44.192  58.833 -53.055  1.00  0.00     0.125 A 
HETATM    6  N   UNL     1     -44.282  59.985 -53.765  1.00  0.00    -0.242 NA
HETATM    7  C   UNL     1     -43.586  59.995 -54.913  1.00  0.00     0.086 A 
HETATM    8  C   UNL     1     -42.782  58.903 -55.333  1.00  0.00     0.088 A 
HETATM    9  N   UNL     1     -42.656  57.772 -54.618  1.00  0.00    -0.225 NA
HETATM   10  C   UNL     1     -43.657  61.128 -55.715  1.00  0.00     0.034 A 
HETATM   11  C   UNL     1     -42.956  61.215 -56.920  1.00  0.00     0.002 A 
HETATM   12  C   UNL     1     -42.166  60.150 -57.329  1.00  0.00     0.002 A 
HETATM   13  C   UNL     1     -42.088  59.007 -56.532  1.00  0.00     0.034 A 
ENDROOT
BRANCH   1  14
HETATM   14  C   UNL     1     -45.570  59.281 -50.915  1.00  0.00     0.262 C 
HETATM   15  N   UNL     1     -44.953  60.498 -50.699  1.00  0.00    -0.322 N 
HETATM   16  H   UNL     1     -44.196  60.707 -51.335  1.00  0.00     0.169 HD
HETATM   17  O   UNL     1     -46.568  58.840 -50.364  1.00  0.00    -0.267 OA
BRANCH  15  18
HETATM   18  C   UNL     1     -45.070  61.353 -49.584  1.00  0.00     0.041 A 
HETATM   19  C   UNL     1     -45.041  60.876 -48.267  1.00  0.00     0.037 A 
HETATM   20  C   UNL     1     -45.030  61.757 -47.176  1.00  0.00    -0.060 A 
HETATM   21  C   UNL     1     -44.921  61.218 -45.780  1.00  0.00     0.048 C 
HETATM   22  C   UNL     1     -45.051  63.134 -47.409  1.00  0.00     0.007 A 
HETATM   23  C   UNL     1     -45.107  63.622 -48.712  1.00  0.00     0.009 A 
HETATM   24  C   UNL     1     -45.122  62.747 -49.809  1.00  0.00    -0.035 A 
HETATM   25  C   UNL     1     -45.154  63.338 -51.195  1.00  0.00     0.050 C 
ENDBRANCH  15  18
ENDBRANCH   1  14
BRANCH   2  26
HETATM   26  N   UNL     1     -44.645  56.394 -50.474  1.00  0.00    -0.383 N 
HETATM   27  H   UNL     1     -44.997  56.793 -49.606  1.00  0.00     0.157 HD
HETATM   28  H   UNL     1     -45.001  55.455 -50.666  1.00  0.00     0.157 HD
ENDBRANCH   2  26
BRANCH   3  29
HETATM   29  N   UNL     1     -42.805  55.588 -52.364  1.00  0.00    -0.176 NA
HETATM   30  C   UNL     1     -41.586  55.620 -51.949  1.00  0.00     0.153 C 
BRANCH  30  31
HETATM   31  C   UNL     1     -40.951  54.344 -51.666  1.00  0.00     0.011 A 
HETATM   32  C   UNL     1     -40.644  53.291 -52.587  1.00  0.00     0.004 A 
HETATM   33  C   UNL     1     -39.963  52.301 -51.876  1.00  0.00     0.043 A 
HETATM   34  C   UNL     1     -40.857  53.097 -53.968  1.00  0.00     0.014 A 
HETATM   35  C   UNL     1     -39.482  51.131 -52.473  1.00  0.00     0.030 A 
HETATM   36  N   UNL     1     -39.880  52.721 -50.570  1.00  0.00    -0.364 N 
HETATM   37  C   UNL     1     -39.706  50.963 -53.843  1.00  0.00     0.002 A 
HETATM   38  C   UNL     1     -40.385  51.928 -54.581  1.00  0.00     0.001 A 
HETATM   39  H   UNL     1     -39.430  52.203 -49.827  1.00  0.00     0.165 HD
HETATM   40  C   UNL     1     -40.467  53.946 -50.431  1.00  0.00     0.102 A 
ENDBRANCH  30  31
ENDBRANCH   3  29
TORSDOF 5
ENDMDL
MODEL 7
REMARK VINA RESULT:      -9.6      2.332      9.044
REMARK  5 active torsions:
REMARK  status: ('A' for Active; 'I' for Inactive)
REMARK    1  A    between atoms: C_4  and  N_5 
REMARK       I    between atoms: N_5  and  C_6 
REMARK    2  A    between atoms: C_6  and  C_7 
REMARK    3  A    between atoms: C_8  and  N_9 
REMARK    4  A    between atoms: N_10  and  N_11 
REMARK    5  A    between atoms: C_12  and  C_13 
ROOT
HETATM    1  C   UNL     1     -42.955  55.849 -52.655  1.00  0.00     0.110 A 
HETATM    2  C   UNL     1     -43.376  56.859 -51.813  1.00  0.00     0.143 A 
HETATM    3  N   UNL     1     -43.943  57.878 -52.572  1.00  0.00    -0.197 N 
HETATM    4  C   UNL     1     -43.780  57.553 -53.913  1.00  0.00     0.183 A 
HETATM    5  C   UNL     1     -43.179  56.297 -53.973  1.00  0.00     0.125 A 
HETATM    6  N   UNL     1     -42.940  55.679 -55.157  1.00  0.00    -0.242 NA
HETATM    7  C   UNL     1     -43.275  56.393 -56.242  1.00  0.00     0.086 A 
HETATM    8  C   UNL     1     -43.874  57.678 -56.162  1.00  0.00     0.088 A 
HETATM    9  N   UNL     1     -44.150  58.283 -54.994  1.00  0.00    -0.225 NA
HETATM   10  C   UNL     1     -43.027  55.843 -57.495  1.00  0.00     0.034 A 
HETATM   11  C   UNL     1     -43.353  56.522 -58.669  1.00  0.00     0.002 A 
HETATM   12  C   UNL     1     -43.943  57.776 -58.592  1.00  0.00     0.002 A 
HETATM   13  C   UNL     1     -44.197  58.339 -57.340  1.00  0.00     0.034 A 
ENDROOT
BRANCH   1  14
HETATM   14  C   UNL     1     -42.498  54.559 -52.185  1.00  0.00     0.262 C 
HETATM   15  N   UNL     1     -41.191  54.346 -52.581  1.00  0.00    -0.322 N 
HETATM   16  H   UNL     1     -40.718  55.165 -52.937  1.00  0.00     0.169 HD
HETATM   17  O   UNL     1     -43.248  53.772 -51.627  1.00  0.00    -0.267 OA
BRANCH  15  18
HETATM   18  C   UNL     1     -40.526  53.118 -52.783  1.00  0.00     0.041 A 
HETATM   19  C   UNL     1     -40.280  52.218 -51.739  1.00  0.00     0.037 A 
HETATM   20  C   UNL     1     -39.733  50.950 -51.988  1.00  0.00    -0.060 A 
HETATM   21  C   UNL     1     -39.552  49.979 -50.858  1.00  0.00     0.048 C 
HETATM   22  C   UNL     1     -39.429  50.583 -53.300  1.00  0.00     0.007 A 
HETATM   23  C   UNL     1     -39.644  51.478 -54.345  1.00  0.00     0.009 A 
HETATM   24  C   UNL     1     -40.187  52.750 -54.104  1.00  0.00    -0.035 A 
HETATM   25  C   UNL     1     -40.421  53.661 -55.281  1.00  0.00     0.050 C 
ENDBRANCH  15  18
ENDBRANCH   1  14
BRANCH   2  26
HETATM   26  N   UNL     1     -43.381  56.928 -50.455  1.00  0.00    -0.383 N 
HETATM   27  H   UNL     1     -43.852  57.693 -49.977  1.00  0.00     0.157 HD
HETATM   28  H   UNL     1     -43.402  56.047 -49.935  1.00  0.00     0.157 HD
ENDBRANCH   2  26
BRANCH   3  29
HETATM   29  N   UNL     1     -44.560  58.926 -51.945  1.00  0.00    -0.176 NA
HETATM   30  C   UNL     1     -43.923  60.043 -51.872  1.00  0.00     0.153 C 
BRANCH  30  31
HETATM   31  C   UNL     1     -44.644  61.180 -51.328  1.00  0.00     0.011 A 
HETATM   32  C   UNL     1     -45.915  61.694 -51.741  1.00  0.00     0.004 A 
HETATM   33  C   UNL     1     -46.244  62.740 -50.876  1.00  0.00     0.043 A 
HETATM   34  C   UNL     1     -46.834  61.353 -52.756  1.00  0.00     0.014 A 
HETATM   35  C   UNL     1     -47.442  63.457 -50.969  1.00  0.00     0.030 A 
HETATM   36  N   UNL     1     -45.205  62.874 -49.986  1.00  0.00    -0.364 N 
HETATM   37  C   UNL     1     -48.334  63.098 -51.983  1.00  0.00     0.002 A 
HETATM   38  C   UNL     1     -48.036  62.064 -52.866  1.00  0.00     0.001 A 
HETATM   39  H   UNL     1     -45.174  63.553 -49.237  1.00  0.00     0.165 HD
HETATM   40  C   UNL     1     -44.240  61.943 -50.245  1.00  0.00     0.102 A 
ENDBRANCH  30  31
ENDBRANCH   3  29
TORSDOF 5
ENDMDL
MODEL 8
REMARK VINA RESULT:      -9.4      2.185      8.350
REMARK  5 active torsions:
REMARK  status: ('A' for Active; 'I' for Inactive)
REMARK    1  A    between atoms: C_4  and  N_5 
REMARK       I    between atoms: N_5  and  C_6 
REMARK    2  A    between atoms: C_6  and  C_7 
REMARK    3  A    between atoms: C_8  and  N_9 
REMARK    4  A    between atoms: N_10  and  N_11 
REMARK    5  A    between atoms: C_12  and  C_13 
ROOT
HETATM    1  C   UNL     1     -43.359  56.054 -52.834  1.00  0.00     0.110 A 
HETATM    2  C   UNL     1     -44.024  55.930 -54.037  1.00  0.00     0.143 A 
HETATM    3  N   UNL     1     -44.316  57.198 -54.530  1.00  0.00    -0.197 N 
HETATM    4  C   UNL     1     -43.925  58.128 -53.575  1.00  0.00     0.183 A 
HETATM    5  C   UNL     1     -43.325  57.430 -52.527  1.00  0.00     0.125 A 
HETATM    6  N   UNL     1     -42.786  58.073 -51.461  1.00  0.00    -0.242 NA
HETATM    7  C   UNL     1     -42.928  59.407 -51.478  1.00  0.00     0.086 A 
HETATM    8  C   UNL     1     -43.556  60.099 -52.547  1.00  0.00     0.088 A 
HETATM    9  N   UNL     1     -44.059  59.476 -53.626  1.00  0.00    -0.225 NA
HETATM   10  C   UNL     1     -42.434  60.135 -50.401  1.00  0.00     0.034 A 
HETATM   11  C   UNL     1     -42.540  61.526 -50.350  1.00  0.00     0.002 A 
HETATM   12  C   UNL     1     -43.148  62.204 -51.396  1.00  0.00     0.002 A 
HETATM   13  C   UNL     1     -43.649  61.485 -52.482  1.00  0.00     0.034 A 
ENDROOT
BRANCH   1  14
HETATM   14  C   UNL     1     -42.740  54.941 -52.147  1.00  0.00     0.262 C 
HETATM   15  N   UNL     1     -41.483  54.702 -52.668  1.00  0.00    -0.322 N 
HETATM   16  H   UNL     1     -41.130  55.431 -53.273  1.00  0.00     0.169 HD
HETATM   17  O   UNL     1     -43.343  54.279 -51.315  1.00  0.00    -0.267 OA
BRANCH  15  18
HETATM   18  C   UNL     1     -40.752  53.496 -52.672  1.00  0.00     0.041 A 
HETATM   19  C   UNL     1     -40.619  52.697 -51.529  1.00  0.00     0.037 A 
HETATM   20  C   UNL     1     -39.996  51.441 -51.590  1.00  0.00    -0.060 A 
HETATM   21  C   UNL     1     -39.936  50.575 -50.366  1.00  0.00     0.048 C 
HETATM   22  C   UNL     1     -39.499  50.984 -52.812  1.00  0.00     0.007 A 
HETATM   23  C   UNL     1     -39.601  51.779 -53.951  1.00  0.00     0.009 A 
HETATM   24  C   UNL     1     -40.220  53.038 -53.897  1.00  0.00    -0.035 A 
HETATM   25  C   UNL     1     -40.323  53.838 -55.170  1.00  0.00     0.050 C 
ENDBRANCH  15  18
ENDBRANCH   1  14
BRANCH   2  26
HETATM   26  N   UNL     1     -44.319  54.822 -54.769  1.00  0.00    -0.383 N 
HETATM   27  H   UNL     1     -45.283  54.507 -54.865  1.00  0.00     0.157 HD
HETATM   28  H   UNL     1     -43.743  54.629 -55.592  1.00  0.00     0.157 HD
ENDBRANCH   2  26
BRANCH   3  29
HETATM   29  N   UNL     1     -44.849  57.332 -55.783  1.00  0.00    -0.176 NA
HETATM   30  C   UNL     1     -44.064  57.695 -56.736  1.00  0.00     0.153 C 
BRANCH  30  31
HETATM   31  C   UNL     1     -44.614  57.698 -58.081  1.00  0.00     0.011 A 
HETATM   32  C   UNL     1     -45.784  58.377 -58.551  1.00  0.00     0.004 A 
HETATM   33  C   UNL     1     -45.870  58.156 -59.927  1.00  0.00     0.043 A 
HETATM   34  C   UNL     1     -46.768  59.182 -57.939  1.00  0.00     0.014 A 
HETATM   35  C   UNL     1     -46.883  58.701 -60.723  1.00  0.00     0.030 A 
HETATM   36  N   UNL     1     -44.809  57.355 -60.278  1.00  0.00    -0.364 N 
HETATM   37  C   UNL     1     -47.844  59.496 -60.092  1.00  0.00     0.002 A 
HETATM   38  C   UNL     1     -47.791  59.733 -58.722  1.00  0.00     0.001 A 
HETATM   39  H   UNL     1     -44.615  57.039 -61.219  1.00  0.00     0.165 HD
HETATM   40  C   UNL     1     -44.047  57.075 -59.180  1.00  0.00     0.102 A 
ENDBRANCH  30  31
ENDBRANCH   3  29
TORSDOF 5
ENDMDL
MODEL 9
REMARK VINA RESULT:      -9.3      3.058      9.195
REMARK  5 active torsions:
REMARK  status: ('A' for Active; 'I' for Inactive)
REMARK    1  A    between atoms: C_4  and  N_5 
REMARK       I    between atoms: N_5  and  C_6 
REMARK    2  A    between atoms: C_6  and  C_7 
REMARK    3  A    between atoms: C_8  and  N_9 
REMARK    4  A    between atoms: N_10  and  N_11 
REMARK    5  A    between atoms: C_12  and  C_13 
ROOT
HETATM    1  C   UNL     1     -42.252  57.290 -53.014  1.00  0.00     0.110 A 
HETATM    2  C   UNL     1     -42.188  58.319 -52.095  1.00  0.00     0.143 A 
HETATM    3  N   UNL     1     -42.232  59.535 -52.770  1.00  0.00    -0.197 N 
HETATM    4  C   UNL     1     -42.216  59.270 -54.133  1.00  0.00     0.183 A 
HETATM    5  C   UNL     1     -42.237  57.885 -54.293  1.00  0.00     0.125 A 
HETATM    6  N   UNL     1     -42.285  57.312 -55.522  1.00  0.00    -0.242 NA
HETATM    7  C   UNL     1     -42.254  58.177 -56.547  1.00  0.00     0.086 A 
HETATM    8  C   UNL     1     -42.217  59.584 -56.365  1.00  0.00     0.088 A 
HETATM    9  N   UNL     1     -42.208  60.163 -55.152  1.00  0.00    -0.225 NA
HETATM   10  C   UNL     1     -42.262  57.665 -57.840  1.00  0.00     0.034 A 
HETATM   11  C   UNL     1     -42.237  58.501 -58.957  1.00  0.00     0.002 A 
HETATM   12  C   UNL     1     -42.207  59.877 -58.780  1.00  0.00     0.002 A 
HETATM   13  C   UNL     1     -42.197  60.403 -57.487  1.00  0.00     0.034 A 
ENDROOT
BRANCH   1  14
HETATM   14  C   UNL     1     -42.424  55.902 -52.646  1.00  0.00     0.262 C 
HETATM   15  N   UNL     1     -41.248  55.401 -52.120  1.00  0.00    -0.322 N 
HETATM   16  H   UNL     1     -40.553  56.100 -51.896  1.00  0.00     0.169 HD
HETATM   17  O   UNL     1     -43.451  55.289 -52.898  1.00  0.00    -0.267 OA
BRANCH  15  18
HETATM   18  C   UNL     1     -40.802  54.063 -52.090  1.00  0.00     0.041 A 
HETATM   19  C   UNL     1     -40.731  53.271 -53.242  1.00  0.00     0.037 A 
HETATM   20  C   UNL     1     -40.166  51.987 -53.206  1.00  0.00    -0.060 A 
HETATM   21  C   UNL     1     -40.035  51.192 -54.472  1.00  0.00     0.048 C 
HETATM   22  C   UNL     1     -39.667  51.494 -51.999  1.00  0.00     0.007 A 
HETATM   23  C   UNL     1     -39.754  52.261 -50.840  1.00  0.00     0.009 A 
HETATM   24  C   UNL     1     -40.323  53.544 -50.867  1.00  0.00    -0.035 A 
HETATM   25  C   UNL     1     -40.362  54.335 -49.585  1.00  0.00     0.050 C 
ENDBRANCH  15  18
ENDBRANCH   1  14
BRANCH   2  26
HETATM   26  N   UNL     1     -42.178  58.285 -50.736  1.00  0.00    -0.383 N 
HETATM   27  H   UNL     1     -41.428  57.811 -50.236  1.00  0.00     0.157 HD
HETATM   28  H   UNL     1     -42.551  59.096 -50.238  1.00  0.00     0.157 HD
ENDBRANCH   2  26
BRANCH   3  29
HETATM   29  N   UNL     1     -42.324  60.701 -52.058  1.00  0.00    -0.176 NA
HETATM   30  C   UNL     1     -43.439  61.344 -52.098  1.00  0.00     0.153 C 
BRANCH  30  31
HETATM   31  C   UNL     1     -43.565  62.501 -51.230  1.00  0.00     0.011 A 
HETATM   32  C   UNL     1     -44.087  62.548 -49.897  1.00  0.00     0.004 A 
HETATM   33  C   UNL     1     -43.930  63.856 -49.433  1.00  0.00     0.043 A 
HETATM   34  C   UNL     1     -44.657  61.594 -49.028  1.00  0.00     0.014 A 
HETATM   35  C   UNL     1     -44.307  64.257 -48.147  1.00  0.00     0.030 A 
HETATM   36  N   UNL     1     -43.357  64.583 -50.450  1.00  0.00    -0.364 N 
HETATM   37  C   UNL     1     -44.869  63.292 -47.306  1.00  0.00     0.002 A 
HETATM   38  C   UNL     1     -45.044  61.981 -47.738  1.00  0.00     0.001 A 
HETATM   39  H   UNL     1     -43.121  65.565 -50.392  1.00  0.00     0.165 HD
HETATM   40  C   UNL     1     -43.131  63.782 -51.532  1.00  0.00     0.102 A 
ENDBRANCH  30  31
ENDBRANCH   3  29
TORSDOF 5
ENDMDL
MODEL 10
REMARK VINA RESULT:      -9.2      2.829      7.563
REMARK  5 active torsions:
REMARK  status: ('A' for Active; 'I' for Inactive)
REMARK    1  A    between atoms: C_4  and  N_5 
REMARK       I    between atoms: N_5  and  C_6 
REMARK    2  A    between atoms: C_6  and  C_7 
REMARK    3  A    between atoms: C_8  and  N_9 
REMARK    4  A    between atoms: N_10  and  N_11 
REMARK    5  A    between atoms: C_12  and  C_13 
ROOT
HETATM    1  C   UNL     1     -44.510  57.973 -54.133  1.00  0.00     0.110 A 
HETATM    2  C   UNL     1     -44.915  59.144 -53.523  1.00  0.00     0.143 A 
HETATM    3  N   UNL     1     -44.249  59.279 -52.308  1.00  0.00    -0.197 N 
HETATM    4  C   UNL     1     -43.496  58.130 -52.103  1.00  0.00     0.183 A 
HETATM    5  C   UNL     1     -43.645  57.321 -53.230  1.00  0.00     0.125 A 
HETATM    6  N   UNL     1     -42.981  56.145 -53.353  1.00  0.00    -0.242 NA
HETATM    7  C   UNL     1     -42.229  55.810 -52.293  1.00  0.00     0.086 A 
HETATM    8  C   UNL     1     -42.102  56.639 -51.148  1.00  0.00     0.088 A 
HETATM    9  N   UNL     1     -42.725  57.824 -51.032  1.00  0.00    -0.225 NA
HETATM   10  C   UNL     1     -41.546  54.599 -52.328  1.00  0.00     0.034 A 
HETATM   11  C   UNL     1     -40.740  54.184 -51.266  1.00  0.00     0.002 A 
HETATM   12  C   UNL     1     -40.610  54.997 -50.149  1.00  0.00     0.002 A 
HETATM   13  C   UNL     1     -41.292  56.214 -50.102  1.00  0.00     0.034 A 
ENDROOT
BRANCH   1  14
HETATM   14  C   UNL     1     -44.858  57.621 -55.492  1.00  0.00     0.262 C 
HETATM   15  N   UNL     1     -43.794  56.988 -56.105  1.00  0.00    -0.322 N 
HETATM   16  H   UNL     1     -43.055  56.701 -55.479  1.00  0.00     0.169 HD
HETATM   17  O   UNL     1     -45.915  57.968 -55.999  1.00  0.00    -0.267 OA
BRANCH  15  18
HETATM   18  C   UNL     1     -43.494  56.914 -57.481  1.00  0.00     0.041 A 
HETATM   19  C   UNL     1     -44.031  55.925 -58.314  1.00  0.00     0.037 A 
HETATM   20  C   UNL     1     -43.819  55.949 -59.701  1.00  0.00    -0.060 A 
HETATM   21  C   UNL     1     -44.470  54.918 -60.575  1.00  0.00     0.048 C 
HETATM   22  C   UNL     1     -43.058  56.979 -60.257  1.00  0.00     0.007 A 
HETATM   23  C   UNL     1     -42.497  57.956 -59.439  1.00  0.00     0.009 A 
HETATM   24  C   UNL     1     -42.701  57.936 -58.050  1.00  0.00    -0.035 A 
HETATM   25  C   UNL     1     -42.089  59.037 -57.222  1.00  0.00     0.050 C 
ENDBRANCH  15  18
ENDBRANCH   1  14
BRANCH   2  26
HETATM   26  N   UNL     1     -45.743  60.127 -53.968  1.00  0.00    -0.383 N 
HETATM   27  H   UNL     1     -46.709  59.919 -54.212  1.00  0.00     0.157 HD
HETATM   28  H   UNL     1     -45.611  61.067 -53.586  1.00  0.00     0.157 HD
ENDBRANCH   2  26
BRANCH   3  29
HETATM   29  N   UNL     1     -44.383  60.435 -51.588  1.00  0.00    -0.176 NA
HETATM   30  C   UNL     1     -45.069  60.389 -50.499  1.00  0.00     0.153 C 
BRANCH  30  31
HETATM   31  C   UNL     1     -45.086  61.587 -49.678  1.00  0.00     0.011 A 
HETATM   32  C   UNL     1     -45.195  61.675 -48.253  1.00  0.00     0.004 A 
HETATM   33  C   UNL     1     -45.082  63.023 -47.908  1.00  0.00     0.043 A 
HETATM   34  C   UNL     1     -45.353  60.730 -47.216  1.00  0.00     0.014 A 
HETATM   35  C   UNL     1     -45.114  63.475 -46.584  1.00  0.00     0.030 A 
HETATM   36  N   UNL     1     -44.934  63.732 -49.077  1.00  0.00    -0.364 N 
HETATM   37  C   UNL     1     -45.271  62.518 -45.577  1.00  0.00     0.002 A 
HETATM   38  C   UNL     1     -45.392  61.167 -45.886  1.00  0.00     0.001 A 
HETATM   39  H   UNL     1     -44.823  64.736 -49.130  1.00  0.00     0.165 HD
HETATM   40  C   UNL     1     -44.933  62.882 -50.145  1.00  0.00     0.102 A 
ENDBRANCH  30  31
ENDBRANCH   3  29
TORSDOF 5
ENDMDL
