MODEL 1
REMARK VINA RESULT:      -8.3      0.000      0.000
REMARK  5 active torsions:
REMARK  status: ('A' for Active; 'I' for Inactive)
REMARK    1  A    between atoms: C_2  and  O_3 
REMARK    2  A    between atoms: O_3  and  C_4 
REMARK    3  A    between atoms: C_7  and  C_8 
REMARK       I    between atoms: N_11  and  C_12 
REMARK    4  A    between atoms: C_12  and  C_13 
REMARK    5  A    between atoms: C_16  and  C_17 
ROOT
HETATM    1  C   UNL     1     -41.613  57.092 -53.154  1.00  0.00    -0.049 C 
HETATM    2  C   UNL     1     -41.506  58.148 -54.228  1.00  0.00     0.059 C 
HETATM    3  C   UNL     1     -41.503  59.565 -53.657  1.00  0.00     0.131 C 
HETATM    4  N   UNL     1     -42.534  59.761 -52.643  1.00  0.00    -0.344 N 
HETATM    5  C   UNL     1     -43.021  61.067 -52.498  1.00  0.00     0.254 C 
HETATM    6  O   UNL     1     -42.759  61.985 -53.272  1.00  0.00    -0.267 OA
HETATM    7  C   UNL     1     -42.541  58.808 -51.535  1.00  0.00     0.154 C 
HETATM    8  C   UNL     1     -42.095  57.435 -51.943  1.00  0.00     0.001 C 
ENDROOT
BRANCH   5   9
HETATM    9  C   UNL     1     -43.850  61.396 -51.318  1.00  0.00     0.032 A 
HETATM   10  C   UNL     1     -43.300  62.222 -50.335  1.00  0.00     0.018 A 
HETATM   11  C   UNL     1     -44.043  62.524 -49.191  1.00  0.00     0.016 A 
HETATM   12  C   UNL     1     -45.338  62.011 -49.022  1.00  0.00     0.014 A 
HETATM   13  C   UNL     1     -45.892  61.216 -50.041  1.00  0.00     0.016 A 
HETATM   14  C   UNL     1     -45.156  60.919 -51.194  1.00  0.00     0.018 A 
BRANCH  12  15
HETATM   15  C   UNL     1     -46.093  62.278 -47.802  1.00  0.00     0.181 A 
HETATM   16  N   UNL     1     -47.095  61.505 -47.351  1.00  0.00    -0.152 NA
HETATM   17  N   UNL     1     -47.487  62.164 -46.254  1.00  0.00    -0.263 N 
HETATM   18  H   UNL     1     -48.250  61.794 -45.698  1.00  0.00     0.190 HD
HETATM   19  C   UNL     1     -46.758  63.300 -46.063  1.00  0.00     0.118 A 
HETATM   20  C   UNL     1     -47.001  64.246 -44.956  1.00  0.00     0.093 C 
HETATM   21  N   UNL     1     -45.862  63.392 -47.021  1.00  0.00    -0.212 NA
ENDBRANCH  12  15
ENDBRANCH   5   9
BRANCH   1  22
HETATM   22  C   UNL     1     -41.195  55.704 -53.482  1.00  0.00    -0.030 A 
HETATM   23  C   UNL     1     -40.626  55.394 -54.728  1.00  0.00     0.014 A 
HETATM   24  C   UNL     1     -40.194  54.095 -55.035  1.00  0.00     0.037 A 
HETATM   25  C   UNL     1     -40.324  53.073 -54.100  1.00  0.00     0.068 A 
HETATM   26  C   UNL     1     -40.895  53.360 -52.863  1.00  0.00     0.037 A 
HETATM   27  C   UNL     1     -41.315  54.660 -52.553  1.00  0.00     0.014 A 
BRANCH  25  28
HETATM   28  O   UNL     1     -39.948  51.770 -54.270  1.00  0.00    -0.352 OA
BRANCH  28  29
HETATM   29  C   UNL     1     -39.425  51.093 -53.130  1.00  0.00     0.171 C 
HETATM   30  C   UNL     1     -39.682  49.608 -53.308  1.00  0.00     0.034 C 
ENDBRANCH  28  29
ENDBRANCH  25  28
ENDBRANCH   1  22
TORSDOF 5
ENDMDL
MODEL 2
REMARK VINA RESULT:      -7.9      6.279      9.010
REMARK  5 active torsions:
REMARK  status: ('A' for Active; 'I' for Inactive)
REMARK    1  A    between atoms: C_2  and  O_3 
REMARK    2  A    between atoms: O_3  and  C_4 
REMARK    3  A    between atoms: C_7  and  C_8 
REMARK       I    between atoms: N_11  and  C_12 
REMARK    4  A    between atoms: C_12  and  C_13 
REMARK    5  A    between atoms: C_16  and  C_17 
ROOT
HETATM    1  C   UNL     1     -41.551  54.951 -54.391  1.00  0.00    -0.049 C 
HETATM    2  C   UNL     1     -40.983  56.347 -54.297  1.00  0.00     0.059 C 
HETATM    3  C   UNL     1     -42.011  57.422 -54.643  1.00  0.00     0.131 C 
HETATM    4  N   UNL     1     -42.770  57.102 -55.848  1.00  0.00    -0.344 N 
HETATM    5  C   UNL     1     -43.262  58.192 -56.578  1.00  0.00     0.254 C 
HETATM    6  O   UNL     1     -42.951  59.360 -56.358  1.00  0.00    -0.267 OA
HETATM    7  C   UNL     1     -43.428  55.798 -55.870  1.00  0.00     0.154 C 
HETATM    8  C   UNL     1     -42.663  54.744 -55.124  1.00  0.00     0.001 C 
ENDROOT
BRANCH   5   9
HETATM    9  C   UNL     1     -44.264  57.950 -57.638  1.00  0.00     0.032 A 
HETATM   10  C   UNL     1     -43.808  57.580 -58.906  1.00  0.00     0.018 A 
HETATM   11  C   UNL     1     -44.725  57.378 -59.940  1.00  0.00     0.016 A 
HETATM   12  C   UNL     1     -46.102  57.538 -59.716  1.00  0.00     0.014 A 
HETATM   13  C   UNL     1     -46.546  57.868 -58.425  1.00  0.00     0.016 A 
HETATM   14  C   UNL     1     -45.633  58.062 -57.383  1.00  0.00     0.018 A 
BRANCH  12  15
HETATM   15  C   UNL     1     -47.057  57.383 -60.809  1.00  0.00     0.181 A 
HETATM   16  N   UNL     1     -47.254  56.237 -61.481  1.00  0.00    -0.152 NA
HETATM   17  N   UNL     1     -48.172  56.596 -62.388  1.00  0.00    -0.263 N 
HETATM   18  H   UNL     1     -48.515  55.907 -63.047  1.00  0.00     0.190 HD
HETATM   19  C   UNL     1     -48.499  57.915 -62.274  1.00  0.00     0.118 A 
HETATM   20  C   UNL     1     -49.454  58.595 -63.173  1.00  0.00     0.093 C 
HETATM   21  N   UNL     1     -47.818  58.435 -61.278  1.00  0.00    -0.212 NA
ENDBRANCH  12  15
ENDBRANCH   5   9
BRANCH   1  22
HETATM   22  C   UNL     1     -40.847  53.850 -53.683  1.00  0.00    -0.030 A 
HETATM   23  C   UNL     1     -40.527  53.954 -52.320  1.00  0.00     0.014 A 
HETATM   24  C   UNL     1     -39.895  52.907 -51.632  1.00  0.00     0.037 A 
HETATM   25  C   UNL     1     -39.567  51.729 -52.295  1.00  0.00     0.068 A 
HETATM   26  C   UNL     1     -39.868  51.612 -53.651  1.00  0.00     0.037 A 
HETATM   27  C   UNL     1     -40.510  52.653 -54.333  1.00  0.00     0.014 A 
BRANCH  25  28
HETATM   28  O   UNL     1     -38.953  50.638 -51.748  1.00  0.00    -0.352 OA
BRANCH  28  29
HETATM   29  C   UNL     1     -39.786  49.690 -51.085  1.00  0.00     0.171 C 
HETATM   30  C   UNL     1     -40.319  50.340 -49.820  1.00  0.00     0.034 C 
ENDBRANCH  28  29
ENDBRANCH  25  28
ENDBRANCH   1  22
TORSDOF 5
ENDMDL
MODEL 3
REMARK VINA RESULT:      -7.8      6.800     11.022
REMARK  5 active torsions:
REMARK  status: ('A' for Active; 'I' for Inactive)
REMARK    1  A    between atoms: C_2  and  O_3 
REMARK    2  A    between atoms: O_3  and  C_4 
REMARK    3  A    between atoms: C_7  and  C_8 
REMARK       I    between atoms: N_11  and  C_12 
REMARK    4  A    between atoms: C_12  and  C_13 
REMARK    5  A    between atoms: C_16  and  C_17 
ROOT
HETATM    1  C   UNL     1     -44.776  57.328 -58.523  1.00  0.00    -0.049 C 
HETATM    2  C   UNL     1     -44.492  58.479 -57.587  1.00  0.00     0.059 C 
HETATM    3  C   UNL     1     -43.145  58.340 -56.880  1.00  0.00     0.131 C 
HETATM    4  N   UNL     1     -42.927  56.996 -56.353  1.00  0.00    -0.344 N 
HETATM    5  C   UNL     1     -42.092  56.897 -55.232  1.00  0.00     0.254 C 
HETATM    6  O   UNL     1     -41.691  57.865 -54.590  1.00  0.00    -0.267 OA
HETATM    7  C   UNL     1     -43.074  55.897 -57.305  1.00  0.00     0.154 C 
HETATM    8  C   UNL     1     -44.111  56.167 -58.355  1.00  0.00     0.001 C 
ENDROOT
BRANCH   5   9
HETATM    9  C   UNL     1     -41.604  55.565 -54.818  1.00  0.00     0.032 A 
HETATM   10  C   UNL     1     -42.451  54.759 -54.052  1.00  0.00     0.018 A 
HETATM   11  C   UNL     1     -42.008  53.509 -53.615  1.00  0.00     0.016 A 
HETATM   12  C   UNL     1     -40.721  53.052 -53.940  1.00  0.00     0.014 A 
HETATM   13  C   UNL     1     -39.898  53.856 -54.746  1.00  0.00     0.016 A 
HETATM   14  C   UNL     1     -40.340  55.105 -55.197  1.00  0.00     0.018 A 
BRANCH  12  15
HETATM   15  C   UNL     1     -40.236  51.771 -53.436  1.00  0.00     0.181 A 
HETATM   16  N   UNL     1     -40.126  50.660 -54.182  1.00  0.00    -0.152 NA
HETATM   17  N   UNL     1     -39.687  49.763 -53.290  1.00  0.00    -0.263 N 
HETATM   18  H   UNL     1     -39.511  48.810 -53.588  1.00  0.00     0.190 HD
HETATM   19  C   UNL     1     -39.554  50.313 -52.049  1.00  0.00     0.118 A 
HETATM   20  C   UNL     1     -39.129  49.546 -50.861  1.00  0.00     0.093 C 
HETATM   21  N   UNL     1     -39.884  51.584 -52.114  1.00  0.00    -0.212 NA
ENDBRANCH  12  15
ENDBRANCH   5   9
BRANCH   1  22
HETATM   22  C   UNL     1     -45.796  57.516 -59.588  1.00  0.00    -0.030 A 
HETATM   23  C   UNL     1     -46.479  56.419 -60.138  1.00  0.00     0.014 A 
HETATM   24  C   UNL     1     -47.470  56.587 -61.117  1.00  0.00     0.037 A 
HETATM   25  C   UNL     1     -47.798  57.861 -61.571  1.00  0.00     0.068 A 
HETATM   26  C   UNL     1     -47.124  58.960 -61.043  1.00  0.00     0.037 A 
HETATM   27  C   UNL     1     -46.144  58.791 -60.057  1.00  0.00     0.014 A 
BRANCH  25  28
HETATM   28  O   UNL     1     -48.738  58.164 -62.516  1.00  0.00    -0.352 OA
BRANCH  28  29
HETATM   29  C   UNL     1     -49.641  59.225 -62.214  1.00  0.00     0.171 C 
HETATM   30  C   UNL     1     -51.018  58.823 -62.712  1.00  0.00     0.034 C 
ENDBRANCH  28  29
ENDBRANCH  25  28
ENDBRANCH   1  22
TORSDOF 5
ENDMDL
MODEL 4
REMARK VINA RESULT:      -7.7     19.881     22.767
REMARK  5 active torsions:
REMARK  status: ('A' for Active; 'I' for Inactive)
REMARK    1  A    between atoms: C_2  and  O_3 
REMARK    2  A    between atoms: O_3  and  C_4 
REMARK    3  A    between atoms: C_7  and  C_8 
REMARK       I    between atoms: N_11  and  C_12 
REMARK    4  A    between atoms: C_12  and  C_13 
REMARK    5  A    between atoms: C_16  and  C_17 
ROOT
HETATM    1  C   UNL     1     -35.032  40.021 -53.197  1.00  0.00    -0.049 C 
HETATM    2  C   UNL     1     -36.221  40.909 -52.915  1.00  0.00     0.059 C 
HETATM    3  C   UNL     1     -37.419  40.585 -53.806  1.00  0.00     0.131 C 
HETATM    4  N   UNL     1     -37.043  40.416 -55.206  1.00  0.00    -0.344 N 
HETATM    5  C   UNL     1     -38.031  40.714 -56.154  1.00  0.00     0.254 C 
HETATM    6  O   UNL     1     -39.099  41.257 -55.881  1.00  0.00    -0.267 OA
HETATM    7  C   UNL     1     -35.980  39.451 -55.478  1.00  0.00     0.154 C 
HETATM    8  C   UNL     1     -34.960  39.380 -54.380  1.00  0.00     0.001 C 
ENDROOT
BRANCH   5   9
HETATM    9  C   UNL     1     -37.823  40.304 -57.559  1.00  0.00     0.032 A 
HETATM   10  C   UNL     1     -38.218  39.018 -57.937  1.00  0.00     0.018 A 
HETATM   11  C   UNL     1     -38.003  38.586 -59.249  1.00  0.00     0.016 A 
HETATM   12  C   UNL     1     -37.401  39.433 -60.191  1.00  0.00     0.014 A 
HETATM   13  C   UNL     1     -37.049  40.738 -59.806  1.00  0.00     0.016 A 
HETATM   14  C   UNL     1     -37.270  41.180 -58.497  1.00  0.00     0.018 A 
BRANCH  12  15
HETATM   15  C   UNL     1     -37.124  38.964 -61.545  1.00  0.00     0.181 A 
HETATM   16  N   UNL     1     -37.985  39.072 -62.571  1.00  0.00    -0.152 NA
HETATM   17  N   UNL     1     -37.313  38.479 -63.567  1.00  0.00    -0.263 N 
HETATM   18  H   UNL     1     -37.738  38.418 -64.485  1.00  0.00     0.190 HD
HETATM   19  C   UNL     1     -36.100  38.018 -63.148  1.00  0.00     0.118 A 
HETATM   20  C   UNL     1     -35.164  37.283 -64.023  1.00  0.00     0.093 C 
HETATM   21  N   UNL     1     -35.949  38.320 -61.877  1.00  0.00    -0.212 NA
ENDBRANCH  12  15
ENDBRANCH   5   9
BRANCH   1  22
HETATM   22  C   UNL     1     -33.975  39.903 -52.159  1.00  0.00    -0.030 A 
HETATM   23  C   UNL     1     -32.861  39.070 -52.352  1.00  0.00     0.014 A 
HETATM   24  C   UNL     1     -31.838  38.978 -51.396  1.00  0.00     0.037 A 
HETATM   25  C   UNL     1     -31.909  39.718 -50.220  1.00  0.00     0.068 A 
HETATM   26  C   UNL     1     -33.012  40.543 -50.007  1.00  0.00     0.037 A 
HETATM   27  C   UNL     1     -34.026  40.642 -50.968  1.00  0.00     0.014 A 
BRANCH  25  28
HETATM   28  O   UNL     1     -30.988  39.721 -49.211  1.00  0.00    -0.352 OA
BRANCH  28  29
HETATM   29  C   UNL     1     -31.440  39.319 -47.920  1.00  0.00     0.171 C 
HETATM   30  C   UNL     1     -30.513  39.933 -46.887  1.00  0.00     0.034 C 
ENDBRANCH  28  29
ENDBRANCH  25  28
ENDBRANCH   1  22
TORSDOF 5
ENDMDL
MODEL 5
REMARK VINA RESULT:      -7.7      6.809      9.987
REMARK  5 active torsions:
REMARK  status: ('A' for Active; 'I' for Inactive)
REMARK    1  A    between atoms: C_2  and  O_3 
REMARK    2  A    between atoms: O_3  and  C_4 
REMARK    3  A    between atoms: C_7  and  C_8 
REMARK       I    between atoms: N_11  and  C_12 
REMARK    4  A    between atoms: C_12  and  C_13 
REMARK    5  A    between atoms: C_16  and  C_17 
ROOT
HETATM    1  C   UNL     1     -42.108  59.122 -58.571  1.00  0.00    -0.049 C 
HETATM    2  C   UNL     1     -42.683  58.002 -59.406  1.00  0.00     0.059 C 
HETATM    3  C   UNL     1     -43.435  56.972 -58.566  1.00  0.00     0.131 C 
HETATM    4  N   UNL     1     -42.700  56.585 -57.366  1.00  0.00    -0.344 N 
HETATM    5  C   UNL     1     -42.954  55.299 -56.871  1.00  0.00     0.254 C 
HETATM    6  O   UNL     1     -43.607  54.450 -57.473  1.00  0.00    -0.267 OA
HETATM    7  C   UNL     1     -42.266  57.675 -56.495  1.00  0.00     0.154 C 
HETATM    8  C   UNL     1     -41.929  58.928 -57.249  1.00  0.00     0.001 C 
ENDROOT
BRANCH   5   9
HETATM    9  C   UNL     1     -42.468  54.943 -55.520  1.00  0.00     0.032 A 
HETATM   10  C   UNL     1     -41.120  54.610 -55.369  1.00  0.00     0.018 A 
HETATM   11  C   UNL     1     -40.636  54.234 -54.114  1.00  0.00     0.016 A 
HETATM   12  C   UNL     1     -41.490  54.193 -53.001  1.00  0.00     0.014 A 
HETATM   13  C   UNL     1     -42.834  54.572 -53.162  1.00  0.00     0.016 A 
HETATM   14  C   UNL     1     -43.322  54.959 -54.415  1.00  0.00     0.018 A 
BRANCH  12  15
HETATM   15  C   UNL     1     -41.000  53.745 -51.701  1.00  0.00     0.181 A 
HETATM   16  N   UNL     1     -40.480  52.528 -51.471  1.00  0.00    -0.152 NA
HETATM   17  N   UNL     1     -40.219  52.578 -50.158  1.00  0.00    -0.263 N 
HETATM   18  H   UNL     1     -39.809  51.771 -49.702  1.00  0.00     0.190 HD
HETATM   19  C   UNL     1     -40.585  53.775 -49.619  1.00  0.00     0.118 A 
HETATM   20  C   UNL     1     -40.454  54.094 -48.182  1.00  0.00     0.093 C 
HETATM   21  N   UNL     1     -41.072  54.537 -50.573  1.00  0.00    -0.212 NA
ENDBRANCH  12  15
ENDBRANCH   5   9
BRANCH   1  22
HETATM   22  C   UNL     1     -41.744  60.394 -59.247  1.00  0.00    -0.030 A 
HETATM   23  C   UNL     1     -41.090  61.424 -58.550  1.00  0.00     0.014 A 
HETATM   24  C   UNL     1     -40.709  62.614 -59.186  1.00  0.00     0.037 A 
HETATM   25  C   UNL     1     -40.975  62.803 -60.539  1.00  0.00     0.068 A 
HETATM   26  C   UNL     1     -41.631  61.796 -61.244  1.00  0.00     0.037 A 
HETATM   27  C   UNL     1     -42.000  60.603 -60.610  1.00  0.00     0.014 A 
BRANCH  25  28
HETATM   28  O   UNL     1     -40.660  63.909 -61.278  1.00  0.00    -0.352 OA
BRANCH  28  29
HETATM   29  C   UNL     1     -39.299  64.333 -61.260  1.00  0.00     0.171 C 
HETATM   30  C   UNL     1     -38.573  63.621 -62.387  1.00  0.00     0.034 C 
ENDBRANCH  28  29
ENDBRANCH  25  28
ENDBRANCH   1  22
TORSDOF 5
ENDMDL
MODEL 6
REMARK VINA RESULT:      -7.7      3.766     11.197
REMARK  5 active torsions:
REMARK  status: ('A' for Active; 'I' for Inactive)
REMARK    1  A    between atoms: C_2  and  O_3 
REMARK    2  A    between atoms: O_3  and  C_4 
REMARK    3  A    between atoms: C_7  and  C_8 
REMARK       I    between atoms: N_11  and  C_12 
REMARK    4  A    between atoms: C_12  and  C_13 
REMARK    5  A    between atoms: C_16  and  C_17 
ROOT
HETATM    1  C   UNL     1     -45.206  62.728 -45.835  1.00  0.00    -0.049 C 
HETATM    2  C   UNL     1     -45.743  63.697 -46.862  1.00  0.00     0.059 C 
HETATM    3  C   UNL     1     -46.350  62.990 -48.072  1.00  0.00     0.131 C 
HETATM    4  N   UNL     1     -45.505  61.909 -48.569  1.00  0.00    -0.344 N 
HETATM    5  C   UNL     1     -45.618  61.610 -49.934  1.00  0.00     0.254 C 
HETATM    6  O   UNL     1     -46.239  62.302 -50.737  1.00  0.00    -0.267 OA
HETATM    7  C   UNL     1     -45.103  60.902 -47.590  1.00  0.00     0.154 C 
HETATM    8  C   UNL     1     -44.922  61.466 -46.211  1.00  0.00     0.001 C 
ENDROOT
BRANCH   5   9
HETATM    9  C   UNL     1     -45.014  60.362 -50.446  1.00  0.00     0.032 A 
HETATM   10  C   UNL     1     -43.650  60.363 -50.747  1.00  0.00     0.018 A 
HETATM   11  C   UNL     1     -43.054  59.211 -51.266  1.00  0.00     0.016 A 
HETATM   12  C   UNL     1     -43.813  58.050 -51.484  1.00  0.00     0.014 A 
HETATM   13  C   UNL     1     -45.174  58.053 -51.136  1.00  0.00     0.016 A 
HETATM   14  C   UNL     1     -45.774  59.200 -50.606  1.00  0.00     0.018 A 
BRANCH  12  15
HETATM   15  C   UNL     1     -43.206  56.864 -52.080  1.00  0.00     0.181 A 
HETATM   16  N   UNL     1     -43.602  56.318 -53.242  1.00  0.00    -0.152 NA
HETATM   17  N   UNL     1     -42.792  55.256 -53.344  1.00  0.00    -0.263 N 
HETATM   18  H   UNL     1     -42.872  54.646 -54.150  1.00  0.00     0.190 HD
HETATM   19  C   UNL     1     -41.952  55.160 -52.274  1.00  0.00     0.118 A 
HETATM   20  C   UNL     1     -40.980  54.063 -52.100  1.00  0.00     0.093 C 
HETATM   21  N   UNL     1     -42.184  56.169 -51.464  1.00  0.00    -0.212 NA
ENDBRANCH  12  15
ENDBRANCH   5   9
BRANCH   1  22
HETATM   22  C   UNL     1     -44.995  63.213 -44.447  1.00  0.00    -0.030 A 
HETATM   23  C   UNL     1     -44.035  62.621 -43.610  1.00  0.00     0.014 A 
HETATM   24  C   UNL     1     -43.800  63.093 -42.311  1.00  0.00     0.037 A 
HETATM   25  C   UNL     1     -44.525  64.173 -41.816  1.00  0.00     0.068 A 
HETATM   26  C   UNL     1     -45.488  64.768 -42.628  1.00  0.00     0.037 A 
HETATM   27  C   UNL     1     -45.712  64.302 -43.929  1.00  0.00     0.014 A 
BRANCH  25  28
HETATM   28  O   UNL     1     -44.398  64.730 -40.574  1.00  0.00    -0.352 OA
BRANCH  28  29
HETATM   29  C   UNL     1     -44.388  63.838 -39.462  1.00  0.00     0.171 C 
HETATM   30  C   UNL     1     -45.814  63.378 -39.217  1.00  0.00     0.034 C 
ENDBRANCH  28  29
ENDBRANCH  25  28
ENDBRANCH   1  22
TORSDOF 5
ENDMDL
MODEL 7
REMARK VINA RESULT:      -7.6      6.214      8.660
REMARK  5 active torsions:
REMARK  status: ('A' for Active; 'I' for Inactive)
REMARK    1  A    between atoms: C_2  and  O_3 
REMARK    2  A    between atoms: O_3  and  C_4 
REMARK    3  A    between atoms: C_7  and  C_8 
REMARK       I    between atoms: N_11  and  C_12 
REMARK    4  A    between atoms: C_12  and  C_13 
REMARK    5  A    between atoms: C_16  and  C_17 
ROOT
HETATM    1  C   UNL     1     -41.833  54.843 -54.242  1.00  0.00    -0.049 C 
HETATM    2  C   UNL     1     -43.005  55.454 -53.511  1.00  0.00     0.059 C 
HETATM    3  C   UNL     1     -43.941  56.221 -54.442  1.00  0.00     0.131 C 
HETATM    4  N   UNL     1     -43.220  57.090 -55.367  1.00  0.00    -0.344 N 
HETATM    5  C   UNL     1     -43.906  58.227 -55.813  1.00  0.00     0.254 C 
HETATM    6  O   UNL     1     -44.978  58.607 -55.346  1.00  0.00    -0.267 OA
HETATM    7  C   UNL     1     -42.176  56.455 -56.168  1.00  0.00     0.154 C 
HETATM    8  C   UNL     1     -41.486  55.334 -55.448  1.00  0.00     0.001 C 
ENDROOT
BRANCH   5   9
HETATM    9  C   UNL     1     -43.358  58.994 -56.952  1.00  0.00     0.032 A 
HETATM   10  C   UNL     1     -43.912  58.784 -58.218  1.00  0.00     0.018 A 
HETATM   11  C   UNL     1     -43.394  59.466 -59.322  1.00  0.00     0.016 A 
HETATM   12  C   UNL     1     -42.326  60.364 -59.171  1.00  0.00     0.014 A 
HETATM   13  C   UNL     1     -41.809  60.596 -57.885  1.00  0.00     0.016 A 
HETATM   14  C   UNL     1     -42.330  59.923 -56.774  1.00  0.00     0.018 A 
BRANCH  12  15
HETATM   15  C   UNL     1     -41.747  61.034 -60.331  1.00  0.00     0.181 A 
HETATM   16  N   UNL     1     -42.006  60.693 -61.605  1.00  0.00    -0.152 NA
HETATM   17  N   UNL     1     -41.231  61.546 -62.287  1.00  0.00    -0.263 N 
HETATM   18  H   UNL     1     -41.229  61.513 -63.300  1.00  0.00     0.190 HD
HETATM   19  C   UNL     1     -40.521  62.357 -61.452  1.00  0.00     0.118 A 
HETATM   20  C   UNL     1     -39.552  63.365 -61.928  1.00  0.00     0.093 C 
HETATM   21  N   UNL     1     -40.835  62.062 -60.210  1.00  0.00    -0.212 NA
ENDBRANCH  12  15
ENDBRANCH   5   9
BRANCH   1  22
HETATM   22  C   UNL     1     -41.095  53.730 -53.591  1.00  0.00    -0.030 A 
HETATM   23  C   UNL     1     -40.734  52.580 -54.313  1.00  0.00     0.014 A 
HETATM   24  C   UNL     1     -40.005  51.539 -53.719  1.00  0.00     0.037 A 
HETATM   25  C   UNL     1     -39.619  51.625 -52.385  1.00  0.00     0.068 A 
HETATM   26  C   UNL     1     -39.976  52.754 -51.651  1.00  0.00     0.037 A 
HETATM   27  C   UNL     1     -40.694  53.797 -52.249  1.00  0.00     0.014 A 
BRANCH  25  28
HETATM   28  O   UNL     1     -38.911  50.687 -51.687  1.00  0.00    -0.352 OA
BRANCH  28  29
HETATM   29  C   UNL     1     -39.652  49.616 -51.106  1.00  0.00     0.171 C 
HETATM   30  C   UNL     1     -40.369  50.155 -49.880  1.00  0.00     0.034 C 
ENDBRANCH  28  29
ENDBRANCH  25  28
ENDBRANCH   1  22
TORSDOF 5
ENDMDL
MODEL 8
REMARK VINA RESULT:      -7.4      2.791      3.543
REMARK  5 active torsions:
REMARK  status: ('A' for Active; 'I' for Inactive)
REMARK    1  A    between atoms: C_2  and  O_3 
REMARK    2  A    between atoms: O_3  and  C_4 
REMARK    3  A    between atoms: C_7  and  C_8 
REMARK       I    between atoms: N_11  and  C_12 
REMARK    4  A    between atoms: C_12  and  C_13 
REMARK    5  A    between atoms: C_16  and  C_17 
ROOT
HETATM    1  C   UNL     1     -41.884  57.066 -52.492  1.00  0.00    -0.049 C 
HETATM    2  C   UNL     1     -40.876  58.004 -51.872  1.00  0.00     0.059 C 
HETATM    3  C   UNL     1     -41.520  59.007 -50.916  1.00  0.00     0.131 C 
HETATM    4  N   UNL     1     -42.726  59.613 -51.472  1.00  0.00    -0.344 N 
HETATM    5  C   UNL     1     -43.041  60.899 -51.013  1.00  0.00     0.254 C 
HETATM    6  O   UNL     1     -42.288  61.584 -50.324  1.00  0.00    -0.267 OA
HETATM    7  C   UNL     1     -43.753  58.690 -51.946  1.00  0.00     0.154 C 
HETATM    8  C   UNL     1     -43.185  57.421 -52.510  1.00  0.00     0.001 C 
ENDROOT
BRANCH   5   9
HETATM    9  C   UNL     1     -44.377  61.458 -51.310  1.00  0.00     0.032 A 
HETATM   10  C   UNL     1     -45.292  61.577 -50.260  1.00  0.00     0.018 A 
HETATM   11  C   UNL     1     -46.575  62.069 -50.512  1.00  0.00     0.016 A 
HETATM   12  C   UNL     1     -46.953  62.448 -51.810  1.00  0.00     0.014 A 
HETATM   13  C   UNL     1     -46.008  62.362 -52.846  1.00  0.00     0.016 A 
HETATM   14  C   UNL     1     -44.718  61.880 -52.597  1.00  0.00     0.018 A 
BRANCH  12  15
HETATM   15  C   UNL     1     -48.311  62.907 -52.086  1.00  0.00     0.181 A 
HETATM   16  N   UNL     1     -48.813  64.076 -51.653  1.00  0.00    -0.152 NA
HETATM   17  N   UNL     1     -50.071  64.029 -52.114  1.00  0.00    -0.263 N 
HETATM   18  H   UNL     1     -50.696  64.805 -51.929  1.00  0.00     0.190 HD
HETATM   19  C   UNL     1     -50.316  62.867 -52.783  1.00  0.00     0.118 A 
HETATM   20  C   UNL     1     -51.632  62.525 -53.361  1.00  0.00     0.093 C 
HETATM   21  N   UNL     1     -49.219  62.143 -52.790  1.00  0.00    -0.212 NA
ENDBRANCH  12  15
ENDBRANCH   5   9
BRANCH   1  22
HETATM   22  C   UNL     1     -41.398  55.790 -53.077  1.00  0.00    -0.030 A 
HETATM   23  C   UNL     1     -40.774  55.761 -54.335  1.00  0.00     0.014 A 
HETATM   24  C   UNL     1     -40.277  54.568 -54.881  1.00  0.00     0.037 A 
HETATM   25  C   UNL     1     -40.396  53.372 -54.180  1.00  0.00     0.068 A 
HETATM   26  C   UNL     1     -41.021  53.381 -52.934  1.00  0.00     0.037 A 
HETATM   27  C   UNL     1     -41.505  54.574 -52.385  1.00  0.00     0.014 A 
BRANCH  25  28
HETATM   28  O   UNL     1     -39.960  52.145 -54.594  1.00  0.00    -0.352 OA
BRANCH  28  29
HETATM   29  C   UNL     1     -39.746  51.159 -53.587  1.00  0.00     0.171 C 
HETATM   30  C   UNL     1     -39.848  49.793 -54.240  1.00  0.00     0.034 C 
ENDBRANCH  28  29
ENDBRANCH  25  28
ENDBRANCH   1  22
TORSDOF 5
ENDMDL
MODEL 9
REMARK VINA RESULT:      -7.3      1.934      2.466
REMARK  5 active torsions:
REMARK  status: ('A' for Active; 'I' for Inactive)
REMARK    1  A    between atoms: C_2  and  O_3 
REMARK    2  A    between atoms: O_3  and  C_4 
REMARK    3  A    between atoms: C_7  and  C_8 
REMARK       I    between atoms: N_11  and  C_12 
REMARK    4  A    between atoms: C_12  and  C_13 
REMARK    5  A    between atoms: C_16  and  C_17 
ROOT
HETATM    1  C   UNL     1     -43.367  56.884 -52.727  1.00  0.00    -0.049 C 
HETATM    2  C   UNL     1     -44.545  57.368 -53.539  1.00  0.00     0.059 C 
HETATM    3  C   UNL     1     -44.824  58.856 -53.336  1.00  0.00     0.131 C 
HETATM    4  N   UNL     1     -44.793  59.243 -51.929  1.00  0.00    -0.344 N 
HETATM    5  C   UNL     1     -45.582  60.344 -51.571  1.00  0.00     0.254 C 
HETATM    6  O   UNL     1     -46.403  60.870 -52.319  1.00  0.00    -0.267 OA
HETATM    7  C   UNL     1     -43.585  58.886 -51.188  1.00  0.00     0.154 C 
HETATM    8  C   UNL     1     -42.967  57.603 -51.660  1.00  0.00     0.001 C 
ENDROOT
BRANCH   5   9
HETATM    9  C   UNL     1     -45.388  60.963 -50.242  1.00  0.00     0.032 A 
HETATM   10  C   UNL     1     -45.797  60.248 -49.114  1.00  0.00     0.018 A 
HETATM   11  C   UNL     1     -45.660  60.817 -47.846  1.00  0.00     0.016 A 
HETATM   12  C   UNL     1     -45.111  62.100 -47.694  1.00  0.00     0.014 A 
HETATM   13  C   UNL     1     -44.666  62.789 -48.835  1.00  0.00     0.016 A 
HETATM   14  C   UNL     1     -44.791  62.218 -50.107  1.00  0.00     0.018 A 
BRANCH  12  15
HETATM   15  C   UNL     1     -45.021  62.720 -46.376  1.00  0.00     0.181 A 
HETATM   16  N   UNL     1     -45.303  64.010 -46.129  1.00  0.00    -0.152 NA
HETATM   17  N   UNL     1     -45.040  64.111 -44.820  1.00  0.00    -0.263 N 
HETATM   18  H   UNL     1     -45.171  65.002 -44.354  1.00  0.00     0.190 HD
HETATM   19  C   UNL     1     -44.600  62.928 -44.304  1.00  0.00     0.118 A 
HETATM   20  C   UNL     1     -44.194  62.757 -42.895  1.00  0.00     0.093 C 
HETATM   21  N   UNL     1     -44.588  62.028 -45.263  1.00  0.00    -0.212 NA
ENDBRANCH  12  15
ENDBRANCH   5   9
BRANCH   1  22
HETATM   22  C   UNL     1     -42.703  55.617 -53.130  1.00  0.00    -0.030 A 
HETATM   23  C   UNL     1     -41.706  55.036 -52.330  1.00  0.00     0.014 A 
HETATM   24  C   UNL     1     -41.098  53.821 -52.680  1.00  0.00     0.037 A 
HETATM   25  C   UNL     1     -41.474  53.159 -53.844  1.00  0.00     0.068 A 
HETATM   26  C   UNL     1     -42.455  53.725 -54.655  1.00  0.00     0.037 A 
HETATM   27  C   UNL     1     -43.070  54.931 -54.297  1.00  0.00     0.014 A 
BRANCH  25  28
HETATM   28  O   UNL     1     -40.964  51.976 -54.301  1.00  0.00    -0.352 OA
BRANCH  28  29
HETATM   29  C   UNL     1     -39.754  51.518 -53.702  1.00  0.00     0.171 C 
HETATM   30  C   UNL     1     -39.532  50.080 -54.137  1.00  0.00     0.034 C 
ENDBRANCH  28  29
ENDBRANCH  25  28
ENDBRANCH   1  22
TORSDOF 5
ENDMDL
MODEL 10
REMARK VINA RESULT:      -7.2     19.265     22.315
REMARK  5 active torsions:
REMARK  status: ('A' for Active; 'I' for Inactive)
REMARK    1  A    between atoms: C_2  and  O_3 
REMARK    2  A    between atoms: O_3  and  C_4 
REMARK    3  A    between atoms: C_7  and  C_8 
REMARK       I    between atoms: N_11  and  C_12 
REMARK    4  A    between atoms: C_12  and  C_13 
REMARK    5  A    between atoms: C_16  and  C_17 
ROOT
HETATM    1  C   UNL     1     -34.165  40.006 -50.682  1.00  0.00    -0.049 C 
HETATM    2  C   UNL     1     -33.936  41.470 -50.976  1.00  0.00     0.059 C 
HETATM    3  C   UNL     1     -35.005  42.057 -51.895  1.00  0.00     0.131 C 
HETATM    4  N   UNL     1     -35.295  41.196 -53.037  1.00  0.00    -0.344 N 
HETATM    5  C   UNL     1     -35.753  41.836 -54.196  1.00  0.00     0.254 C 
HETATM    6  O   UNL     1     -35.756  43.055 -54.349  1.00  0.00    -0.267 OA
HETATM    7  C   UNL     1     -35.648  39.812 -52.729  1.00  0.00     0.154 C 
HETATM    8  C   UNL     1     -34.948  39.287 -51.511  1.00  0.00     0.001 C 
ENDROOT
BRANCH   5   9
HETATM    9  C   UNL     1     -36.328  41.019 -55.286  1.00  0.00     0.032 A 
HETATM   10  C   UNL     1     -37.672  41.210 -55.616  1.00  0.00     0.018 A 
HETATM   11  C   UNL     1     -38.256  40.430 -56.617  1.00  0.00     0.016 A 
HETATM   12  C   UNL     1     -37.505  39.460 -57.299  1.00  0.00     0.014 A 
HETATM   13  C   UNL     1     -36.143  39.311 -56.984  1.00  0.00     0.016 A 
HETATM   14  C   UNL     1     -35.550  40.096 -55.989  1.00  0.00     0.018 A 
BRANCH  12  15
HETATM   15  C   UNL     1     -38.128  38.605 -58.304  1.00  0.00     0.181 A 
HETATM   16  N   UNL     1     -38.128  37.263 -58.256  1.00  0.00    -0.152 NA
HETATM   17  N   UNL     1     -38.768  36.941 -59.388  1.00  0.00    -0.263 N 
HETATM   18  H   UNL     1     -38.916  35.964 -59.614  1.00  0.00     0.190 HD
HETATM   19  C   UNL     1     -39.124  38.050 -60.096  1.00  0.00     0.118 A 
HETATM   20  C   UNL     1     -39.805  37.995 -61.405  1.00  0.00     0.093 C 
HETATM   21  N   UNL     1     -38.741  39.117 -59.430  1.00  0.00    -0.212 NA
ENDBRANCH  12  15
ENDBRANCH   5   9
BRANCH   1  22
HETATM   22  C   UNL     1     -33.501  39.410 -49.494  1.00  0.00    -0.030 A 
HETATM   23  C   UNL     1     -32.227  39.837 -49.085  1.00  0.00     0.014 A 
HETATM   24  C   UNL     1     -31.606  39.308 -47.944  1.00  0.00     0.037 A 
HETATM   25  C   UNL     1     -32.247  38.334 -47.184  1.00  0.00     0.068 A 
HETATM   26  C   UNL     1     -33.508  37.892 -47.580  1.00  0.00     0.037 A 
HETATM   27  C   UNL     1     -34.131  38.430 -48.713  1.00  0.00     0.014 A 
BRANCH  25  28
HETATM   28  O   UNL     1     -31.757  37.737 -46.057  1.00  0.00    -0.352 OA
BRANCH  28  29
HETATM   29  C   UNL     1     -32.309  38.155 -44.811  1.00  0.00     0.171 C 
HETATM   30  C   UNL     1     -31.381  39.199 -44.215  1.00  0.00     0.034 C 
ENDBRANCH  28  29
ENDBRANCH  25  28
ENDBRANCH   1  22
TORSDOF 5
ENDMDL
