MODEL 1
REMARK VINA RESULT:      -8.1      0.000      0.000
REMARK  8 active torsions:
REMARK  status: ('A' for Active; 'I' for Inactive)
REMARK    1  A    between atoms: C_2  and  N_3 
REMARK    2  A    between atoms: N_3  and  C_5 
REMARK    3  A    between atoms: N_3  and  C_30 
REMARK    4  A    between atoms: C_5  and  C_6 
REMARK    5  A    between atoms: C_6  and  N_7 
REMARK       I    between atoms: N_7  and  C_8 
REMARK    6  A    between atoms: C_8  and  C_9 
REMARK    7  A    between atoms: C_9  and  O_10 
REMARK    8  A    between atoms: N_11  and  C_12 
ROOT
HETATM    1  C   UNL     1     -41.487  55.885 -53.858  1.00  0.00     0.256 C 
HETATM    2  N   UNL     1     -41.827  54.696 -53.067  1.00  0.00    -0.254 N 
HETATM    3  C   UNL     1     -42.911  54.792 -52.196  1.00  0.00     0.330 C 
HETATM    4  O   UNL     1     -43.595  53.864 -51.773  1.00  0.00    -0.246 OA
HETATM    5  N   UNL     1     -43.191  56.052 -51.715  1.00  0.00    -0.308 N 
HETATM    6  C   UNL     1     -42.417  57.184 -51.964  1.00  0.00     0.048 A 
HETATM    7  C   UNL     1     -41.510  57.142 -53.023  1.00  0.00     0.034 A 
HETATM    8  C   UNL     1     -42.583  58.335 -51.198  1.00  0.00     0.030 A 
HETATM    9  C   UNL     1     -41.811  59.461 -51.481  1.00  0.00     0.002 A 
HETATM   10  C   UNL     1     -40.893  59.434 -52.530  1.00  0.00     0.001 A 
HETATM   11  C   UNL     1     -40.745  58.282 -53.305  1.00  0.00     0.015 A 
HETATM   12  H   UNL     1     -43.856  56.055 -50.949  1.00  0.00     0.170 HD
ENDROOT
BRANCH   1  13
HETATM   13  C   UNL     1     -42.537  55.964 -55.058  1.00  0.00     0.279 C 
HETATM   14  N   UNL     1     -42.083  55.750 -56.351  1.00  0.00    -0.355 N 
HETATM   15  H   UNL     1     -41.138  55.398 -56.472  1.00  0.00     0.162 HD
HETATM   16  O   UNL     1     -43.719  56.273 -54.872  1.00  0.00    -0.268 OA
BRANCH  14  17
HETATM   17  C   UNL     1     -43.008  55.632 -57.460  1.00  0.00     0.150 C 
BRANCH  17  18
HETATM   18  C   UNL     1     -43.306  56.971 -58.159  1.00  0.00     0.254 C 
BRANCH  18  19
HETATM   19  N   UNL     1     -42.050  57.738 -58.575  1.00  0.00    -0.070 N 
HETATM   20  H   UNL     1     -41.280  57.275 -58.071  1.00  0.00     0.279 HD
BRANCH  19  21
HETATM   21  C   UNL     1     -42.018  59.187 -58.109  1.00  0.00     0.230 C 
HETATM   22  C   UNL     1     -42.176  59.297 -56.605  1.00  0.00     0.034 C 
ENDBRANCH  19  21
BRANCH  19  23
HETATM   23  C   UNL     1     -41.691  57.644 -60.047  1.00  0.00     0.230 C 
HETATM   24  C   UNL     1     -41.950  58.950 -60.773  1.00  0.00     0.034 C 
ENDBRANCH  19  23
ENDBRANCH  18  19
ENDBRANCH  17  18
ENDBRANCH  14  17
ENDBRANCH   1  13
BRANCH   1  25
HETATM   25  O   UNL     1     -40.205  55.783 -54.479  1.00  0.00    -0.359 OA
HETATM   26  H   UNL     1     -39.939  54.850 -54.365  1.00  0.00     0.213 HD
ENDBRANCH   1  25
BRANCH   2  27
HETATM   27  C   UNL     1     -41.165  53.442 -53.261  1.00  0.00     0.043 A 
HETATM   28  C   UNL     1     -40.479  52.837 -52.197  1.00  0.00     0.037 A 
HETATM   29  C   UNL     1     -39.877  51.571 -52.319  1.00  0.00    -0.054 A 
HETATM   30  C   UNL     1     -39.182  50.971 -51.127  1.00  0.00     0.049 C 
HETATM   31  C   UNL     1     -39.962  50.887 -53.543  1.00  0.00    -0.056 A 
HETATM   32  C   UNL     1     -39.382  49.510 -53.720  1.00  0.00     0.049 C 
HETATM   33  C   UNL     1     -40.668  51.475 -54.600  1.00  0.00     0.009 A 
HETATM   34  C   UNL     1     -41.266  52.733 -54.458  1.00  0.00     0.030 A 
ENDBRANCH   2  27
TORSDOF 8
ENDMDL
MODEL 2
REMARK VINA RESULT:      -8.0      1.323      2.056
REMARK  8 active torsions:
REMARK  status: ('A' for Active; 'I' for Inactive)
REMARK    1  A    between atoms: C_2  and  N_3 
REMARK    2  A    between atoms: N_3  and  C_5 
REMARK    3  A    between atoms: N_3  and  C_30 
REMARK    4  A    between atoms: C_5  and  C_6 
REMARK    5  A    between atoms: C_6  and  N_7 
REMARK       I    between atoms: N_7  and  C_8 
REMARK    6  A    between atoms: C_8  and  C_9 
REMARK    7  A    between atoms: C_9  and  O_10 
REMARK    8  A    between atoms: N_11  and  C_12 
ROOT
HETATM    1  C   UNL     1     -41.546  55.877 -53.893  1.00  0.00     0.256 C 
HETATM    2  N   UNL     1     -41.869  54.693 -53.089  1.00  0.00    -0.254 N 
HETATM    3  C   UNL     1     -42.959  54.780 -52.225  1.00  0.00     0.330 C 
HETATM    4  O   UNL     1     -43.628  53.845 -51.792  1.00  0.00    -0.246 OA
HETATM    5  N   UNL     1     -43.262  56.040 -51.760  1.00  0.00    -0.308 N 
HETATM    6  C   UNL     1     -42.507  57.183 -52.018  1.00  0.00     0.048 A 
HETATM    7  C   UNL     1     -41.595  57.144 -53.073  1.00  0.00     0.034 A 
HETATM    8  C   UNL     1     -42.696  58.339 -51.267  1.00  0.00     0.030 A 
HETATM    9  C   UNL     1     -41.943  59.475 -51.560  1.00  0.00     0.002 A 
HETATM   10  C   UNL     1     -41.019  59.452 -52.605  1.00  0.00     0.001 A 
HETATM   11  C   UNL     1     -40.848  58.294 -53.365  1.00  0.00     0.015 A 
HETATM   12  H   UNL     1     -43.930  56.041 -50.996  1.00  0.00     0.170 HD
ENDROOT
BRANCH   1  13
HETATM   13  C   UNL     1     -42.592  55.924 -55.099  1.00  0.00     0.279 C 
HETATM   14  N   UNL     1     -42.123  55.739 -56.390  1.00  0.00    -0.355 N 
HETATM   15  H   UNL     1     -41.164  55.426 -56.508  1.00  0.00     0.162 HD
HETATM   16  O   UNL     1     -43.787  56.184 -54.917  1.00  0.00    -0.268 OA
BRANCH  14  17
HETATM   17  C   UNL     1     -43.037  55.593 -57.506  1.00  0.00     0.150 C 
BRANCH  17  18
HETATM   18  C   UNL     1     -43.461  56.933 -58.133  1.00  0.00     0.254 C 
BRANCH  18  19
HETATM   19  N   UNL     1     -44.974  57.078 -58.306  1.00  0.00    -0.070 N 
HETATM   20  H   UNL     1     -45.365  56.194 -57.950  1.00  0.00     0.279 HD
BRANCH  19  21
HETATM   21  C   UNL     1     -45.433  57.165 -59.754  1.00  0.00     0.230 C 
HETATM   22  C   UNL     1     -45.898  55.820 -60.278  1.00  0.00     0.034 C 
ENDBRANCH  19  21
BRANCH  19  23
HETATM   23  C   UNL     1     -45.618  58.174 -57.476  1.00  0.00     0.230 C 
HETATM   24  C   UNL     1     -47.128  58.171 -57.616  1.00  0.00     0.034 C 
ENDBRANCH  19  23
ENDBRANCH  18  19
ENDBRANCH  17  18
ENDBRANCH  14  17
ENDBRANCH   1  13
BRANCH   1  25
HETATM   25  O   UNL     1     -40.260  55.790 -54.508  1.00  0.00    -0.359 OA
HETATM   26  H   UNL     1     -39.892  56.694 -54.458  1.00  0.00     0.213 HD
ENDBRANCH   1  25
BRANCH   2  27
HETATM   27  C   UNL     1     -41.185  53.448 -53.266  1.00  0.00     0.043 A 
HETATM   28  C   UNL     1     -40.512  52.856 -52.186  1.00  0.00     0.037 A 
HETATM   29  C   UNL     1     -39.888  51.599 -52.291  1.00  0.00    -0.054 A 
HETATM   30  C   UNL     1     -39.208  51.013 -51.084  1.00  0.00     0.049 C 
HETATM   31  C   UNL     1     -39.938  50.910 -53.515  1.00  0.00    -0.056 A 
HETATM   32  C   UNL     1     -39.335  49.541 -53.675  1.00  0.00     0.049 C 
HETATM   33  C   UNL     1     -40.632  51.484 -54.588  1.00  0.00     0.009 A 
HETATM   34  C   UNL     1     -41.251  52.733 -54.462  1.00  0.00     0.030 A 
ENDBRANCH   2  27
TORSDOF 8
ENDMDL
MODEL 3
REMARK VINA RESULT:      -7.4      2.148      3.195
REMARK  8 active torsions:
REMARK  status: ('A' for Active; 'I' for Inactive)
REMARK    1  A    between atoms: C_2  and  N_3 
REMARK    2  A    between atoms: N_3  and  C_5 
REMARK    3  A    between atoms: N_3  and  C_30 
REMARK    4  A    between atoms: C_5  and  C_6 
REMARK    5  A    between atoms: C_6  and  N_7 
REMARK       I    between atoms: N_7  and  C_8 
REMARK    6  A    between atoms: C_8  and  C_9 
REMARK    7  A    between atoms: C_9  and  O_10 
REMARK    8  A    between atoms: N_11  and  C_12 
ROOT
HETATM    1  C   UNL     1     -42.928  58.074 -52.598  1.00  0.00     0.256 C 
HETATM    2  N   UNL     1     -43.142  56.932 -51.701  1.00  0.00    -0.254 N 
HETATM    3  C   UNL     1     -44.304  56.926 -50.933  1.00  0.00     0.330 C 
HETATM    4  O   UNL     1     -44.863  55.941 -50.456  1.00  0.00    -0.246 OA
HETATM    5  N   UNL     1     -44.831  58.160 -50.625  1.00  0.00    -0.308 N 
HETATM    6  C   UNL     1     -44.234  59.379 -50.944  1.00  0.00     0.048 A 
HETATM    7  C   UNL     1     -43.237  59.387 -51.919  1.00  0.00     0.034 A 
HETATM    8  C   UNL     1     -44.659  60.556 -50.333  1.00  0.00     0.030 A 
HETATM    9  C   UNL     1     -44.059  61.764 -50.686  1.00  0.00     0.002 A 
HETATM   10  C   UNL     1     -43.054  61.790 -51.652  1.00  0.00     0.001 A 
HETATM   11  C   UNL     1     -42.646  60.608 -52.274  1.00  0.00     0.015 A 
HETATM   12  H   UNL     1     -45.557  58.126 -49.916  1.00  0.00     0.170 HD
ENDROOT
BRANCH   1  13
HETATM   13  C   UNL     1     -43.859  57.847 -53.875  1.00  0.00     0.279 C 
HETATM   14  N   UNL     1     -43.616  58.599 -55.014  1.00  0.00    -0.355 N 
HETATM   15  H   UNL     1     -42.764  59.150 -55.048  1.00  0.00     0.162 HD
HETATM   16  O   UNL     1     -44.821  57.071 -53.853  1.00  0.00    -0.268 OA
BRANCH  14  17
HETATM   17  C   UNL     1     -44.303  58.319 -56.259  1.00  0.00     0.150 C 
BRANCH  17  18
HETATM   18  C   UNL     1     -43.419  57.619 -57.307  1.00  0.00     0.254 C 
BRANCH  18  19
HETATM   19  N   UNL     1     -43.616  56.104 -57.363  1.00  0.00    -0.070 N 
HETATM   20  H   UNL     1     -44.552  55.946 -56.962  1.00  0.00     0.279 HD
BRANCH  19  21
HETATM   21  C   UNL     1     -42.662  55.315 -56.477  1.00  0.00     0.230 C 
HETATM   22  C   UNL     1     -43.322  54.076 -55.904  1.00  0.00     0.034 C 
ENDBRANCH  19  21
BRANCH  19  23
HETATM   23  C   UNL     1     -43.663  55.508 -58.759  1.00  0.00     0.230 C 
HETATM   24  C   UNL     1     -42.596  56.103 -59.659  1.00  0.00     0.034 C 
ENDBRANCH  19  23
ENDBRANCH  18  19
ENDBRANCH  17  18
ENDBRANCH  14  17
ENDBRANCH   1  13
BRANCH   1  25
HETATM   25  O   UNL     1     -41.595  58.134 -53.104  1.00  0.00    -0.359 OA
HETATM   26  H   UNL     1     -41.479  57.310 -53.617  1.00  0.00     0.213 HD
ENDBRANCH   1  25
BRANCH   2  27
HETATM   27  C   UNL     1     -42.267  55.799 -51.697  1.00  0.00     0.043 A 
HETATM   28  C   UNL     1     -41.382  55.598 -50.627  1.00  0.00     0.037 A 
HETATM   29  C   UNL     1     -40.557  54.461 -50.542  1.00  0.00    -0.054 A 
HETATM   30  C   UNL     1     -39.652  54.298 -49.351  1.00  0.00     0.049 C 
HETATM   31  C   UNL     1     -40.617  53.493 -51.559  1.00  0.00    -0.056 A 
HETATM   32  C   UNL     1     -39.797  52.233 -51.499  1.00  0.00     0.049 C 
HETATM   33  C   UNL     1     -41.519  53.676 -52.615  1.00  0.00     0.009 A 
HETATM   34  C   UNL     1     -42.336  54.810 -52.679  1.00  0.00     0.030 A 
ENDBRANCH   2  27
TORSDOF 8
ENDMDL
MODEL 4
REMARK VINA RESULT:      -7.4      2.734      8.900
REMARK  8 active torsions:
REMARK  status: ('A' for Active; 'I' for Inactive)
REMARK    1  A    between atoms: C_2  and  N_3 
REMARK    2  A    between atoms: N_3  and  C_5 
REMARK    3  A    between atoms: N_3  and  C_30 
REMARK    4  A    between atoms: C_5  and  C_6 
REMARK    5  A    between atoms: C_6  and  N_7 
REMARK       I    between atoms: N_7  and  C_8 
REMARK    6  A    between atoms: C_8  and  C_9 
REMARK    7  A    between atoms: C_9  and  O_10 
REMARK    8  A    between atoms: N_11  and  C_12 
ROOT
HETATM    1  C   UNL     1     -42.834  57.813 -58.582  1.00  0.00     0.256 C 
HETATM    2  N   UNL     1     -43.205  59.216 -58.795  1.00  0.00    -0.254 N 
HETATM    3  C   UNL     1     -44.547  59.559 -58.635  1.00  0.00     0.330 C 
HETATM    4  O   UNL     1     -44.992  60.672 -58.368  1.00  0.00    -0.246 OA
HETATM    5  N   UNL     1     -45.459  58.554 -58.871  1.00  0.00    -0.308 N 
HETATM    6  C   UNL     1     -45.133  57.283 -59.341  1.00  0.00     0.048 A 
HETATM    7  C   UNL     1     -43.805  56.867 -59.248  1.00  0.00     0.034 A 
HETATM    8  C   UNL     1     -46.121  56.443 -59.848  1.00  0.00     0.030 A 
HETATM    9  C   UNL     1     -45.772  55.168 -60.292  1.00  0.00     0.002 A 
HETATM   10  C   UNL     1     -44.448  54.739 -60.216  1.00  0.00     0.001 A 
HETATM   11  C   UNL     1     -43.466  55.581 -59.689  1.00  0.00     0.015 A 
HETATM   12  H   UNL     1     -46.417  58.883 -58.930  1.00  0.00     0.170 HD
ENDROOT
BRANCH   1  13
HETATM   13  C   UNL     1     -42.781  57.576 -57.004  1.00  0.00     0.279 C 
HETATM   14  N   UNL     1     -42.016  56.528 -56.517  1.00  0.00    -0.355 N 
HETATM   15  H   UNL     1     -41.396  56.050 -57.164  1.00  0.00     0.162 HD
HETATM   16  O   UNL     1     -43.451  58.256 -56.219  1.00  0.00    -0.268 OA
BRANCH  14  17
HETATM   17  C   UNL     1     -41.782  56.368 -55.095  1.00  0.00     0.150 C 
BRANCH  17  18
HETATM   18  C   UNL     1     -40.608  55.428 -54.766  1.00  0.00     0.254 C 
BRANCH  18  19
HETATM   19  N   UNL     1     -40.917  54.427 -53.654  1.00  0.00    -0.070 N 
HETATM   20  H   UNL     1     -39.999  54.187 -53.253  1.00  0.00     0.279 HD
BRANCH  19  21
HETATM   21  C   UNL     1     -41.496  53.107 -54.143  1.00  0.00     0.230 C 
HETATM   22  C   UNL     1     -40.449  52.011 -54.177  1.00  0.00     0.034 C 
ENDBRANCH  19  21
BRANCH  19  23
HETATM   23  C   UNL     1     -41.738  54.974 -52.500  1.00  0.00     0.230 C 
HETATM   24  C   UNL     1     -42.975  54.134 -52.243  1.00  0.00     0.034 C 
ENDBRANCH  19  23
ENDBRANCH  18  19
ENDBRANCH  17  18
ENDBRANCH  14  17
ENDBRANCH   1  13
BRANCH   1  25
HETATM   25  O   UNL     1     -41.521  57.513 -59.057  1.00  0.00    -0.359 OA
HETATM   26  H   UNL     1     -41.213  58.333 -59.489  1.00  0.00     0.213 HD
ENDBRANCH   1  25
BRANCH   2  27
HETATM   27  C   UNL     1     -42.224  60.231 -59.032  1.00  0.00     0.043 A 
HETATM   28  C   UNL     1     -42.027  60.730 -60.329  1.00  0.00     0.037 A 
HETATM   29  C   UNL     1     -41.128  61.779 -60.598  1.00  0.00    -0.054 A 
HETATM   30  C   UNL     1     -40.988  62.281 -62.009  1.00  0.00     0.049 C 
HETATM   31  C   UNL     1     -40.402  62.348 -59.539  1.00  0.00    -0.056 A 
HETATM   32  C   UNL     1     -39.464  63.505 -59.756  1.00  0.00     0.049 C 
HETATM   33  C   UNL     1     -40.615  61.872 -58.238  1.00  0.00     0.009 A 
HETATM   34  C   UNL     1     -41.518  60.832 -57.989  1.00  0.00     0.030 A 
ENDBRANCH   2  27
TORSDOF 8
ENDMDL
MODEL 5
REMARK VINA RESULT:      -7.3      2.150      6.592
REMARK  8 active torsions:
REMARK  status: ('A' for Active; 'I' for Inactive)
REMARK    1  A    between atoms: C_2  and  N_3 
REMARK    2  A    between atoms: N_3  and  C_5 
REMARK    3  A    between atoms: N_3  and  C_30 
REMARK    4  A    between atoms: C_5  and  C_6 
REMARK    5  A    between atoms: C_6  and  N_7 
REMARK       I    between atoms: N_7  and  C_8 
REMARK    6  A    between atoms: C_8  and  C_9 
REMARK    7  A    between atoms: C_9  and  O_10 
REMARK    8  A    between atoms: N_11  and  C_12 
ROOT
HETATM    1  C   UNL     1     -43.793  57.616 -52.518  1.00  0.00     0.256 C 
HETATM    2  N   UNL     1     -42.812  57.949 -53.558  1.00  0.00    -0.254 N 
HETATM    3  C   UNL     1     -41.696  58.690 -53.176  1.00  0.00     0.330 C 
HETATM    4  O   UNL     1     -40.608  58.725 -53.746  1.00  0.00    -0.246 OA
HETATM    5  N   UNL     1     -41.863  59.518 -52.088  1.00  0.00    -0.308 N 
HETATM    6  C   UNL     1     -43.074  59.723 -51.428  1.00  0.00     0.048 A 
HETATM    7  C   UNL     1     -44.101  58.803 -51.636  1.00  0.00     0.034 A 
HETATM    8  C   UNL     1     -43.229  60.795 -50.553  1.00  0.00     0.030 A 
HETATM    9  C   UNL     1     -44.443  60.966 -49.890  1.00  0.00     0.002 A 
HETATM   10  C   UNL     1     -45.485  60.061 -50.093  1.00  0.00     0.001 A 
HETATM   11  C   UNL     1     -45.315  58.978 -50.958  1.00  0.00     0.015 A 
HETATM   12  H   UNL     1     -41.101  60.174 -51.956  1.00  0.00     0.170 HD
ENDROOT
BRANCH   1  13
HETATM   13  C   UNL     1     -43.187  56.405 -51.672  1.00  0.00     0.279 C 
HETATM   14  N   UNL     1     -43.585  55.115 -51.985  1.00  0.00    -0.355 N 
HETATM   15  H   UNL     1     -44.123  54.975 -52.835  1.00  0.00     0.162 HD
HETATM   16  O   UNL     1     -42.429  56.593 -50.714  1.00  0.00    -0.268 OA
BRANCH  14  17
HETATM   17  C   UNL     1     -42.943  53.965 -51.380  1.00  0.00     0.150 C 
BRANCH  17  18
HETATM   18  C   UNL     1     -41.604  53.589 -52.040  1.00  0.00     0.254 C 
BRANCH  18  19
HETATM   19  N   UNL     1     -40.602  52.954 -51.076  1.00  0.00    -0.070 N 
HETATM   20  H   UNL     1     -41.178  52.413 -50.416  1.00  0.00     0.279 HD
BRANCH  19  21
HETATM   21  C   UNL     1     -39.841  53.955 -50.216  1.00  0.00     0.230 C 
HETATM   22  C   UNL     1     -40.297  53.914 -48.771  1.00  0.00     0.034 C 
ENDBRANCH  19  21
BRANCH  19  23
HETATM   23  C   UNL     1     -39.645  51.955 -51.701  1.00  0.00     0.230 C 
HETATM   24  C   UNL     1     -39.865  51.827 -53.197  1.00  0.00     0.034 C 
ENDBRANCH  19  23
ENDBRANCH  18  19
ENDBRANCH  17  18
ENDBRANCH  14  17
ENDBRANCH   1  13
BRANCH   1  25
HETATM   25  O   UNL     1     -45.021  57.128 -53.057  1.00  0.00    -0.359 OA
HETATM   26  H   UNL     1     -45.276  56.383 -52.478  1.00  0.00     0.213 HD
ENDBRANCH   1  25
BRANCH   2  27
HETATM   27  C   UNL     1     -42.915  57.432 -54.889  1.00  0.00     0.043 A 
HETATM   28  C   UNL     1     -43.358  58.259 -55.932  1.00  0.00     0.037 A 
HETATM   29  C   UNL     1     -43.405  57.819 -57.268  1.00  0.00    -0.054 A 
HETATM   30  C   UNL     1     -43.865  58.770 -58.339  1.00  0.00     0.049 C 
HETATM   31  C   UNL     1     -42.997  56.509 -57.572  1.00  0.00    -0.056 A 
HETATM   32  C   UNL     1     -42.976  55.997 -58.987  1.00  0.00     0.049 C 
HETATM   33  C   UNL     1     -42.528  55.688 -56.538  1.00  0.00     0.009 A 
HETATM   34  C   UNL     1     -42.483  56.146 -55.216  1.00  0.00     0.030 A 
ENDBRANCH   2  27
TORSDOF 8
ENDMDL
MODEL 6
REMARK VINA RESULT:      -7.3      2.428      6.478
REMARK  8 active torsions:
REMARK  status: ('A' for Active; 'I' for Inactive)
REMARK    1  A    between atoms: C_2  and  N_3 
REMARK    2  A    between atoms: N_3  and  C_5 
REMARK    3  A    between atoms: N_3  and  C_30 
REMARK    4  A    between atoms: C_5  and  C_6 
REMARK    5  A    between atoms: C_6  and  N_7 
REMARK       I    between atoms: N_7  and  C_8 
REMARK    6  A    between atoms: C_8  and  C_9 
REMARK    7  A    between atoms: C_9  and  O_10 
REMARK    8  A    between atoms: N_11  and  C_12 
ROOT
HETATM    1  C   UNL     1     -43.799  58.352 -52.155  1.00  0.00     0.256 C 
HETATM    2  N   UNL     1     -42.860  58.683 -53.233  1.00  0.00    -0.254 N 
HETATM    3  C   UNL     1     -41.704  59.381 -52.888  1.00  0.00     0.330 C 
HETATM    4  O   UNL     1     -40.645  59.398 -53.510  1.00  0.00    -0.246 OA
HETATM    5  N   UNL     1     -41.793  60.183 -51.772  1.00  0.00    -0.308 N 
HETATM    6  C   UNL     1     -42.964  60.405 -51.048  1.00  0.00     0.048 A 
HETATM    7  C   UNL     1     -44.028  59.522 -51.229  1.00  0.00     0.034 A 
HETATM    8  C   UNL     1     -43.042  61.457 -50.139  1.00  0.00     0.030 A 
HETATM    9  C   UNL     1     -44.217  61.646 -49.412  1.00  0.00     0.002 A 
HETATM   10  C   UNL     1     -45.295  60.778 -49.587  1.00  0.00     0.001 A 
HETATM   11  C   UNL     1     -45.201  59.715 -50.487  1.00  0.00     0.015 A 
HETATM   12  H   UNL     1     -41.005  60.812 -51.661  1.00  0.00     0.170 HD
ENDROOT
BRANCH   1  13
HETATM   13  C   UNL     1     -43.190  57.101 -51.372  1.00  0.00     0.279 C 
HETATM   14  N   UNL     1     -43.975  55.968 -51.220  1.00  0.00    -0.355 N 
HETATM   15  H   UNL     1     -44.844  55.917 -51.744  1.00  0.00     0.162 HD
HETATM   16  O   UNL     1     -42.072  57.140 -50.846  1.00  0.00    -0.268 OA
BRANCH  14  17
HETATM   17  C   UNL     1     -43.425  54.741 -50.680  1.00  0.00     0.150 C 
BRANCH  17  18
HETATM   18  C   UNL     1     -42.667  53.896 -51.720  1.00  0.00     0.254 C 
BRANCH  18  19
HETATM   19  N   UNL     1     -41.191  54.271 -51.857  1.00  0.00    -0.070 N 
HETATM   20  H   UNL     1     -41.130  55.233 -51.496  1.00  0.00     0.279 HD
BRANCH  19  21
HETATM   21  C   UNL     1     -40.697  54.350 -53.295  1.00  0.00     0.230 C 
HETATM   22  C   UNL     1     -40.426  52.975 -53.873  1.00  0.00     0.034 C 
ENDBRANCH  19  21
BRANCH  19  23
HETATM   23  C   UNL     1     -40.234  53.453 -51.009  1.00  0.00     0.230 C 
HETATM   24  C   UNL     1     -39.786  54.214 -49.775  1.00  0.00     0.034 C 
ENDBRANCH  19  23
ENDBRANCH  18  19
ENDBRANCH  17  18
ENDBRANCH  14  17
ENDBRANCH   1  13
BRANCH   1  25
HETATM   25  O   UNL     1     -45.067  57.914 -52.645  1.00  0.00    -0.359 OA
HETATM   26  H   UNL     1     -45.205  58.411 -53.475  1.00  0.00     0.213 HD
ENDBRANCH   1  25
BRANCH   2  27
HETATM   27  C   UNL     1     -43.044  58.206 -54.570  1.00  0.00     0.043 A 
HETATM   28  C   UNL     1     -42.798  56.859 -54.877  1.00  0.00     0.037 A 
HETATM   29  C   UNL     1     -43.035  56.327 -56.158  1.00  0.00    -0.054 A 
HETATM   30  C   UNL     1     -42.774  54.867 -56.406  1.00  0.00     0.049 C 
HETATM   31  C   UNL     1     -43.534  57.168 -57.166  1.00  0.00    -0.056 A 
HETATM   32  C   UNL     1     -43.856  56.647 -58.541  1.00  0.00     0.049 C 
HETATM   33  C   UNL     1     -43.808  58.507 -56.858  1.00  0.00     0.009 A 
HETATM   34  C   UNL     1     -43.571  59.017 -55.576  1.00  0.00     0.030 A 
ENDBRANCH   2  27
TORSDOF 8
ENDMDL
MODEL 7
REMARK VINA RESULT:      -7.2      1.526      2.515
REMARK  8 active torsions:
REMARK  status: ('A' for Active; 'I' for Inactive)
REMARK    1  A    between atoms: C_2  and  N_3 
REMARK    2  A    between atoms: N_3  and  C_5 
REMARK    3  A    between atoms: N_3  and  C_30 
REMARK    4  A    between atoms: C_5  and  C_6 
REMARK    5  A    between atoms: C_6  and  N_7 
REMARK       I    between atoms: N_7  and  C_8 
REMARK    6  A    between atoms: C_8  and  C_9 
REMARK    7  A    between atoms: C_9  and  O_10 
REMARK    8  A    between atoms: N_11  and  C_12 
ROOT
HETATM    1  C   UNL     1     -42.273  57.189 -52.895  1.00  0.00     0.256 C 
HETATM    2  N   UNL     1     -42.551  56.106 -51.946  1.00  0.00    -0.254 N 
HETATM    3  C   UNL     1     -43.724  56.191 -51.198  1.00  0.00     0.330 C 
HETATM    4  O   UNL     1     -44.333  55.257 -50.682  1.00  0.00    -0.246 OA
HETATM    5  N   UNL     1     -44.199  57.461 -50.962  1.00  0.00    -0.308 N 
HETATM    6  C   UNL     1     -43.543  58.634 -51.333  1.00  0.00     0.048 A 
HETATM    7  C   UNL     1     -42.532  58.548 -52.289  1.00  0.00     0.034 A 
HETATM    8  C   UNL     1     -43.924  59.858 -50.789  1.00  0.00     0.030 A 
HETATM    9  C   UNL     1     -43.265  61.019 -51.193  1.00  0.00     0.002 A 
HETATM   10  C   UNL     1     -42.246  60.951 -52.141  1.00  0.00     0.001 A 
HETATM   11  C   UNL     1     -41.883  59.722 -52.695  1.00  0.00     0.015 A 
HETATM   12  H   UNL     1     -44.936  57.496 -50.265  1.00  0.00     0.170 HD
ENDROOT
BRANCH   1  13
HETATM   13  C   UNL     1     -43.194  56.938 -54.175  1.00  0.00     0.279 C 
HETATM   14  N   UNL     1     -42.584  56.607 -55.375  1.00  0.00    -0.355 N 
HETATM   15  H   UNL     1     -41.594  56.383 -55.360  1.00  0.00     0.162 HD
HETATM   16  O   UNL     1     -44.420  57.094 -54.139  1.00  0.00    -0.268 OA
BRANCH  14  17
HETATM   17  C   UNL     1     -43.365  56.193 -56.524  1.00  0.00     0.150 C 
BRANCH  17  18
HETATM   18  C   UNL     1     -43.244  57.148 -57.726  1.00  0.00     0.254 C 
BRANCH  18  19
HETATM   19  N   UNL     1     -43.218  56.432 -59.077  1.00  0.00    -0.070 N 
HETATM   20  H   UNL     1     -42.649  55.588 -58.917  1.00  0.00     0.279 HD
BRANCH  19  21
HETATM   21  C   UNL     1     -42.497  57.198 -60.178  1.00  0.00     0.230 C 
HETATM   22  C   UNL     1     -42.031  58.560 -59.702  1.00  0.00     0.034 C 
ENDBRANCH  19  21
BRANCH  19  23
HETATM   23  C   UNL     1     -44.563  55.931 -59.571  1.00  0.00     0.230 C 
HETATM   24  C   UNL     1     -44.549  54.434 -59.818  1.00  0.00     0.034 C 
ENDBRANCH  19  23
ENDBRANCH  18  19
ENDBRANCH  17  18
ENDBRANCH  14  17
ENDBRANCH   1  13
BRANCH   1  25
HETATM   25  O   UNL     1     -40.931  57.164 -53.381  1.00  0.00    -0.359 OA
HETATM   26  H   UNL     1     -40.976  56.687 -54.232  1.00  0.00     0.213 HD
ENDBRANCH   1  25
BRANCH   2  27
HETATM   27  C   UNL     1     -41.728  54.937 -51.869  1.00  0.00     0.043 A 
HETATM   28  C   UNL     1     -41.644  54.063 -52.964  1.00  0.00     0.037 A 
HETATM   29  C   UNL     1     -40.792  52.943 -52.963  1.00  0.00    -0.054 A 
HETATM   30  C   UNL     1     -40.733  52.064 -54.183  1.00  0.00     0.049 C 
HETATM   31  C   UNL     1     -39.999  52.686 -51.832  1.00  0.00    -0.056 A 
HETATM   32  C   UNL     1     -39.032  51.534 -51.791  1.00  0.00     0.049 C 
HETATM   33  C   UNL     1     -40.059  53.571 -50.748  1.00  0.00     0.009 A 
HETATM   34  C   UNL     1     -40.907  54.684 -50.769  1.00  0.00     0.030 A 
ENDBRANCH   2  27
TORSDOF 8
ENDMDL
MODEL 8
REMARK VINA RESULT:      -7.2      2.650      5.692
REMARK  8 active torsions:
REMARK  status: ('A' for Active; 'I' for Inactive)
REMARK    1  A    between atoms: C_2  and  N_3 
REMARK    2  A    between atoms: N_3  and  C_5 
REMARK    3  A    between atoms: N_3  and  C_30 
REMARK    4  A    between atoms: C_5  and  C_6 
REMARK    5  A    between atoms: C_6  and  N_7 
REMARK       I    between atoms: N_7  and  C_8 
REMARK    6  A    between atoms: C_8  and  C_9 
REMARK    7  A    between atoms: C_9  and  O_10 
REMARK    8  A    between atoms: N_11  and  C_12 
ROOT
HETATM    1  C   UNL     1     -43.525  56.884 -54.043  1.00  0.00     0.256 C 
HETATM    2  N   UNL     1     -42.063  56.788 -53.957  1.00  0.00    -0.254 N 
HETATM    3  C   UNL     1     -41.350  57.973 -53.791  1.00  0.00     0.330 C 
HETATM    4  O   UNL     1     -40.227  58.091 -53.305  1.00  0.00    -0.246 OA
HETATM    5  N   UNL     1     -41.944  59.111 -54.289  1.00  0.00    -0.308 N 
HETATM    6  C   UNL     1     -43.135  59.130 -55.014  1.00  0.00     0.048 A 
HETATM    7  C   UNL     1     -43.962  58.010 -54.950  1.00  0.00     0.034 A 
HETATM    8  C   UNL     1     -43.500  60.259 -55.742  1.00  0.00     0.030 A 
HETATM    9  C   UNL     1     -44.706  60.261 -56.441  1.00  0.00     0.002 A 
HETATM   10  C   UNL     1     -45.542  59.145 -56.397  1.00  0.00     0.001 A 
HETATM   11  C   UNL     1     -45.177  58.024 -55.648  1.00  0.00     0.015 A 
HETATM   12  H   UNL     1     -41.322  59.912 -54.321  1.00  0.00     0.170 HD
ENDROOT
BRANCH   1  13
HETATM   13  C   UNL     1     -44.070  57.089 -52.557  1.00  0.00     0.279 C 
HETATM   14  N   UNL     1     -44.708  58.279 -52.244  1.00  0.00    -0.355 N 
HETATM   15  H   UNL     1     -44.944  58.908 -53.006  1.00  0.00     0.162 HD
HETATM   16  O   UNL     1     -43.881  56.249 -51.670  1.00  0.00    -0.268 OA
BRANCH  14  17
HETATM   17  C   UNL     1     -45.380  58.458 -50.972  1.00  0.00     0.150 C 
BRANCH  17  18
HETATM   18  C   UNL     1     -45.594  59.934 -50.591  1.00  0.00     0.254 C 
BRANCH  18  19
HETATM   19  N   UNL     1     -44.622  60.438 -49.523  1.00  0.00    -0.070 N 
HETATM   20  H   UNL     1     -44.191  59.587 -49.136  1.00  0.00     0.279 HD
BRANCH  19  21
HETATM   21  C   UNL     1     -45.292  61.121 -48.339  1.00  0.00     0.230 C 
HETATM   22  C   UNL     1     -44.746  62.517 -48.111  1.00  0.00     0.034 C 
ENDBRANCH  19  21
BRANCH  19  23
HETATM   23  C   UNL     1     -43.470  61.281 -50.042  1.00  0.00     0.230 C 
HETATM   24  C   UNL     1     -42.267  60.429 -50.398  1.00  0.00     0.034 C 
ENDBRANCH  19  23
ENDBRANCH  18  19
ENDBRANCH  17  18
ENDBRANCH  14  17
ENDBRANCH   1  13
BRANCH   1  25
HETATM   25  O   UNL     1     -44.129  55.676 -54.507  1.00  0.00    -0.359 OA
HETATM   26  H   UNL     1     -44.006  55.034 -53.781  1.00  0.00     0.213 HD
ENDBRANCH   1  25
BRANCH   2  27
HETATM   27  C   UNL     1     -41.389  55.526 -53.913  1.00  0.00     0.043 A 
HETATM   28  C   UNL     1     -41.230  54.855 -52.691  1.00  0.00     0.037 A 
HETATM   29  C   UNL     1     -40.640  53.580 -52.609  1.00  0.00    -0.054 A 
HETATM   30  C   UNL     1     -40.528  52.909 -51.267  1.00  0.00     0.049 C 
HETATM   31  C   UNL     1     -40.194  52.954 -53.785  1.00  0.00    -0.056 A 
HETATM   32  C   UNL     1     -39.602  51.571 -53.768  1.00  0.00     0.049 C 
HETATM   33  C   UNL     1     -40.376  53.608 -55.011  1.00  0.00     0.009 A 
HETATM   34  C   UNL     1     -40.970  54.874 -55.074  1.00  0.00     0.030 A 
ENDBRANCH   2  27
TORSDOF 8
ENDMDL
MODEL 9
REMARK VINA RESULT:      -7.2      1.804      2.547
REMARK  8 active torsions:
REMARK  status: ('A' for Active; 'I' for Inactive)
REMARK    1  A    between atoms: C_2  and  N_3 
REMARK    2  A    between atoms: N_3  and  C_5 
REMARK    3  A    between atoms: N_3  and  C_30 
REMARK    4  A    between atoms: C_5  and  C_6 
REMARK    5  A    between atoms: C_6  and  N_7 
REMARK       I    between atoms: N_7  and  C_8 
REMARK    6  A    between atoms: C_8  and  C_9 
REMARK    7  A    between atoms: C_9  and  O_10 
REMARK    8  A    between atoms: N_11  and  C_12 
ROOT
HETATM    1  C   UNL     1     -42.012  57.610 -53.177  1.00  0.00     0.256 C 
HETATM    2  N   UNL     1     -42.534  56.252 -53.367  1.00  0.00    -0.254 N 
HETATM    3  C   UNL     1     -43.901  56.115 -53.601  1.00  0.00     0.330 C 
HETATM    4  O   UNL     1     -44.458  55.178 -54.167  1.00  0.00    -0.246 OA
HETATM    5  N   UNL     1     -44.706  57.102 -53.077  1.00  0.00    -0.308 N 
HETATM    6  C   UNL     1     -44.255  58.145 -52.269  1.00  0.00     0.048 A 
HETATM    7  C   UNL     1     -42.889  58.426 -52.257  1.00  0.00     0.034 A 
HETATM    8  C   UNL     1     -45.157  58.908 -51.532  1.00  0.00     0.030 A 
HETATM    9  C   UNL     1     -44.683  59.959 -50.748  1.00  0.00     0.002 A 
HETATM   10  C   UNL     1     -43.319  60.248 -50.717  1.00  0.00     0.001 A 
HETATM   11  C   UNL     1     -42.424  59.490 -51.473  1.00  0.00     0.015 A 
HETATM   12  H   UNL     1     -45.694  56.875 -53.101  1.00  0.00     0.170 HD
ENDROOT
BRANCH   1  13
HETATM   13  C   UNL     1     -41.906  58.278 -54.623  1.00  0.00     0.279 C 
HETATM   14  N   UNL     1     -42.371  57.565 -55.718  1.00  0.00    -0.355 N 
HETATM   15  H   UNL     1     -42.902  56.717 -55.543  1.00  0.00     0.162 HD
HETATM   16  O   UNL     1     -41.366  59.376 -54.797  1.00  0.00    -0.268 OA
BRANCH  14  17
HETATM   17  C   UNL     1     -42.468  58.180 -57.026  1.00  0.00     0.150 C 
BRANCH  17  18
HETATM   18  C   UNL     1     -43.805  57.903 -57.739  1.00  0.00     0.254 C 
BRANCH  18  19
HETATM   19  N   UNL     1     -43.641  57.359 -59.159  1.00  0.00    -0.070 N 
HETATM   20  H   UNL     1     -42.774  56.804 -59.130  1.00  0.00     0.279 HD
BRANCH  19  21
HETATM   21  C   UNL     1     -43.397  58.428 -60.214  1.00  0.00     0.230 C 
HETATM   22  C   UNL     1     -41.941  58.481 -60.635  1.00  0.00     0.034 C 
ENDBRANCH  19  21
BRANCH  19  23
HETATM   23  C   UNL     1     -44.726  56.399 -59.614  1.00  0.00     0.230 C 
HETATM   24  C   UNL     1     -44.190  54.992 -59.801  1.00  0.00     0.034 C 
ENDBRANCH  19  23
ENDBRANCH  18  19
ENDBRANCH  17  18
ENDBRANCH  14  17
ENDBRANCH   1  13
BRANCH   1  25
HETATM   25  O   UNL     1     -40.684  57.620 -52.654  1.00  0.00    -0.359 OA
HETATM   26  H   UNL     1     -40.380  58.544 -52.746  1.00  0.00     0.213 HD
ENDBRANCH   1  25
BRANCH   2  27
HETATM   27  C   UNL     1     -41.671  55.112 -53.441  1.00  0.00     0.043 A 
HETATM   28  C   UNL     1     -41.355  54.392 -52.279  1.00  0.00     0.037 A 
HETATM   29  C   UNL     1     -40.572  53.224 -52.312  1.00  0.00    -0.054 A 
HETATM   30  C   UNL     1     -40.297  52.488 -51.029  1.00  0.00     0.049 C 
HETATM   31  C   UNL     1     -40.088  52.759 -53.546  1.00  0.00    -0.056 A 
HETATM   32  C   UNL     1     -39.288  51.488 -53.652  1.00  0.00     0.049 C 
HETATM   33  C   UNL     1     -40.423  53.458 -54.712  1.00  0.00     0.009 A 
HETATM   34  C   UNL     1     -41.208  54.616 -54.660  1.00  0.00     0.030 A 
ENDBRANCH   2  27
TORSDOF 8
ENDMDL
MODEL 10
REMARK VINA RESULT:      -7.1      2.236      6.863
REMARK  8 active torsions:
REMARK  status: ('A' for Active; 'I' for Inactive)
REMARK    1  A    between atoms: C_2  and  N_3 
REMARK    2  A    between atoms: N_3  and  C_5 
REMARK    3  A    between atoms: N_3  and  C_30 
REMARK    4  A    between atoms: C_5  and  C_6 
REMARK    5  A    between atoms: C_6  and  N_7 
REMARK       I    between atoms: N_7  and  C_8 
REMARK    6  A    between atoms: C_8  and  C_9 
REMARK    7  A    between atoms: C_9  and  O_10 
REMARK    8  A    between atoms: N_11  and  C_12 
ROOT
HETATM    1  C   UNL     1     -43.394  57.312 -55.157  1.00  0.00     0.256 C 
HETATM    2  N   UNL     1     -43.205  57.795 -56.530  1.00  0.00    -0.254 N 
HETATM    3  C   UNL     1     -42.410  58.926 -56.710  1.00  0.00     0.330 C 
HETATM    4  O   UNL     1     -41.808  59.243 -57.733  1.00  0.00    -0.246 OA
HETATM    5  N   UNL     1     -42.359  59.804 -55.651  1.00  0.00    -0.308 N 
HETATM    6  C   UNL     1     -43.110  59.680 -54.482  1.00  0.00     0.048 A 
HETATM    7  C   UNL     1     -43.687  58.442 -54.199  1.00  0.00     0.034 A 
HETATM    8  C   UNL     1     -43.239  60.756 -53.608  1.00  0.00     0.030 A 
HETATM    9  C   UNL     1     -43.978  60.600 -52.436  1.00  0.00     0.002 A 
HETATM   10  C   UNL     1     -44.569  59.372 -52.141  1.00  0.00     0.001 A 
HETATM   11  C   UNL     1     -44.420  58.293 -53.014  1.00  0.00     0.015 A 
HETATM   12  H   UNL     1     -41.932  60.694 -55.882  1.00  0.00     0.170 HD
ENDROOT
BRANCH   1  13
HETATM   13  C   UNL     1     -42.063  56.532 -54.747  1.00  0.00     0.279 C 
HETATM   14  N   UNL     1     -41.976  55.177 -55.030  1.00  0.00    -0.355 N 
HETATM   15  H   UNL     1     -42.691  54.768 -55.624  1.00  0.00     0.162 HD
HETATM   16  O   UNL     1     -41.145  57.085 -54.132  1.00  0.00    -0.268 OA
BRANCH  14  17
HETATM   17  C   UNL     1     -40.735  54.452 -54.848  1.00  0.00     0.150 C 
BRANCH  17  18
HETATM   18  C   UNL     1     -40.833  53.312 -53.818  1.00  0.00     0.254 C 
BRANCH  18  19
HETATM   19  N   UNL     1     -40.908  53.798 -52.370  1.00  0.00    -0.070 N 
HETATM   20  H   UNL     1     -40.567  54.770 -52.401  1.00  0.00     0.279 HD
BRANCH  19  21
HETATM   21  C   UNL     1     -39.968  53.074 -51.417  1.00  0.00     0.230 C 
HETATM   22  C   UNL     1     -39.477  51.763 -52.000  1.00  0.00     0.034 C 
ENDBRANCH  19  21
BRANCH  19  23
HETATM   23  C   UNL     1     -42.307  53.874 -51.784  1.00  0.00     0.230 C 
HETATM   24  C   UNL     1     -42.651  55.280 -51.331  1.00  0.00     0.034 C 
ENDBRANCH  19  23
ENDBRANCH  18  19
ENDBRANCH  17  18
ENDBRANCH  14  17
ENDBRANCH   1  13
BRANCH   1  25
HETATM   25  O   UNL     1     -44.447  56.353 -55.052  1.00  0.00    -0.359 OA
HETATM   26  H   UNL     1     -44.171  55.749 -54.336  1.00  0.00     0.213 HD
ENDBRANCH   1  25
BRANCH   2  27
HETATM   27  C   UNL     1     -43.702  57.074 -57.662  1.00  0.00     0.043 A 
HETATM   28  C   UNL     1     -44.881  57.489 -58.298  1.00  0.00     0.037 A 
HETATM   29  C   UNL     1     -45.368  56.858 -59.458  1.00  0.00    -0.054 A 
HETATM   30  C   UNL     1     -46.625  57.375 -60.102  1.00  0.00     0.049 C 
HETATM   31  C   UNL     1     -44.655  55.776 -59.999  1.00  0.00    -0.056 A 
HETATM   32  C   UNL     1     -45.097  55.092 -61.265  1.00  0.00     0.049 C 
HETATM   33  C   UNL     1     -43.462  55.374 -59.383  1.00  0.00     0.009 A 
HETATM   34  C   UNL     1     -42.990  56.019 -58.234  1.00  0.00     0.030 A 
ENDBRANCH   2  27
TORSDOF 8
ENDMDL
