MODEL 1
REMARK VINA RESULT:      -7.7      0.000      0.000
REMARK  5 active torsions:
REMARK  status: ('A' for Active; 'I' for Inactive)
REMARK    1  A    between atoms: C_2  and  C_3 
REMARK    2  A    between atoms: C_7  and  N_8 
REMARK       I    between atoms: N_8  and  C_9 
REMARK    3  A    between atoms: C_9  and  C_10 
REMARK    4  A    between atoms: C_10  and  N_11 
REMARK    5  A    between atoms: N_11  and  C_14 
ROOT
HETATM    1  C   UNL     1     -40.151  53.685 -50.767  1.00  0.00     0.043 C 
HETATM    2  N   UNL     1     -39.742  52.399 -50.829  1.00  0.00    -0.252 NA
HETATM    3  C   UNL     1     -39.923  51.690 -51.946  1.00  0.00     0.069 A 
HETATM    4  C   UNL     1     -40.593  52.196 -53.075  1.00  0.00     0.020 A 
HETATM    5  C   UNL     1     -41.153  53.503 -52.951  1.00  0.00     0.055 C 
HETATM    6  C   UNL     1     -40.846  54.298 -51.815  1.00  0.00    -0.010 C 
HETATM    7  C   UNL     1     -41.303  55.731 -51.707  1.00  0.00     0.052 C 
HETATM    8  C   UNL     1     -39.389  50.407 -51.971  1.00  0.00     0.032 A 
HETATM    9  C   UNL     1     -39.448  49.604 -53.107  1.00  0.00     0.002 A 
HETATM   10  C   UNL     1     -40.034  50.103 -54.257  1.00  0.00     0.001 A 
HETATM   11  C   UNL     1     -40.586  51.385 -54.244  1.00  0.00     0.016 A 
ENDROOT
BRANCH   5  12
HETATM   12  N   UNL     1     -42.032  54.083 -53.924  1.00  0.00    -0.324 N 
HETATM   13  C   UNL     1     -41.644  54.729 -55.088  1.00  0.00     0.248 C 
HETATM   14  O   UNL     1     -40.502  54.989 -55.455  1.00  0.00    -0.271 OA
HETATM   15  H   UNL     1     -42.972  53.708 -53.920  1.00  0.00     0.169 HD
BRANCH  13  16
HETATM   16  C   UNL     1     -42.818  55.123 -55.990  1.00  0.00     0.335 C 
BRANCH  16  17
HETATM   17  N   UNL     1     -42.377  55.759 -57.293  1.00  0.00    -0.063 N 
HETATM   18  H   UNL     1     -41.828  56.605 -57.101  1.00  0.00     0.278 HD
HETATM   19  H   UNL     1     -41.734  55.079 -57.726  1.00  0.00     0.278 HD
BRANCH  17  20
HETATM   20  C   UNL     1     -43.427  56.056 -58.335  1.00  0.00     0.178 C 
HETATM   21  C   UNL     1     -44.052  57.423 -58.091  1.00  0.00     0.039 C 
HETATM   22  C   UNL     1     -42.735  56.006 -59.695  1.00  0.00     0.039 C 
ENDBRANCH  17  20
ENDBRANCH  16  17
ENDBRANCH  13  16
ENDBRANCH   5  12
BRANCH   1  23
HETATM   23  C   UNL     1     -39.821  54.365 -49.460  1.00  0.00     0.055 C 
HETATM   24  C   UNL     1     -40.522  53.716 -48.275  1.00  0.00     0.011 C 
ENDBRANCH   1  23
TORSDOF 5
ENDMDL
MODEL 2
REMARK VINA RESULT:      -7.6      1.399      1.984
REMARK  5 active torsions:
REMARK  status: ('A' for Active; 'I' for Inactive)
REMARK    1  A    between atoms: C_2  and  C_3 
REMARK    2  A    between atoms: C_7  and  N_8 
REMARK       I    between atoms: N_8  and  C_9 
REMARK    3  A    between atoms: C_9  and  C_10 
REMARK    4  A    between atoms: C_10  and  N_11 
REMARK    5  A    between atoms: N_11  and  C_14 
ROOT
HETATM    1  C   UNL     1     -40.088  53.708 -50.744  1.00  0.00     0.043 C 
HETATM    2  N   UNL     1     -39.681  52.426 -50.865  1.00  0.00    -0.252 NA
HETATM    3  C   UNL     1     -39.902  51.756 -51.999  1.00  0.00     0.069 A 
HETATM    4  C   UNL     1     -40.613  52.300 -53.085  1.00  0.00     0.020 A 
HETATM    5  C   UNL     1     -41.169  53.601 -52.895  1.00  0.00     0.055 C 
HETATM    6  C   UNL     1     -40.822  54.357 -51.744  1.00  0.00    -0.010 C 
HETATM    7  C   UNL     1     -41.276  55.784 -51.570  1.00  0.00     0.052 C 
HETATM    8  C   UNL     1     -39.368  50.476 -52.088  1.00  0.00     0.032 A 
HETATM    9  C   UNL     1     -39.468  49.713 -53.249  1.00  0.00     0.002 A 
HETATM   10  C   UNL     1     -40.095  50.250 -54.358  1.00  0.00     0.001 A 
HETATM   11  C   UNL     1     -40.647  51.530 -54.281  1.00  0.00     0.016 A 
ENDROOT
BRANCH   5  12
HETATM   12  N   UNL     1     -42.083  54.212 -53.815  1.00  0.00    -0.324 N 
HETATM   13  C   UNL     1     -41.738  54.904 -54.965  1.00  0.00     0.248 C 
HETATM   14  O   UNL     1     -40.610  55.184 -55.362  1.00  0.00    -0.271 OA
HETATM   15  H   UNL     1     -43.021  53.832 -53.793  1.00  0.00     0.169 HD
BRANCH  13  16
HETATM   16  C   UNL     1     -42.943  55.326 -55.812  1.00  0.00     0.335 C 
BRANCH  16  17
HETATM   17  N   UNL     1     -44.114  55.805 -54.979  1.00  0.00    -0.063 N 
HETATM   18  H   UNL     1     -44.997  55.535 -55.427  1.00  0.00     0.278 HD
HETATM   19  H   UNL     1     -44.057  55.278 -54.095  1.00  0.00     0.278 HD
BRANCH  17  20
HETATM   20  C   UNL     1     -44.164  57.262 -54.587  1.00  0.00     0.178 C 
HETATM   21  C   UNL     1     -45.297  57.973 -55.314  1.00  0.00     0.039 C 
HETATM   22  C   UNL     1     -44.368  57.313 -53.075  1.00  0.00     0.039 C 
ENDBRANCH  17  20
ENDBRANCH  16  17
ENDBRANCH  13  16
ENDBRANCH   5  12
BRANCH   1  23
HETATM   23  C   UNL     1     -39.712  54.343 -49.426  1.00  0.00     0.055 C 
HETATM   24  C   UNL     1     -40.569  53.840 -48.274  1.00  0.00     0.011 C 
ENDBRANCH   1  23
TORSDOF 5
ENDMDL
MODEL 3
REMARK VINA RESULT:      -7.5      2.477      5.097
REMARK  5 active torsions:
REMARK  status: ('A' for Active; 'I' for Inactive)
REMARK    1  A    between atoms: C_2  and  C_3 
REMARK    2  A    between atoms: C_7  and  N_8 
REMARK       I    between atoms: N_8  and  C_9 
REMARK    3  A    between atoms: C_9  and  C_10 
REMARK    4  A    between atoms: C_10  and  N_11 
REMARK    5  A    between atoms: N_11  and  C_14 
ROOT
HETATM    1  C   UNL     1     -40.294  52.517 -53.376  1.00  0.00     0.043 C 
HETATM    2  N   UNL     1     -40.168  52.260 -52.056  1.00  0.00    -0.252 NA
HETATM    3  C   UNL     1     -40.428  53.214 -51.158  1.00  0.00     0.069 A 
HETATM    4  C   UNL     1     -40.773  54.531 -51.517  1.00  0.00     0.020 A 
HETATM    5  C   UNL     1     -40.760  54.836 -52.912  1.00  0.00     0.055 C 
HETATM    6  C   UNL     1     -40.612  53.791 -53.862  1.00  0.00    -0.010 C 
HETATM    7  C   UNL     1     -40.729  54.048 -55.343  1.00  0.00     0.052 C 
HETATM    8  C   UNL     1     -40.373  52.851 -49.819  1.00  0.00     0.032 A 
HETATM    9  C   UNL     1     -40.699  53.739 -48.797  1.00  0.00     0.002 A 
HETATM   10  C   UNL     1     -41.115  55.018 -49.122  1.00  0.00     0.001 A 
HETATM   11  C   UNL     1     -41.164  55.403 -50.463  1.00  0.00     0.016 A 
ENDROOT
BRANCH   5  12
HETATM   12  N   UNL     1     -40.888  56.166 -53.432  1.00  0.00    -0.324 N 
HETATM   13  C   UNL     1     -42.061  56.900 -53.506  1.00  0.00     0.248 C 
HETATM   14  O   UNL     1     -43.196  56.530 -53.221  1.00  0.00    -0.271 OA
HETATM   15  H   UNL     1     -40.030  56.703 -53.433  1.00  0.00     0.169 HD
BRANCH  13  16
HETATM   16  C   UNL     1     -41.853  58.340 -53.989  1.00  0.00     0.335 C 
BRANCH  16  17
HETATM   17  N   UNL     1     -40.935  59.140 -53.088  1.00  0.00    -0.063 N 
HETATM   18  H   UNL     1     -39.955  58.946 -53.327  1.00  0.00     0.278 HD
HETATM   19  H   UNL     1     -41.107  60.128 -53.328  1.00  0.00     0.278 HD
BRANCH  17  20
HETATM   20  C   UNL     1     -41.129  59.037 -51.595  1.00  0.00     0.178 C 
HETATM   21  C   UNL     1     -39.793  59.146 -50.873  1.00  0.00     0.039 C 
HETATM   22  C   UNL     1     -42.065  60.172 -51.187  1.00  0.00     0.039 C 
ENDBRANCH  17  20
ENDBRANCH  16  17
ENDBRANCH  13  16
ENDBRANCH   5  12
BRANCH   1  23
HETATM   23  C   UNL     1     -40.023  51.321 -54.257  1.00  0.00     0.055 C 
HETATM   24  C   UNL     1     -39.747  50.059 -53.452  1.00  0.00     0.011 C 
ENDBRANCH   1  23
TORSDOF 5
ENDMDL
MODEL 4
REMARK VINA RESULT:      -7.2      1.998      4.104
REMARK  5 active torsions:
REMARK  status: ('A' for Active; 'I' for Inactive)
REMARK    1  A    between atoms: C_2  and  C_3 
REMARK    2  A    between atoms: C_7  and  N_8 
REMARK       I    between atoms: N_8  and  C_9 
REMARK    3  A    between atoms: C_9  and  C_10 
REMARK    4  A    between atoms: C_10  and  N_11 
REMARK    5  A    between atoms: N_11  and  C_14 
ROOT
HETATM    1  C   UNL     1     -40.695  52.868 -53.408  1.00  0.00     0.043 C 
HETATM    2  N   UNL     1     -39.975  52.936 -52.267  1.00  0.00    -0.252 NA
HETATM    3  C   UNL     1     -40.423  53.651 -51.232  1.00  0.00     0.069 A 
HETATM    4  C   UNL     1     -41.603  54.416 -51.282  1.00  0.00     0.020 A 
HETATM    5  C   UNL     1     -42.282  54.459 -52.538  1.00  0.00     0.055 C 
HETATM    6  C   UNL     1     -41.875  53.597 -53.591  1.00  0.00    -0.010 C 
HETATM    7  C   UNL     1     -42.647  53.511 -54.883  1.00  0.00     0.052 C 
HETATM    8  C   UNL     1     -39.680  53.595 -50.059  1.00  0.00     0.032 A 
HETATM    9  C   UNL     1     -40.090  54.237 -48.893  1.00  0.00     0.002 A 
HETATM   10  C   UNL     1     -41.286  54.934 -48.891  1.00  0.00     0.001 A 
HETATM   11  C   UNL     1     -42.037  55.010 -50.065  1.00  0.00     0.016 A 
ENDROOT
BRANCH   5  12
HETATM   12  N   UNL     1     -43.377  55.342 -52.816  1.00  0.00    -0.324 N 
HETATM   13  C   UNL     1     -43.278  56.696 -53.096  1.00  0.00     0.248 C 
HETATM   14  O   UNL     1     -42.268  57.393 -53.080  1.00  0.00    -0.271 OA
HETATM   15  H   UNL     1     -44.215  54.882 -53.148  1.00  0.00     0.169 HD
BRANCH  13  16
HETATM   16  C   UNL     1     -44.614  57.340 -53.482  1.00  0.00     0.335 C 
BRANCH  16  17
HETATM   17  N   UNL     1     -45.037  57.025 -54.902  1.00  0.00    -0.063 N 
HETATM   18  H   UNL     1     -45.001  56.011 -55.060  1.00  0.00     0.278 HD
HETATM   19  H   UNL     1     -46.029  57.299 -54.960  1.00  0.00     0.278 HD
BRANCH  17  20
HETATM   20  C   UNL     1     -44.342  57.745 -56.031  1.00  0.00     0.178 C 
HETATM   21  C   UNL     1     -43.432  56.792 -56.795  1.00  0.00     0.039 C 
HETATM   22  C   UNL     1     -45.432  58.306 -56.942  1.00  0.00     0.039 C 
ENDBRANCH  17  20
ENDBRANCH  16  17
ENDBRANCH  13  16
ENDBRANCH   5  12
BRANCH   1  23
HETATM   23  C   UNL     1     -40.083  51.973 -54.460  1.00  0.00     0.055 C 
HETATM   24  C   UNL     1     -40.265  50.496 -54.141  1.00  0.00     0.011 C 
ENDBRANCH   1  23
TORSDOF 5
ENDMDL
MODEL 5
REMARK VINA RESULT:      -7.0      3.390      4.425
REMARK  5 active torsions:
REMARK  status: ('A' for Active; 'I' for Inactive)
REMARK    1  A    between atoms: C_2  and  C_3 
REMARK    2  A    between atoms: C_7  and  N_8 
REMARK       I    between atoms: N_8  and  C_9 
REMARK    3  A    between atoms: C_9  and  C_10 
REMARK    4  A    between atoms: C_10  and  N_11 
REMARK    5  A    between atoms: N_11  and  C_14 
ROOT
HETATM    1  C   UNL     1     -41.066  55.231 -50.505  1.00  0.00     0.043 C 
HETATM    2  N   UNL     1     -40.802  54.079 -51.159  1.00  0.00    -0.252 NA
HETATM    3  C   UNL     1     -40.709  54.070 -52.492  1.00  0.00     0.069 A 
HETATM    4  C   UNL     1     -40.942  55.209 -53.285  1.00  0.00     0.020 A 
HETATM    5  C   UNL     1     -41.365  56.388 -52.599  1.00  0.00     0.055 C 
HETATM    6  C   UNL     1     -41.335  56.428 -51.179  1.00  0.00    -0.010 C 
HETATM    7  C   UNL     1     -41.642  57.693 -50.419  1.00  0.00     0.052 C 
HETATM    8  C   UNL     1     -40.338  52.872 -53.089  1.00  0.00     0.032 A 
HETATM    9  C   UNL     1     -40.135  52.762 -54.462  1.00  0.00     0.002 A 
HETATM   10  C   UNL     1     -40.282  53.883 -55.258  1.00  0.00     0.001 A 
HETATM   11  C   UNL     1     -40.666  55.092 -54.675  1.00  0.00     0.016 A 
ENDROOT
BRANCH   5  12
HETATM   12  N   UNL     1     -41.835  57.566 -53.266  1.00  0.00    -0.324 N 
HETATM   13  C   UNL     1     -41.072  58.679 -53.584  1.00  0.00     0.248 C 
HETATM   14  O   UNL     1     -39.899  58.892 -53.290  1.00  0.00    -0.271 OA
HETATM   15  H   UNL     1     -42.672  57.433 -53.819  1.00  0.00     0.169 HD
BRANCH  13  16
HETATM   16  C   UNL     1     -41.826  59.722 -54.416  1.00  0.00     0.335 C 
BRANCH  16  17
HETATM   17  N   UNL     1     -42.240  60.936 -53.610  1.00  0.00    -0.063 N 
HETATM   18  H   UNL     1     -41.410  61.397 -53.220  1.00  0.00     0.278 HD
HETATM   19  H   UNL     1     -42.650  61.592 -54.292  1.00  0.00     0.278 HD
BRANCH  17  20
HETATM   20  C   UNL     1     -43.281  60.758 -52.532  1.00  0.00     0.178 C 
HETATM   21  C   UNL     1     -42.717  61.149 -51.173  1.00  0.00     0.039 C 
HETATM   22  C   UNL     1     -44.469  61.643 -52.905  1.00  0.00     0.039 C 
ENDBRANCH  17  20
ENDBRANCH  16  17
ENDBRANCH  13  16
ENDBRANCH   5  12
BRANCH   1  23
HETATM   23  C   UNL     1     -41.079  55.087 -49.002  1.00  0.00     0.055 C 
HETATM   24  C   UNL     1     -40.203  53.939 -48.522  1.00  0.00     0.011 C 
ENDBRANCH   1  23
TORSDOF 5
ENDMDL
MODEL 6
REMARK VINA RESULT:      -7.0      2.469      3.267
REMARK  5 active torsions:
REMARK  status: ('A' for Active; 'I' for Inactive)
REMARK    1  A    between atoms: C_2  and  C_3 
REMARK    2  A    between atoms: C_7  and  N_8 
REMARK       I    between atoms: N_8  and  C_9 
REMARK    3  A    between atoms: C_9  and  C_10 
REMARK    4  A    between atoms: C_10  and  N_11 
REMARK    5  A    between atoms: N_11  and  C_14 
ROOT
HETATM    1  C   UNL     1     -41.077  55.189 -50.499  1.00  0.00     0.043 C 
HETATM    2  N   UNL     1     -40.822  54.064 -51.201  1.00  0.00    -0.252 NA
HETATM    3  C   UNL     1     -40.728  54.111 -52.532  1.00  0.00     0.069 A 
HETATM    4  C   UNL     1     -40.950  55.285 -53.276  1.00  0.00     0.020 A 
HETATM    5  C   UNL     1     -41.365  56.436 -52.540  1.00  0.00     0.055 C 
HETATM    6  C   UNL     1     -41.336  56.416 -51.121  1.00  0.00    -0.010 C 
HETATM    7  C   UNL     1     -41.633  57.650 -50.307  1.00  0.00     0.052 C 
HETATM    8  C   UNL     1     -40.366  52.936 -53.180  1.00  0.00     0.032 A 
HETATM    9  C   UNL     1     -40.163  52.883 -54.557  1.00  0.00     0.002 A 
HETATM   10  C   UNL     1     -40.300  54.039 -55.304  1.00  0.00     0.001 A 
HETATM   11  C   UNL     1     -40.675  55.225 -54.670  1.00  0.00     0.016 A 
ENDROOT
BRANCH   5  12
HETATM   12  N   UNL     1     -41.824  57.646 -53.157  1.00  0.00    -0.324 N 
HETATM   13  C   UNL     1     -41.035  58.729 -53.510  1.00  0.00     0.248 C 
HETATM   14  O   UNL     1     -39.837  58.885 -53.294  1.00  0.00    -0.271 OA
HETATM   15  H   UNL     1     -42.702  57.560 -53.654  1.00  0.00     0.169 HD
BRANCH  13  16
HETATM   16  C   UNL     1     -41.795  59.819 -54.273  1.00  0.00     0.335 C 
BRANCH  16  17
HETATM   17  N   UNL     1     -41.917  59.530 -55.755  1.00  0.00    -0.063 N 
HETATM   18  H   UNL     1     -41.738  60.386 -56.295  1.00  0.00     0.278 HD
HETATM   19  H   UNL     1     -41.149  58.877 -55.972  1.00  0.00     0.278 HD
BRANCH  17  20
HETATM   20  C   UNL     1     -43.177  58.865 -56.253  1.00  0.00     0.178 C 
HETATM   21  C   UNL     1     -43.806  59.681 -57.374  1.00  0.00     0.039 C 
HETATM   22  C   UNL     1     -42.785  57.474 -56.744  1.00  0.00     0.039 C 
ENDBRANCH  17  20
ENDBRANCH  16  17
ENDBRANCH  13  16
ENDBRANCH   5  12
BRANCH   1  23
HETATM   23  C   UNL     1     -41.092  54.981 -49.003  1.00  0.00     0.055 C 
HETATM   24  C   UNL     1     -40.010  54.015 -48.541  1.00  0.00     0.011 C 
ENDBRANCH   1  23
TORSDOF 5
ENDMDL
MODEL 7
REMARK VINA RESULT:      -6.9      1.879      2.719
REMARK  5 active torsions:
REMARK  status: ('A' for Active; 'I' for Inactive)
REMARK    1  A    between atoms: C_2  and  C_3 
REMARK    2  A    between atoms: C_7  and  N_8 
REMARK       I    between atoms: N_8  and  C_9 
REMARK    3  A    between atoms: C_9  and  C_10 
REMARK    4  A    between atoms: C_10  and  N_11 
REMARK    5  A    between atoms: N_11  and  C_14 
ROOT
HETATM    1  C   UNL     1     -41.415  56.301 -52.082  1.00  0.00     0.043 C 
HETATM    2  N   UNL     1     -41.025  55.103 -51.595  1.00  0.00    -0.252 NA
HETATM    3  C   UNL     1     -40.706  54.111 -52.430  1.00  0.00     0.069 A 
HETATM    4  C   UNL     1     -40.817  54.220 -53.829  1.00  0.00     0.020 A 
HETATM    5  C   UNL     1     -41.370  55.437 -54.331  1.00  0.00     0.055 C 
HETATM    6  C   UNL     1     -41.584  56.532 -53.452  1.00  0.00    -0.010 C 
HETATM    7  C   UNL     1     -42.036  57.876 -53.962  1.00  0.00     0.052 C 
HETATM    8  C   UNL     1     -40.220  52.941 -51.860  1.00  0.00     0.032 A 
HETATM    9  C   UNL     1     -39.783  51.868 -52.634  1.00  0.00     0.002 A 
HETATM   10  C   UNL     1     -39.810  51.975 -54.013  1.00  0.00     0.001 A 
HETATM   11  C   UNL     1     -40.307  53.140 -54.601  1.00  0.00     0.016 A 
ENDROOT
BRANCH   5  12
HETATM   12  N   UNL     1     -41.737  55.632 -55.703  1.00  0.00    -0.324 N 
HETATM   13  C   UNL     1     -42.800  55.027 -56.355  1.00  0.00     0.248 C 
HETATM   14  O   UNL     1     -43.560  54.170 -55.913  1.00  0.00    -0.271 OA
HETATM   15  H   UNL     1     -41.406  56.498 -56.109  1.00  0.00     0.169 HD
BRANCH  13  16
HETATM   16  C   UNL     1     -43.015  55.539 -57.783  1.00  0.00     0.335 C 
BRANCH  16  17
HETATM   17  N   UNL     1     -44.106  56.586 -57.879  1.00  0.00    -0.063 N 
HETATM   18  H   UNL     1     -44.890  56.224 -58.436  1.00  0.00     0.278 HD
HETATM   19  H   UNL     1     -44.457  56.706 -56.917  1.00  0.00     0.278 HD
BRANCH  17  20
HETATM   20  C   UNL     1     -43.732  57.967 -58.358  1.00  0.00     0.178 C 
HETATM   21  C   UNL     1     -44.375  59.031 -57.478  1.00  0.00     0.039 C 
HETATM   22  C   UNL     1     -42.208  58.062 -58.304  1.00  0.00     0.039 C 
ENDBRANCH  17  20
ENDBRANCH  16  17
ENDBRANCH  13  16
ENDBRANCH   5  12
BRANCH   1  23
HETATM   23  C   UNL     1     -41.682  57.334 -51.013  1.00  0.00     0.055 C 
HETATM   24  C   UNL     1     -40.467  58.206 -50.732  1.00  0.00     0.011 C 
ENDBRANCH   1  23
TORSDOF 5
ENDMDL
MODEL 8
REMARK VINA RESULT:      -6.9      3.005      5.211
REMARK  5 active torsions:
REMARK  status: ('A' for Active; 'I' for Inactive)
REMARK    1  A    between atoms: C_2  and  C_3 
REMARK    2  A    between atoms: C_7  and  N_8 
REMARK       I    between atoms: N_8  and  C_9 
REMARK    3  A    between atoms: C_9  and  C_10 
REMARK    4  A    between atoms: C_10  and  N_11 
REMARK    5  A    between atoms: N_11  and  C_14 
ROOT
HETATM    1  C   UNL     1     -40.928  53.012 -53.512  1.00  0.00     0.043 C 
HETATM    2  N   UNL     1     -40.169  53.021 -52.395  1.00  0.00    -0.252 NA
HETATM    3  C   UNL     1     -40.546  53.738 -51.333  1.00  0.00     0.069 A 
HETATM    4  C   UNL     1     -41.688  54.561 -51.330  1.00  0.00     0.020 A 
HETATM    5  C   UNL     1     -42.403  54.663 -52.561  1.00  0.00     0.055 C 
HETATM    6  C   UNL     1     -42.075  53.802 -53.643  1.00  0.00    -0.010 C 
HETATM    7  C   UNL     1     -42.891  53.781 -54.910  1.00  0.00     0.052 C 
HETATM    8  C   UNL     1     -39.770  53.621 -50.186  1.00  0.00     0.032 A 
HETATM    9  C   UNL     1     -40.110  54.260 -48.996  1.00  0.00     0.002 A 
HETATM   10  C   UNL     1     -41.268  55.015 -48.941  1.00  0.00     0.001 A 
HETATM   11  C   UNL     1     -42.052  55.152 -50.088  1.00  0.00     0.016 A 
ENDROOT
BRANCH   5  12
HETATM   12  N   UNL     1     -43.460  55.605 -52.787  1.00  0.00    -0.324 N 
HETATM   13  C   UNL     1     -43.301  56.945 -53.101  1.00  0.00     0.248 C 
HETATM   14  O   UNL     1     -42.253  57.581 -53.165  1.00  0.00    -0.271 OA
HETATM   15  H   UNL     1     -44.344  55.191 -53.055  1.00  0.00     0.169 HD
BRANCH  13  16
HETATM   16  C   UNL     1     -44.619  57.662 -53.413  1.00  0.00     0.335 C 
BRANCH  16  17
HETATM   17  N   UNL     1     -44.663  59.081 -52.884  1.00  0.00    -0.063 N 
HETATM   18  H   UNL     1     -43.858  59.612 -53.239  1.00  0.00     0.278 HD
HETATM   19  H   UNL     1     -45.505  59.504 -53.303  1.00  0.00     0.278 HD
BRANCH  17  20
HETATM   20  C   UNL     1     -44.794  59.285 -51.395  1.00  0.00     0.178 C 
HETATM   21  C   UNL     1     -43.625  60.101 -50.861  1.00  0.00     0.039 C 
HETATM   22  C   UNL     1     -46.118  60.008 -51.157  1.00  0.00     0.039 C 
ENDBRANCH  17  20
ENDBRANCH  16  17
ENDBRANCH  13  16
ENDBRANCH   5  12
BRANCH   1  23
HETATM   23  C   UNL     1     -40.396  52.108 -54.599  1.00  0.00     0.055 C 
HETATM   24  C   UNL     1     -39.881  50.785 -54.053  1.00  0.00     0.011 C 
ENDBRANCH   1  23
TORSDOF 5
ENDMDL
MODEL 9
REMARK VINA RESULT:      -6.6      2.370      3.961
REMARK  5 active torsions:
REMARK  status: ('A' for Active; 'I' for Inactive)
REMARK    1  A    between atoms: C_2  and  C_3 
REMARK    2  A    between atoms: C_7  and  N_8 
REMARK       I    between atoms: N_8  and  C_9 
REMARK    3  A    between atoms: C_9  and  C_10 
REMARK    4  A    between atoms: C_10  and  N_11 
REMARK    5  A    between atoms: N_11  and  C_14 
ROOT
HETATM    1  C   UNL     1     -43.691  56.400 -52.717  1.00  0.00     0.043 C 
HETATM    2  N   UNL     1     -42.857  55.497 -52.157  1.00  0.00    -0.252 NA
HETATM    3  C   UNL     1     -42.136  54.680 -52.930  1.00  0.00     0.069 A 
HETATM    4  C   UNL     1     -42.246  54.656 -54.333  1.00  0.00     0.020 A 
HETATM    5  C   UNL     1     -43.237  55.508 -54.909  1.00  0.00     0.055 C 
HETATM    6  C   UNL     1     -43.904  56.464 -54.099  1.00  0.00    -0.010 C 
HETATM    7  C   UNL     1     -44.856  57.473 -54.690  1.00  0.00     0.052 C 
HETATM    8  C   UNL     1     -41.227  53.847 -52.289  1.00  0.00     0.032 A 
HETATM    9  C   UNL     1     -40.368  53.009 -52.996  1.00  0.00     0.002 A 
HETATM   10  C   UNL     1     -40.400  53.019 -54.379  1.00  0.00     0.001 A 
HETATM   11  C   UNL     1     -41.316  53.842 -55.037  1.00  0.00     0.016 A 
ENDROOT
BRANCH   5  12
HETATM   12  N   UNL     1     -43.615  55.459 -56.291  1.00  0.00    -0.324 N 
HETATM   13  C   UNL     1     -43.078  56.230 -57.309  1.00  0.00     0.248 C 
HETATM   14  O   UNL     1     -42.253  57.134 -57.209  1.00  0.00    -0.271 OA
HETATM   15  H   UNL     1     -44.053  54.592 -56.578  1.00  0.00     0.169 HD
BRANCH  13  16
HETATM   16  C   UNL     1     -43.595  55.854 -58.702  1.00  0.00     0.335 C 
BRANCH  16  17
HETATM   17  N   UNL     1     -45.017  56.313 -58.950  1.00  0.00    -0.063 N 
HETATM   18  H   UNL     1     -45.316  56.031 -59.891  1.00  0.00     0.278 HD
HETATM   19  H   UNL     1     -45.598  55.781 -58.283  1.00  0.00     0.278 HD
BRANCH  17  20
HETATM   20  C   UNL     1     -45.350  57.766 -58.720  1.00  0.00     0.178 C 
HETATM   21  C   UNL     1     -45.111  58.577 -59.986  1.00  0.00     0.039 C 
HETATM   22  C   UNL     1     -46.817  57.829 -58.300  1.00  0.00     0.039 C 
ENDBRANCH  17  20
ENDBRANCH  16  17
ENDBRANCH  13  16
ENDBRANCH   5  12
BRANCH   1  23
HETATM   23  C   UNL     1     -44.387  57.288 -51.713  1.00  0.00     0.055 C 
HETATM   24  C   UNL     1     -43.575  58.530 -51.377  1.00  0.00     0.011 C 
ENDBRANCH   1  23
TORSDOF 5
ENDMDL
MODEL 10
REMARK VINA RESULT:      -6.5      2.020      6.325
REMARK  5 active torsions:
REMARK  status: ('A' for Active; 'I' for Inactive)
REMARK    1  A    between atoms: C_2  and  C_3 
REMARK    2  A    between atoms: C_7  and  N_8 
REMARK       I    between atoms: N_8  and  C_9 
REMARK    3  A    between atoms: C_9  and  C_10 
REMARK    4  A    between atoms: C_10  and  N_11 
REMARK    5  A    between atoms: N_11  and  C_14 
ROOT
HETATM    1  C   UNL     1     -43.664  56.186 -52.533  1.00  0.00     0.043 C 
HETATM    2  N   UNL     1     -43.846  57.041 -53.563  1.00  0.00    -0.252 NA
HETATM    3  C   UNL     1     -43.538  56.668 -54.808  1.00  0.00     0.069 A 
HETATM    4  C   UNL     1     -42.955  55.424 -55.113  1.00  0.00     0.020 A 
HETATM    5  C   UNL     1     -42.628  54.584 -54.006  1.00  0.00     0.055 C 
HETATM    6  C   UNL     1     -43.075  54.928 -52.702  1.00  0.00    -0.010 C 
HETATM    7  C   UNL     1     -42.872  54.004 -51.529  1.00  0.00     0.052 C 
HETATM    8  C   UNL     1     -43.843  57.561 -55.827  1.00  0.00     0.032 A 
HETATM    9  C   UNL     1     -43.639  57.250 -57.169  1.00  0.00     0.002 A 
HETATM   10  C   UNL     1     -43.137  56.005 -57.505  1.00  0.00     0.001 A 
HETATM   11  C   UNL     1     -42.814  55.101 -56.491  1.00  0.00     0.016 A 
ENDROOT
BRANCH   5  12
HETATM   12  N   UNL     1     -41.854  53.384 -54.125  1.00  0.00    -0.324 N 
HETATM   13  C   UNL     1     -40.532  53.306 -54.533  1.00  0.00     0.248 C 
HETATM   14  O   UNL     1     -39.817  54.218 -54.937  1.00  0.00    -0.271 OA
HETATM   15  H   UNL     1     -42.190  52.608 -53.567  1.00  0.00     0.169 HD
BRANCH  13  16
HETATM   16  C   UNL     1     -39.940  51.896 -54.430  1.00  0.00     0.335 C 
BRANCH  16  17
HETATM   17  N   UNL     1     -40.297  51.196 -53.134  1.00  0.00    -0.063 N 
HETATM   18  H   UNL     1     -41.248  51.456 -52.847  1.00  0.00     0.278 HD
HETATM   19  H   UNL     1     -40.321  50.191 -53.363  1.00  0.00     0.278 HD
BRANCH  17  20
HETATM   20  C   UNL     1     -39.353  51.332 -51.965  1.00  0.00     0.178 C 
HETATM   21  C   UNL     1     -39.663  52.593 -51.170  1.00  0.00     0.039 C 
HETATM   22  C   UNL     1     -39.529  50.085 -51.101  1.00  0.00     0.039 C 
ENDBRANCH  17  20
ENDBRANCH  16  17
ENDBRANCH  13  16
ENDBRANCH   5  12
BRANCH   1  23
HETATM   23  C   UNL     1     -44.117  56.735 -51.201  1.00  0.00     0.055 C 
HETATM   24  C   UNL     1     -44.994  57.969 -51.350  1.00  0.00     0.011 C 
ENDBRANCH   1  23
TORSDOF 5
ENDMDL
