MODEL 1
REMARK VINA RESULT:      -7.9      0.000      0.000
REMARK  6 active torsions:
REMARK  status: ('A' for Active; 'I' for Inactive)
REMARK    1  A    between atoms: C_2  and  O_3 
REMARK    2  A    between atoms: O_3  and  C_4 
REMARK    3  A    between atoms: C_7  and  N_8 
REMARK    4  A    between atoms: N_8  and  C_9 
REMARK    5  A    between atoms: C_9  and  C_10 
REMARK    6  A    between atoms: C_18  and  O_19 
ROOT
HETATM    1  C   UNL     1     -40.709  54.561 -50.764  1.00  0.00     0.024 A 
HETATM    2  C   UNL     1     -40.889  54.004 -49.386  1.00  0.00     0.253 A 
HETATM    3  O   UNL     1     -41.217  54.717 -48.441  1.00  0.00    -0.268 OA
HETATM    4  N   UNL     1     -40.675  52.661 -49.215  1.00  0.00    -0.322 N 
HETATM    5  C   UNL     1     -40.307  51.796 -50.249  1.00  0.00     0.045 A 
HETATM    6  C   UNL     1     -40.125  52.312 -51.534  1.00  0.00    -0.006 A 
HETATM    7  C   UNL     1     -40.134  50.437 -49.998  1.00  0.00     0.033 A 
HETATM    8  C   UNL     1     -39.787  49.577 -51.046  1.00  0.00     0.039 A 
HETATM    9  C   UNL     1     -39.614  50.078 -52.338  1.00  0.00     0.069 A 
HETATM   10  C   UNL     1     -39.773  51.448 -52.575  1.00  0.00     0.050 A 
HETATM   11  C   UNL     1     -40.324  53.743 -51.761  1.00  0.00     0.027 A 
HETATM   12  H   UNL     1     -40.806  52.311 -48.275  1.00  0.00     0.169 HD
ENDROOT
BRANCH   1  13
HETATM   13  C   UNL     1     -40.992  56.039 -50.864  1.00  0.00     0.136 C 
BRANCH  13  14
HETATM   14  N   UNL     1     -42.287  56.286 -51.501  1.00  0.00    -0.289 NA
HETATM   15  H   UNL     1     -42.665  57.199 -51.261  1.00  0.00     0.128 HD
BRANCH  14  16
HETATM   16  C   UNL     1     -42.451  56.055 -52.871  1.00  0.00     0.008 A 
HETATM   17  C   UNL     1     -43.372  55.071 -53.262  1.00  0.00     0.026 A 
HETATM   18  C   UNL     1     -43.564  54.735 -54.609  1.00  0.00     0.038 A 
HETATM   19  C   UNL     1     -42.822  55.372 -55.597  1.00  0.00     0.068 A 
HETATM   20  C   UNL     1     -41.881  56.329 -55.221  1.00  0.00     0.038 A 
HETATM   21  C   UNL     1     -41.682  56.653 -53.872  1.00  0.00     0.026 A 
BRANCH  19  22
HETATM   22  O   UNL     1     -42.916  55.152 -56.944  1.00  0.00    -0.352 OA
BRANCH  22  23
HETATM   23  C   UNL     1     -43.055  56.301 -57.778  1.00  0.00     0.171 C 
HETATM   24  C   UNL     1     -43.045  55.836 -59.223  1.00  0.00     0.034 C 
ENDBRANCH  22  23
ENDBRANCH  19  22
ENDBRANCH  14  16
ENDBRANCH  13  14
ENDBRANCH   1  13
BRANCH   9  25
HETATM   25  O   UNL     1     -39.287  49.344 -53.445  1.00  0.00    -0.356 OA
HETATM   26  C   UNL     1     -39.800  49.797 -54.692  1.00  0.00     0.210 C 
ENDBRANCH   9  25
TORSDOF 6
ENDMDL
MODEL 2
REMARK VINA RESULT:      -7.7      3.006      5.029
REMARK  6 active torsions:
REMARK  status: ('A' for Active; 'I' for Inactive)
REMARK    1  A    between atoms: C_2  and  O_3 
REMARK    2  A    between atoms: O_3  and  C_4 
REMARK    3  A    between atoms: C_7  and  N_8 
REMARK    4  A    between atoms: N_8  and  C_9 
REMARK    5  A    between atoms: C_9  and  C_10 
REMARK    6  A    between atoms: C_18  and  O_19 
ROOT
HETATM    1  C   UNL     1     -42.142  55.721 -55.387  1.00  0.00     0.024 A 
HETATM    2  C   UNL     1     -42.332  56.337 -54.035  1.00  0.00     0.253 A 
HETATM    3  O   UNL     1     -42.913  57.411 -53.895  1.00  0.00    -0.268 OA
HETATM    4  N   UNL     1     -41.834  55.658 -52.955  1.00  0.00    -0.322 N 
HETATM    5  C   UNL     1     -41.171  54.431 -53.049  1.00  0.00     0.045 A 
HETATM    6  C   UNL     1     -40.979  53.857 -54.307  1.00  0.00    -0.006 A 
HETATM    7  C   UNL     1     -40.717  53.790 -51.899  1.00  0.00     0.033 A 
HETATM    8  C   UNL     1     -40.074  52.552 -52.003  1.00  0.00     0.039 A 
HETATM    9  C   UNL     1     -39.886  51.960 -53.254  1.00  0.00     0.069 A 
HETATM   10  C   UNL     1     -40.330  52.622 -54.404  1.00  0.00     0.050 A 
HETATM   11  C   UNL     1     -41.476  54.555 -55.491  1.00  0.00     0.027 A 
HETATM   12  H   UNL     1     -41.980  56.095 -52.055  1.00  0.00     0.169 HD
ENDROOT
BRANCH   1  13
HETATM   13  C   UNL     1     -42.745  56.523 -56.512  1.00  0.00     0.136 C 
BRANCH  13  14
HETATM   14  N   UNL     1     -42.543  55.859 -57.801  1.00  0.00    -0.289 NA
HETATM   15  H   UNL     1     -42.154  54.925 -57.696  1.00  0.00     0.128 HD
BRANCH  14  16
HETATM   16  C   UNL     1     -43.574  55.834 -58.747  1.00  0.00     0.008 A 
HETATM   17  C   UNL     1     -44.395  56.967 -58.849  1.00  0.00     0.026 A 
HETATM   18  C   UNL     1     -45.483  57.013 -59.730  1.00  0.00     0.038 A 
HETATM   19  C   UNL     1     -45.780  55.911 -60.525  1.00  0.00     0.068 A 
HETATM   20  C   UNL     1     -44.992  54.767 -60.412  1.00  0.00     0.038 A 
HETATM   21  C   UNL     1     -43.913  54.721 -59.519  1.00  0.00     0.026 A 
BRANCH  19  22
HETATM   22  O   UNL     1     -46.799  55.823 -61.433  1.00  0.00    -0.352 OA
BRANCH  22  23
HETATM   23  C   UNL     1     -47.796  56.842 -61.386  1.00  0.00     0.171 C 
HETATM   24  C   UNL     1     -48.592  56.781 -62.678  1.00  0.00     0.034 C 
ENDBRANCH  22  23
ENDBRANCH  19  22
ENDBRANCH  14  16
ENDBRANCH  13  14
ENDBRANCH   1  13
BRANCH   9  25
HETATM   25  O   UNL     1     -39.285  50.754 -53.489  1.00  0.00    -0.356 OA
HETATM   26  C   UNL     1     -39.903  49.902 -54.445  1.00  0.00     0.210 C 
ENDBRANCH   9  25
TORSDOF 6
ENDMDL
MODEL 3
REMARK VINA RESULT:      -7.5      2.765      4.592
REMARK  6 active torsions:
REMARK  status: ('A' for Active; 'I' for Inactive)
REMARK    1  A    between atoms: C_2  and  O_3 
REMARK    2  A    between atoms: O_3  and  C_4 
REMARK    3  A    between atoms: C_7  and  N_8 
REMARK    4  A    between atoms: N_8  and  C_9 
REMARK    5  A    between atoms: C_9  and  C_10 
REMARK    6  A    between atoms: C_18  and  O_19 
ROOT
HETATM    1  C   UNL     1     -41.817  55.956 -54.995  1.00  0.00     0.024 A 
HETATM    2  C   UNL     1     -41.890  56.488 -53.598  1.00  0.00     0.253 A 
HETATM    3  O   UNL     1     -42.359  57.598 -53.356  1.00  0.00    -0.268 OA
HETATM    4  N   UNL     1     -41.414  55.689 -52.592  1.00  0.00    -0.322 N 
HETATM    5  C   UNL     1     -40.876  54.417 -52.801  1.00  0.00     0.045 A 
HETATM    6  C   UNL     1     -40.792  53.919 -54.103  1.00  0.00    -0.006 A 
HETATM    7  C   UNL     1     -40.436  53.656 -51.721  1.00  0.00     0.033 A 
HETATM    8  C   UNL     1     -39.919  52.374 -51.940  1.00  0.00     0.039 A 
HETATM    9  C   UNL     1     -39.842  51.859 -53.236  1.00  0.00     0.069 A 
HETATM   10  C   UNL     1     -40.269  52.641 -54.315  1.00  0.00     0.050 A 
HETATM   11  C   UNL     1     -41.270  54.744 -55.212  1.00  0.00     0.027 A 
HETATM   12  H   UNL     1     -41.478  56.072 -51.658  1.00  0.00     0.169 HD
ENDROOT
BRANCH   1  13
HETATM   13  C   UNL     1     -42.388  56.889 -56.033  1.00  0.00     0.136 C 
BRANCH  13  14
HETATM   14  N   UNL     1     -42.193  56.360 -57.384  1.00  0.00    -0.289 NA
HETATM   15  H   UNL     1     -41.642  55.505 -57.386  1.00  0.00     0.128 HD
BRANCH  14  16
HETATM   16  C   UNL     1     -43.287  56.216 -58.245  1.00  0.00     0.008 A 
HETATM   17  C   UNL     1     -43.337  55.069 -59.052  1.00  0.00     0.026 A 
HETATM   18  C   UNL     1     -44.365  54.866 -59.982  1.00  0.00     0.038 A 
HETATM   19  C   UNL     1     -45.365  55.820 -60.132  1.00  0.00     0.068 A 
HETATM   20  C   UNL     1     -45.311  56.979 -59.360  1.00  0.00     0.038 A 
HETATM   21  C   UNL     1     -44.273  57.185 -58.440  1.00  0.00     0.026 A 
BRANCH  19  22
HETATM   22  O   UNL     1     -46.430  55.745 -60.987  1.00  0.00    -0.352 OA
BRANCH  22  23
HETATM   23  C   UNL     1     -47.444  56.736 -60.845  1.00  0.00     0.171 C 
HETATM   24  C   UNL     1     -48.272  56.749 -62.118  1.00  0.00     0.034 C 
ENDBRANCH  22  23
ENDBRANCH  19  22
ENDBRANCH  14  16
ENDBRANCH  13  14
ENDBRANCH   1  13
BRANCH   9  25
HETATM   25  O   UNL     1     -39.369  50.623 -53.581  1.00  0.00    -0.356 OA
HETATM   26  C   UNL     1     -40.070  49.928 -54.605  1.00  0.00     0.210 C 
ENDBRANCH   9  25
TORSDOF 6
ENDMDL
MODEL 4
REMARK VINA RESULT:      -7.4      2.754      7.788
REMARK  6 active torsions:
REMARK  status: ('A' for Active; 'I' for Inactive)
REMARK    1  A    between atoms: C_2  and  O_3 
REMARK    2  A    between atoms: O_3  and  C_4 
REMARK    3  A    between atoms: C_7  and  N_8 
REMARK    4  A    between atoms: N_8  and  C_9 
REMARK    5  A    between atoms: C_9  and  C_10 
REMARK    6  A    between atoms: C_18  and  O_19 
ROOT
HETATM    1  C   UNL     1     -42.701  57.771 -55.394  1.00  0.00     0.024 A 
HETATM    2  C   UNL     1     -42.028  59.037 -55.823  1.00  0.00     0.253 A 
HETATM    3  O   UNL     1     -41.564  59.828 -55.006  1.00  0.00    -0.268 OA
HETATM    4  N   UNL     1     -41.946  59.284 -57.168  1.00  0.00    -0.322 N 
HETATM    5  C   UNL     1     -42.448  58.421 -58.147  1.00  0.00     0.045 A 
HETATM    6  C   UNL     1     -43.089  57.245 -57.753  1.00  0.00    -0.006 A 
HETATM    7  C   UNL     1     -42.302  58.732 -59.497  1.00  0.00     0.033 A 
HETATM    8  C   UNL     1     -42.788  57.851 -60.468  1.00  0.00     0.039 A 
HETATM    9  C   UNL     1     -43.421  56.665 -60.088  1.00  0.00     0.069 A 
HETATM   10  C   UNL     1     -43.578  56.372 -58.729  1.00  0.00     0.050 A 
HETATM   11  C   UNL     1     -43.217  56.948 -56.327  1.00  0.00     0.027 A 
HETATM   12  H   UNL     1     -41.484  60.144 -57.431  1.00  0.00     0.169 HD
ENDROOT
BRANCH   1  13
HETATM   13  C   UNL     1     -42.721  57.568 -53.899  1.00  0.00     0.136 C 
BRANCH  13  14
HETATM   14  N   UNL     1     -41.418  57.112 -53.411  1.00  0.00    -0.289 NA
HETATM   15  H   UNL     1     -41.173  57.533 -52.518  1.00  0.00     0.128 HD
BRANCH  14  16
HETATM   16  C   UNL     1     -41.117  55.746 -53.386  1.00  0.00     0.008 A 
HETATM   17  C   UNL     1     -41.256  55.068 -52.165  1.00  0.00     0.026 A 
HETATM   18  C   UNL     1     -40.927  53.713 -52.033  1.00  0.00     0.038 A 
HETATM   19  C   UNL     1     -40.438  53.006 -53.125  1.00  0.00     0.068 A 
HETATM   20  C   UNL     1     -40.265  53.674 -54.337  1.00  0.00     0.038 A 
HETATM   21  C   UNL     1     -40.582  55.034 -54.461  1.00  0.00     0.026 A 
BRANCH  19  22
HETATM   22  O   UNL     1     -40.092  51.683 -53.141  1.00  0.00    -0.352 OA
BRANCH  22  23
HETATM   23  C   UNL     1     -40.472  50.929 -54.289  1.00  0.00     0.171 C 
HETATM   24  C   UNL     1     -39.454  49.819 -54.482  1.00  0.00     0.034 C 
ENDBRANCH  22  23
ENDBRANCH  19  22
ENDBRANCH  14  16
ENDBRANCH  13  14
ENDBRANCH   1  13
BRANCH   9  25
HETATM   25  O   UNL     1     -43.929  55.719 -60.936  1.00  0.00    -0.356 OA
HETATM   26  C   UNL     1     -44.760  54.719 -60.360  1.00  0.00     0.210 C 
ENDBRANCH   9  25
TORSDOF 6
ENDMDL
MODEL 5
REMARK VINA RESULT:      -7.4      2.455      3.887
REMARK  6 active torsions:
REMARK  status: ('A' for Active; 'I' for Inactive)
REMARK    1  A    between atoms: C_2  and  O_3 
REMARK    2  A    between atoms: O_3  and  C_4 
REMARK    3  A    between atoms: C_7  and  N_8 
REMARK    4  A    between atoms: N_8  and  C_9 
REMARK    5  A    between atoms: C_9  and  C_10 
REMARK    6  A    between atoms: C_18  and  O_19 
ROOT
HETATM    1  C   UNL     1     -42.576  55.256 -54.107  1.00  0.00     0.024 A 
HETATM    2  C   UNL     1     -42.372  55.772 -52.717  1.00  0.00     0.253 A 
HETATM    3  O   UNL     1     -42.905  56.810 -52.332  1.00  0.00    -0.268 OA
HETATM    4  N   UNL     1     -41.568  55.041 -51.883  1.00  0.00    -0.322 N 
HETATM    5  C   UNL     1     -40.941  53.849 -52.259  1.00  0.00     0.045 A 
HETATM    6  C   UNL     1     -41.116  53.370 -53.559  1.00  0.00    -0.006 A 
HETATM    7  C   UNL     1     -40.158  53.151 -51.343  1.00  0.00     0.033 A 
HETATM    8  C   UNL     1     -39.552  51.948 -51.724  1.00  0.00     0.039 A 
HETATM    9  C   UNL     1     -39.730  51.450 -53.017  1.00  0.00     0.069 A 
HETATM   10  C   UNL     1     -40.503  52.170 -53.934  1.00  0.00     0.050 A 
HETATM   11  C   UNL     1     -41.950  54.127 -54.490  1.00  0.00     0.027 A 
HETATM   12  H   UNL     1     -41.450  55.410 -50.949  1.00  0.00     0.169 HD
ENDROOT
BRANCH   1  13
HETATM   13  C   UNL     1     -43.497  56.108 -54.944  1.00  0.00     0.136 C 
BRANCH  13  14
HETATM   14  N   UNL     1     -43.609  55.584 -56.306  1.00  0.00    -0.289 NA
HETATM   15  H   UNL     1     -44.537  55.217 -56.502  1.00  0.00     0.128 HD
BRANCH  14  16
HETATM   16  C   UNL     1     -43.168  56.350 -57.391  1.00  0.00     0.008 A 
HETATM   17  C   UNL     1     -43.285  55.794 -58.674  1.00  0.00     0.026 A 
HETATM   18  C   UNL     1     -42.822  56.466 -59.813  1.00  0.00     0.038 A 
HETATM   19  C   UNL     1     -42.217  57.711 -59.688  1.00  0.00     0.068 A 
HETATM   20  C   UNL     1     -42.066  58.262 -58.417  1.00  0.00     0.038 A 
HETATM   21  C   UNL     1     -42.518  57.581 -57.278  1.00  0.00     0.026 A 
BRANCH  19  22
HETATM   22  O   UNL     1     -41.734  58.479 -60.712  1.00  0.00    -0.352 OA
BRANCH  22  23
HETATM   23  C   UNL     1     -42.155  59.841 -60.752  1.00  0.00     0.171 C 
HETATM   24  C   UNL     1     -43.629  59.867 -61.116  1.00  0.00     0.034 C 
ENDBRANCH  22  23
ENDBRANCH  19  22
ENDBRANCH  14  16
ENDBRANCH  13  14
ENDBRANCH   1  13
BRANCH   9  25
HETATM   25  O   UNL     1     -39.203  50.287 -53.508  1.00  0.00    -0.356 OA
HETATM   26  C   UNL     1     -39.767  49.783 -54.712  1.00  0.00     0.210 C 
ENDBRANCH   9  25
TORSDOF 6
ENDMDL
MODEL 6
REMARK VINA RESULT:      -7.0      2.831      5.441
REMARK  6 active torsions:
REMARK  status: ('A' for Active; 'I' for Inactive)
REMARK    1  A    between atoms: C_2  and  O_3 
REMARK    2  A    between atoms: O_3  and  C_4 
REMARK    3  A    between atoms: C_7  and  N_8 
REMARK    4  A    between atoms: N_8  and  C_9 
REMARK    5  A    between atoms: C_9  and  C_10 
REMARK    6  A    between atoms: C_18  and  O_19 
ROOT
HETATM    1  C   UNL     1     -43.314  55.497 -54.230  1.00  0.00     0.024 A 
HETATM    2  C   UNL     1     -42.660  55.211 -55.547  1.00  0.00     0.253 A 
HETATM    3  O   UNL     1     -43.012  55.779 -56.577  1.00  0.00    -0.268 OA
HETATM    4  N   UNL     1     -41.647  54.288 -55.561  1.00  0.00    -0.322 N 
HETATM    5  C   UNL     1     -41.196  53.613 -54.423  1.00  0.00     0.045 A 
HETATM    6  C   UNL     1     -41.811  53.865 -53.195  1.00  0.00    -0.006 A 
HETATM    7  C   UNL     1     -40.142  52.708 -54.517  1.00  0.00     0.033 A 
HETATM    8  C   UNL     1     -39.684  52.055 -53.368  1.00  0.00     0.039 A 
HETATM    9  C   UNL     1     -40.282  52.307 -52.131  1.00  0.00     0.069 A 
HETATM   10  C   UNL     1     -41.352  53.205 -52.052  1.00  0.00     0.050 A 
HETATM   11  C   UNL     1     -42.909  54.828 -53.134  1.00  0.00     0.027 A 
HETATM   12  H   UNL     1     -41.221  54.117 -56.462  1.00  0.00     0.169 HD
ENDROOT
BRANCH   1  13
HETATM   13  C   UNL     1     -44.397  56.543 -54.304  1.00  0.00     0.136 C 
BRANCH  13  14
HETATM   14  N   UNL     1     -43.827  57.887 -54.415  1.00  0.00    -0.289 NA
HETATM   15  H   UNL     1     -44.541  58.599 -54.538  1.00  0.00     0.128 HD
BRANCH  14  16
HETATM   16  C   UNL     1     -42.881  58.326 -53.482  1.00  0.00     0.008 A 
HETATM   17  C   UNL     1     -43.327  58.611 -52.182  1.00  0.00     0.026 A 
HETATM   18  C   UNL     1     -42.462  59.105 -51.198  1.00  0.00     0.038 A 
HETATM   19  C   UNL     1     -41.125  59.340 -51.501  1.00  0.00     0.068 A 
HETATM   20  C   UNL     1     -40.675  59.093 -52.796  1.00  0.00     0.038 A 
HETATM   21  C   UNL     1     -41.546  58.610 -53.782  1.00  0.00     0.026 A 
BRANCH  19  22
HETATM   22  O   UNL     1     -40.173  59.807 -50.637  1.00  0.00    -0.352 OA
BRANCH  22  23
HETATM   23  C   UNL     1     -38.846  59.316 -50.812  1.00  0.00     0.171 C 
HETATM   24  C   UNL     1     -37.963  59.960 -49.758  1.00  0.00     0.034 C 
ENDBRANCH  22  23
ENDBRANCH  19  22
ENDBRANCH  14  16
ENDBRANCH  13  14
ENDBRANCH   1  13
BRANCH   9  25
HETATM   25  O   UNL     1     -39.923  51.744 -50.937  1.00  0.00    -0.356 OA
HETATM   26  C   UNL     1     -39.618  50.355 -50.946  1.00  0.00     0.210 C 
ENDBRANCH   9  25
TORSDOF 6
ENDMDL
MODEL 7
REMARK VINA RESULT:      -6.9      3.929      8.171
REMARK  6 active torsions:
REMARK  status: ('A' for Active; 'I' for Inactive)
REMARK    1  A    between atoms: C_2  and  O_3 
REMARK    2  A    between atoms: O_3  and  C_4 
REMARK    3  A    between atoms: C_7  and  N_8 
REMARK    4  A    between atoms: N_8  and  C_9 
REMARK    5  A    between atoms: C_9  and  C_10 
REMARK    6  A    between atoms: C_18  and  O_19 
ROOT
HETATM    1  C   UNL     1     -43.713  57.453 -53.175  1.00  0.00     0.024 A 
HETATM    2  C   UNL     1     -42.335  58.038 -53.119  1.00  0.00     0.253 A 
HETATM    3  O   UNL     1     -41.432  57.626 -53.843  1.00  0.00    -0.268 OA
HETATM    4  N   UNL     1     -42.116  59.055 -52.228  1.00  0.00    -0.322 N 
HETATM    5  C   UNL     1     -43.102  59.572 -51.383  1.00  0.00     0.045 A 
HETATM    6  C   UNL     1     -44.386  59.022 -51.420  1.00  0.00    -0.006 A 
HETATM    7  C   UNL     1     -42.805  60.626 -50.522  1.00  0.00     0.033 A 
HETATM    8  C   UNL     1     -43.806  61.150 -49.697  1.00  0.00     0.039 A 
HETATM    9  C   UNL     1     -45.097  60.618 -49.733  1.00  0.00     0.069 A 
HETATM   10  C   UNL     1     -45.379  59.547 -50.589  1.00  0.00     0.050 A 
HETATM   11  C   UNL     1     -44.662  57.922 -52.342  1.00  0.00     0.027 A 
HETATM   12  H   UNL     1     -41.179  59.433 -52.214  1.00  0.00     0.169 HD
ENDROOT
BRANCH   1  13
HETATM   13  C   UNL     1     -43.869  56.360 -54.202  1.00  0.00     0.136 C 
BRANCH  13  14
HETATM   14  N   UNL     1     -44.068  55.059 -53.561  1.00  0.00    -0.289 NA
HETATM   15  H   UNL     1     -44.635  54.434 -54.128  1.00  0.00     0.128 HD
BRANCH  14  16
HETATM   16  C   UNL     1     -42.974  54.359 -53.041  1.00  0.00     0.008 A 
HETATM   17  C   UNL     1     -42.847  54.286 -51.646  1.00  0.00     0.026 A 
HETATM   18  C   UNL     1     -41.757  53.652 -51.036  1.00  0.00     0.038 A 
HETATM   19  C   UNL     1     -40.757  53.083 -51.818  1.00  0.00     0.068 A 
HETATM   20  C   UNL     1     -40.853  53.175 -53.205  1.00  0.00     0.038 A 
HETATM   21  C   UNL     1     -41.939  53.823 -53.811  1.00  0.00     0.026 A 
BRANCH  19  22
HETATM   22  O   UNL     1     -39.650  52.425 -51.358  1.00  0.00    -0.352 OA
BRANCH  22  23
HETATM   23  C   UNL     1     -39.351  51.166 -51.957  1.00  0.00     0.171 C 
HETATM   24  C   UNL     1     -39.610  50.081 -50.926  1.00  0.00     0.034 C 
ENDBRANCH  22  23
ENDBRANCH  19  22
ENDBRANCH  14  16
ENDBRANCH  13  14
ENDBRANCH   1  13
BRANCH   9  25
HETATM   25  O   UNL     1     -46.162  61.045 -48.988  1.00  0.00    -0.356 OA
HETATM   26  C   UNL     1     -46.540  62.409 -49.129  1.00  0.00     0.210 C 
ENDBRANCH   9  25
TORSDOF 6
ENDMDL
MODEL 8
REMARK VINA RESULT:      -6.8      3.978      6.177
REMARK  6 active torsions:
REMARK  status: ('A' for Active; 'I' for Inactive)
REMARK    1  A    between atoms: C_2  and  O_3 
REMARK    2  A    between atoms: O_3  and  C_4 
REMARK    3  A    between atoms: C_7  and  N_8 
REMARK    4  A    between atoms: N_8  and  C_9 
REMARK    5  A    between atoms: C_9  and  C_10 
REMARK    6  A    between atoms: C_18  and  O_19 
ROOT
HETATM    1  C   UNL     1     -42.022  56.594 -53.793  1.00  0.00     0.024 A 
HETATM    2  C   UNL     1     -41.771  56.167 -55.206  1.00  0.00     0.253 A 
HETATM    3  O   UNL     1     -42.064  56.887 -56.157  1.00  0.00    -0.268 OA
HETATM    4  N   UNL     1     -41.200  54.937 -55.401  1.00  0.00    -0.322 N 
HETATM    5  C   UNL     1     -40.838  54.076 -54.362  1.00  0.00     0.045 A 
HETATM    6  C   UNL     1     -41.081  54.463 -53.042  1.00  0.00    -0.006 A 
HETATM    7  C   UNL     1     -40.236  52.851 -54.643  1.00  0.00     0.033 A 
HETATM    8  C   UNL     1     -39.858  52.007 -53.594  1.00  0.00     0.039 A 
HETATM    9  C   UNL     1     -40.084  52.387 -52.269  1.00  0.00     0.069 A 
HETATM   10  C   UNL     1     -40.706  53.611 -51.999  1.00  0.00     0.050 A 
HETATM   11  C   UNL     1     -41.707  55.759 -52.785  1.00  0.00     0.027 A 
HETATM   12  H   UNL     1     -41.038  54.675 -56.364  1.00  0.00     0.169 HD
ENDROOT
BRANCH   1  13
HETATM   13  C   UNL     1     -42.627  57.971 -53.672  1.00  0.00     0.136 C 
BRANCH  13  14
HETATM   14  N   UNL     1     -42.195  58.631 -52.439  1.00  0.00    -0.289 NA
HETATM   15  H   UNL     1     -41.444  59.297 -52.602  1.00  0.00     0.128 HD
BRANCH  14  16
HETATM   16  C   UNL     1     -43.142  59.192 -51.574  1.00  0.00     0.008 A 
HETATM   17  C   UNL     1     -44.408  58.590 -51.510  1.00  0.00     0.026 A 
HETATM   18  C   UNL     1     -45.434  59.112 -50.713  1.00  0.00     0.038 A 
HETATM   19  C   UNL     1     -45.216  60.266 -49.968  1.00  0.00     0.068 A 
HETATM   20  C   UNL     1     -43.974  60.893 -50.045  1.00  0.00     0.038 A 
HETATM   21  C   UNL     1     -42.954  60.374 -50.855  1.00  0.00     0.026 A 
BRANCH  19  22
HETATM   22  O   UNL     1     -46.120  60.875 -49.141  1.00  0.00    -0.352 OA
BRANCH  22  23
HETATM   23  C   UNL     1     -45.611  61.450 -47.940  1.00  0.00     0.171 C 
HETATM   24  C   UNL     1     -45.841  60.461 -46.811  1.00  0.00     0.034 C 
ENDBRANCH  22  23
ENDBRANCH  19  22
ENDBRANCH  14  16
ENDBRANCH  13  14
ENDBRANCH   1  13
BRANCH   9  25
HETATM   25  O   UNL     1     -39.754  51.660 -51.158  1.00  0.00    -0.356 OA
HETATM   26  C   UNL     1     -39.491  50.276 -51.350  1.00  0.00     0.210 C 
ENDBRANCH   9  25
TORSDOF 6
ENDMDL
MODEL 9
REMARK VINA RESULT:      -6.8      4.011      9.577
REMARK  6 active torsions:
REMARK  status: ('A' for Active; 'I' for Inactive)
REMARK    1  A    between atoms: C_2  and  O_3 
REMARK    2  A    between atoms: O_3  and  C_4 
REMARK    3  A    between atoms: C_7  and  N_8 
REMARK    4  A    between atoms: N_8  and  C_9 
REMARK    5  A    between atoms: C_9  and  C_10 
REMARK    6  A    between atoms: C_18  and  O_19 
ROOT
HETATM    1  C   UNL     1     -42.609  57.219 -57.292  1.00  0.00     0.024 A 
HETATM    2  C   UNL     1     -42.948  56.638 -58.630  1.00  0.00     0.253 A 
HETATM    3  O   UNL     1     -43.361  55.487 -58.745  1.00  0.00    -0.268 OA
HETATM    4  N   UNL     1     -42.781  57.441 -59.727  1.00  0.00    -0.322 N 
HETATM    5  C   UNL     1     -42.321  58.759 -59.662  1.00  0.00     0.045 A 
HETATM    6  C   UNL     1     -41.991  59.303 -58.419  1.00  0.00    -0.006 A 
HETATM    7  C   UNL     1     -42.203  59.519 -60.823  1.00  0.00     0.033 A 
HETATM    8  C   UNL     1     -41.764  60.845 -60.743  1.00  0.00     0.039 A 
HETATM    9  C   UNL     1     -41.442  61.405 -59.504  1.00  0.00     0.069 A 
HETATM   10  C   UNL     1     -41.547  60.626 -58.347  1.00  0.00     0.050 A 
HETATM   11  C   UNL     1     -42.135  58.477 -57.221  1.00  0.00     0.027 A 
HETATM   12  H   UNL     1     -43.020  57.025 -60.617  1.00  0.00     0.169 HD
ENDROOT
BRANCH   1  13
HETATM   13  C   UNL     1     -42.850  56.276 -56.140  1.00  0.00     0.136 C 
BRANCH  13  14
HETATM   14  N   UNL     1     -41.995  55.092 -56.240  1.00  0.00    -0.289 NA
HETATM   15  H   UNL     1     -41.209  55.237 -56.869  1.00  0.00     0.128 HD
BRANCH  14  16
HETATM   16  C   UNL     1     -41.555  54.444 -55.081  1.00  0.00     0.008 A 
HETATM   17  C   UNL     1     -40.367  53.701 -55.157  1.00  0.00     0.026 A 
HETATM   18  C   UNL     1     -39.878  52.977 -54.062  1.00  0.00     0.038 A 
HETATM   19  C   UNL     1     -40.581  52.972 -52.862  1.00  0.00     0.068 A 
HETATM   20  C   UNL     1     -41.779  53.680 -52.781  1.00  0.00     0.038 A 
HETATM   21  C   UNL     1     -42.272  54.392 -53.883  1.00  0.00     0.026 A 
BRANCH  19  22
HETATM   22  O   UNL     1     -40.215  52.322 -51.716  1.00  0.00    -0.352 OA
BRANCH  22  23
HETATM   23  C   UNL     1     -39.453  51.126 -51.866  1.00  0.00     0.171 C 
HETATM   24  C   UNL     1     -39.822  50.188 -50.731  1.00  0.00     0.034 C 
ENDBRANCH  22  23
ENDBRANCH  19  22
ENDBRANCH  14  16
ENDBRANCH  13  14
ENDBRANCH   1  13
BRANCH   9  25
HETATM   25  O   UNL     1     -41.012  62.686 -59.291  1.00  0.00    -0.356 OA
HETATM   26  C   UNL     1     -39.615  62.924 -59.410  1.00  0.00     0.210 C 
ENDBRANCH   9  25
TORSDOF 6
ENDMDL
MODEL 10
REMARK VINA RESULT:      -6.7      2.748      4.679
REMARK  6 active torsions:
REMARK  status: ('A' for Active; 'I' for Inactive)
REMARK    1  A    between atoms: C_2  and  O_3 
REMARK    2  A    between atoms: O_3  and  C_4 
REMARK    3  A    between atoms: C_7  and  N_8 
REMARK    4  A    between atoms: N_8  and  C_9 
REMARK    5  A    between atoms: C_9  and  C_10 
REMARK    6  A    between atoms: C_18  and  O_19 
ROOT
HETATM    1  C   UNL     1     -42.209  54.686 -55.112  1.00  0.00     0.024 A 
HETATM    2  C   UNL     1     -42.402  55.714 -54.041  1.00  0.00     0.253 A 
HETATM    3  O   UNL     1     -43.028  56.750 -54.249  1.00  0.00    -0.268 OA
HETATM    4  N   UNL     1     -41.854  55.456 -52.812  1.00  0.00    -0.322 N 
HETATM    5  C   UNL     1     -41.138  54.294 -52.510  1.00  0.00     0.045 A 
HETATM    6  C   UNL     1     -40.943  53.338 -53.509  1.00  0.00    -0.006 A 
HETATM    7  C   UNL     1     -40.634  54.095 -51.227  1.00  0.00     0.033 A 
HETATM    8  C   UNL     1     -39.938  52.918 -50.931  1.00  0.00     0.039 A 
HETATM    9  C   UNL     1     -39.746  51.947 -51.917  1.00  0.00     0.069 A 
HETATM   10  C   UNL     1     -40.241  52.167 -53.207  1.00  0.00     0.050 A 
HETATM   11  C   UNL     1     -41.494  53.578 -54.841  1.00  0.00     0.027 A 
HETATM   12  H   UNL     1     -42.002  56.165 -52.106  1.00  0.00     0.169 HD
ENDROOT
BRANCH   1  13
HETATM   13  C   UNL     1     -42.869  55.040 -56.421  1.00  0.00     0.136 C 
BRANCH  13  14
HETATM   14  N   UNL     1     -42.202  56.176 -57.058  1.00  0.00    -0.289 NA
HETATM   15  H   UNL     1     -41.284  55.929 -57.422  1.00  0.00     0.128 HD
BRANCH  14  16
HETATM   16  C   UNL     1     -42.885  56.954 -57.999  1.00  0.00     0.008 A 
HETATM   17  C   UNL     1     -43.770  57.932 -57.520  1.00  0.00     0.026 A 
HETATM   18  C   UNL     1     -44.536  58.722 -58.386  1.00  0.00     0.038 A 
HETATM   19  C   UNL     1     -44.441  58.539 -59.762  1.00  0.00     0.068 A 
HETATM   20  C   UNL     1     -43.589  57.550 -60.252  1.00  0.00     0.038 A 
HETATM   21  C   UNL     1     -42.835  56.752 -59.380  1.00  0.00     0.026 A 
BRANCH  19  22
HETATM   22  O   UNL     1     -45.117  59.245 -60.718  1.00  0.00    -0.352 OA
BRANCH  22  23
HETATM   23  C   UNL     1     -46.494  59.515 -60.469  1.00  0.00     0.171 C 
HETATM   24  C   UNL     1     -47.287  58.264 -60.805  1.00  0.00     0.034 C 
ENDBRANCH  22  23
ENDBRANCH  19  22
ENDBRANCH  14  16
ENDBRANCH  13  14
ENDBRANCH   1  13
BRANCH   9  25
HETATM   25  O   UNL     1     -39.095  50.756 -51.753  1.00  0.00    -0.356 OA
HETATM   26  C   UNL     1     -39.633  49.856 -50.790  1.00  0.00     0.210 C 
ENDBRANCH   9  25
TORSDOF 6
ENDMDL
