MODEL 1
REMARK VINA RESULT:      -8.9      0.000      0.000
REMARK  7 active torsions:
REMARK  status: ('A' for Active; 'I' for Inactive)
REMARK    1  A    between atoms: C_2  and  C_3 
REMARK    2  A    between atoms: C_4  and  O_5 
REMARK    3  A    between atoms: C_7  and  O_8 
REMARK    4  A    between atoms: C_9  and  C_10 
REMARK    5  A    between atoms: C_14  and  C_15 
REMARK    6  A    between atoms: C_19  and  C_20 
REMARK    7  A    between atoms: N_22  and  C_23 
ROOT
HETATM    1  C   UNL     1     -43.510  57.056 -55.219  1.00  0.00     0.103 A 
HETATM    2  N   UNL     1     -44.500  57.865 -54.788  1.00  0.00    -0.173 NA
HETATM    3  N   UNL     1     -44.534  57.689 -53.463  1.00  0.00    -0.272 N 
HETATM    4  H   UNL     1     -45.205  58.231 -52.925  1.00  0.00     0.189 HD
HETATM    5  C   UNL     1     -43.656  56.757 -53.007  1.00  0.00     0.147 A 
HETATM    6  C   UNL     1     -42.980  56.305 -54.121  1.00  0.00     0.042 A 
ENDROOT
BRANCH   1   7
HETATM    7  C   UNL     1     -43.165  57.034 -56.643  1.00  0.00     0.029 A 
HETATM    8  C   UNL     1     -42.429  58.049 -57.265  1.00  0.00     0.081 A 
HETATM    9  C   UNL     1     -42.094  57.958 -58.617  1.00  0.00     0.074 A 
HETATM   10  C   UNL     1     -42.522  56.865 -59.370  1.00  0.00     0.074 A 
HETATM   11  C   UNL     1     -43.308  55.858 -58.800  1.00  0.00    -0.024 A 
HETATM   12  C   UNL     1     -43.607  55.953 -57.428  1.00  0.00     0.026 A 
BRANCH   8  13
HETATM   13  O   UNL     1     -42.042  59.156 -56.559  1.00  0.00    -0.360 OA
HETATM   14  H   UNL     1     -41.501  58.876 -55.802  1.00  0.00     0.217 HD
ENDBRANCH   8  13
BRANCH  10  15
HETATM   15  O   UNL     1     -42.131  56.857 -60.679  1.00  0.00    -0.360 OA
HETATM   16  H   UNL     1     -42.120  57.766 -61.018  1.00  0.00     0.217 HD
ENDBRANCH  10  15
BRANCH  11  17
HETATM   17  C   UNL     1     -43.847  54.682 -59.575  1.00  0.00     0.037 C 
HETATM   18  C   UNL     1     -45.115  55.033 -60.338  1.00  0.00     0.010 C 
ENDBRANCH  11  17
ENDBRANCH   1   7
BRANCH   6  19
HETATM   19  C   UNL     1     -41.953  55.274 -54.158  1.00  0.00     0.016 A 
HETATM   20  C   UNL     1     -41.998  54.012 -53.616  1.00  0.00     0.132 A 
HETATM   21  N   UNL     1     -40.778  53.419 -53.871  1.00  0.00    -0.245 N 
HETATM   22  N   UNL     1     -39.976  54.240 -54.602  1.00  0.00    -0.179 NA
HETATM   23  C   UNL     1     -40.691  55.355 -54.765  1.00  0.00     0.153 A 
BRANCH  21  24
HETATM   24  C   UNL     1     -40.326  52.136 -53.452  1.00  0.00     0.058 A 
HETATM   25  C   UNL     1     -40.294  51.049 -54.338  1.00  0.00     0.031 A 
HETATM   26  C   UNL     1     -39.860  49.796 -53.895  1.00  0.00     0.002 A 
HETATM   27  C   UNL     1     -39.458  49.619 -52.572  1.00  0.00     0.000 A 
HETATM   28  C   UNL     1     -39.485  50.693 -51.686  1.00  0.00     0.002 A 
HETATM   29  C   UNL     1     -39.915  51.949 -52.123  1.00  0.00     0.031 A 
ENDBRANCH  21  24
ENDBRANCH   6  19
BRANCH   5  30
HETATM   30  C   UNL     1     -43.610  56.419 -51.583  1.00  0.00     0.435 C 
HETATM   31  F   UNL     1     -44.452  57.205 -50.862  1.00  0.00    -0.165 F 
HETATM   32  F   UNL     1     -43.974  55.136 -51.343  1.00  0.00    -0.165 F 
HETATM   33  F   UNL     1     -42.373  56.593 -51.055  1.00  0.00    -0.165 F 
ENDBRANCH   5  30
TORSDOF 7
ENDMDL
MODEL 2
REMARK VINA RESULT:      -8.7      1.053      2.023
REMARK  7 active torsions:
REMARK  status: ('A' for Active; 'I' for Inactive)
REMARK    1  A    between atoms: C_2  and  C_3 
REMARK    2  A    between atoms: C_4  and  O_5 
REMARK    3  A    between atoms: C_7  and  O_8 
REMARK    4  A    between atoms: C_9  and  C_10 
REMARK    5  A    between atoms: C_14  and  C_15 
REMARK    6  A    between atoms: C_19  and  C_20 
REMARK    7  A    between atoms: N_22  and  C_23 
ROOT
HETATM    1  C   UNL     1     -43.537  56.998 -55.202  1.00  0.00     0.103 A 
HETATM    2  N   UNL     1     -44.549  57.785 -54.786  1.00  0.00    -0.173 NA
HETATM    3  N   UNL     1     -44.597  57.610 -53.461  1.00  0.00    -0.272 N 
HETATM    4  H   UNL     1     -45.286  58.137 -52.932  1.00  0.00     0.189 HD
HETATM    5  C   UNL     1     -43.705  56.697 -52.993  1.00  0.00     0.147 A 
HETATM    6  C   UNL     1     -43.005  56.259 -54.097  1.00  0.00     0.042 A 
ENDROOT
BRANCH   1   7
HETATM    7  C   UNL     1     -43.172  56.982 -56.622  1.00  0.00     0.029 A 
HETATM    8  C   UNL     1     -43.238  55.829 -57.413  1.00  0.00     0.081 A 
HETATM    9  C   UNL     1     -42.915  55.880 -58.770  1.00  0.00     0.074 A 
HETATM   10  C   UNL     1     -42.489  57.078 -59.343  1.00  0.00     0.074 A 
HETATM   11  C   UNL     1     -42.355  58.238 -58.574  1.00  0.00    -0.024 A 
HETATM   12  C   UNL     1     -42.715  58.174 -57.215  1.00  0.00     0.026 A 
BRANCH   8  13
HETATM   13  O   UNL     1     -43.602  54.631 -56.861  1.00  0.00    -0.360 OA
HETATM   14  H   UNL     1     -42.969  53.949 -57.139  1.00  0.00     0.217 HD
ENDBRANCH   8  13
BRANCH  10  15
HETATM   15  O   UNL     1     -42.212  57.030 -60.679  1.00  0.00    -0.360 OA
HETATM   16  H   UNL     1     -42.703  56.299 -61.085  1.00  0.00     0.217 HD
ENDBRANCH  10  15
BRANCH  11  17
HETATM   17  C   UNL     1     -41.847  59.548 -59.123  1.00  0.00     0.037 C 
HETATM   18  C   UNL     1     -41.531  60.546 -58.020  1.00  0.00     0.010 C 
ENDBRANCH  11  17
ENDBRANCH   1   7
BRANCH   6  19
HETATM   19  C   UNL     1     -41.956  55.250 -54.119  1.00  0.00     0.016 A 
HETATM   20  C   UNL     1     -42.000  53.968 -53.627  1.00  0.00     0.132 A 
HETATM   21  N   UNL     1     -40.757  53.409 -53.841  1.00  0.00    -0.245 N 
HETATM   22  N   UNL     1     -39.936  54.273 -54.500  1.00  0.00    -0.179 NA
HETATM   23  C   UNL     1     -40.667  55.378 -54.658  1.00  0.00     0.153 A 
BRANCH  21  24
HETATM   24  C   UNL     1     -40.299  52.120 -53.447  1.00  0.00     0.058 A 
HETATM   25  C   UNL     1     -40.256  51.052 -54.356  1.00  0.00     0.031 A 
HETATM   26  C   UNL     1     -39.816  49.793 -53.938  1.00  0.00     0.002 A 
HETATM   27  C   UNL     1     -39.421  49.589 -52.617  1.00  0.00     0.000 A 
HETATM   28  C   UNL     1     -39.459  50.645 -51.709  1.00  0.00     0.002 A 
HETATM   29  C   UNL     1     -39.894  51.906 -52.120  1.00  0.00     0.031 A 
ENDBRANCH  21  24
ENDBRANCH   6  19
BRANCH   5  30
HETATM   30  C   UNL     1     -43.670  56.361 -51.568  1.00  0.00     0.435 C 
HETATM   31  F   UNL     1     -44.576  57.092 -50.866  1.00  0.00    -0.165 F 
HETATM   32  F   UNL     1     -43.959  55.058 -51.335  1.00  0.00    -0.165 F 
HETATM   33  F   UNL     1     -42.459  56.611 -51.011  1.00  0.00    -0.165 F 
ENDBRANCH   5  30
TORSDOF 7
ENDMDL
MODEL 3
REMARK VINA RESULT:      -8.5      3.359      6.758
REMARK  7 active torsions:
REMARK  status: ('A' for Active; 'I' for Inactive)
REMARK    1  A    between atoms: C_2  and  C_3 
REMARK    2  A    between atoms: C_4  and  O_5 
REMARK    3  A    between atoms: C_7  and  O_8 
REMARK    4  A    between atoms: C_9  and  C_10 
REMARK    5  A    between atoms: C_14  and  C_15 
REMARK    6  A    between atoms: C_19  and  C_20 
REMARK    7  A    between atoms: N_22  and  C_23 
ROOT
HETATM    1  C   UNL     1     -41.374  56.325 -51.097  1.00  0.00     0.103 A 
HETATM    2  N   UNL     1     -41.062  57.052 -50.005  1.00  0.00    -0.173 NA
HETATM    3  N   UNL     1     -41.625  58.246 -50.218  1.00  0.00    -0.272 N 
HETATM    4  H   UNL     1     -41.533  58.954 -49.494  1.00  0.00     0.189 HD
HETATM    5  C   UNL     1     -42.240  58.360 -51.425  1.00  0.00     0.147 A 
HETATM    6  C   UNL     1     -42.084  57.136 -52.040  1.00  0.00     0.042 A 
ENDROOT
BRANCH   1   7
HETATM    7  C   UNL     1     -40.946  54.925 -51.179  1.00  0.00     0.029 A 
HETATM    8  C   UNL     1     -40.764  54.117 -50.051  1.00  0.00     0.081 A 
HETATM    9  C   UNL     1     -40.392  52.778 -50.188  1.00  0.00     0.074 A 
HETATM   10  C   UNL     1     -40.165  52.243 -51.456  1.00  0.00     0.074 A 
HETATM   11  C   UNL     1     -40.281  53.032 -52.604  1.00  0.00    -0.024 A 
HETATM   12  C   UNL     1     -40.687  54.370 -52.446  1.00  0.00     0.026 A 
BRANCH   8  13
HETATM   13  O   UNL     1     -40.930  54.634 -48.794  1.00  0.00    -0.360 OA
HETATM   14  H   UNL     1     -40.174  55.207 -48.585  1.00  0.00     0.217 HD
ENDBRANCH   8  13
BRANCH  10  15
HETATM   15  O   UNL     1     -39.822  50.921 -51.488  1.00  0.00    -0.360 OA
HETATM   16  H   UNL     1     -40.566  50.402 -51.830  1.00  0.00     0.217 HD
ENDBRANCH  10  15
BRANCH  11  17
HETATM   17  C   UNL     1     -39.995  52.526 -53.996  1.00  0.00     0.037 C 
HETATM   18  C   UNL     1     -40.254  53.587 -55.055  1.00  0.00     0.010 C 
ENDBRANCH  11  17
ENDBRANCH   1   7
BRANCH   6  19
HETATM   19  C   UNL     1     -42.543  56.765 -53.371  1.00  0.00     0.016 A 
HETATM   20  C   UNL     1     -42.019  57.140 -54.584  1.00  0.00     0.132 A 
HETATM   21  N   UNL     1     -42.815  56.575 -55.560  1.00  0.00    -0.245 N 
HETATM   22  N   UNL     1     -43.797  55.809 -55.011  1.00  0.00    -0.179 NA
HETATM   23  C   UNL     1     -43.626  55.935 -53.694  1.00  0.00     0.153 A 
BRANCH  21  24
HETATM   24  C   UNL     1     -42.708  56.730 -56.971  1.00  0.00     0.058 A 
HETATM   25  C   UNL     1     -43.054  55.690 -57.847  1.00  0.00     0.031 A 
HETATM   26  C   UNL     1     -42.925  55.865 -59.228  1.00  0.00     0.002 A 
HETATM   27  C   UNL     1     -42.451  57.070 -59.743  1.00  0.00     0.000 A 
HETATM   28  C   UNL     1     -42.107  58.108 -58.880  1.00  0.00     0.002 A 
HETATM   29  C   UNL     1     -42.236  57.942 -57.499  1.00  0.00     0.031 A 
ENDBRANCH  21  24
ENDBRANCH   6  19
BRANCH   5  30
HETATM   30  C   UNL     1     -42.861  59.626 -51.822  1.00  0.00     0.435 C 
HETATM   31  F   UNL     1     -44.130  59.434 -52.268  1.00  0.00    -0.165 F 
HETATM   32  F   UNL     1     -42.938  60.508 -50.796  1.00  0.00    -0.165 F 
HETATM   33  F   UNL     1     -42.186  60.235 -52.827  1.00  0.00    -0.165 F 
ENDBRANCH   5  30
TORSDOF 7
ENDMDL
MODEL 4
REMARK VINA RESULT:      -8.4      1.461      1.970
REMARK  7 active torsions:
REMARK  status: ('A' for Active; 'I' for Inactive)
REMARK    1  A    between atoms: C_2  and  C_3 
REMARK    2  A    between atoms: C_4  and  O_5 
REMARK    3  A    between atoms: C_7  and  O_8 
REMARK    4  A    between atoms: C_9  and  C_10 
REMARK    5  A    between atoms: C_14  and  C_15 
REMARK    6  A    between atoms: C_19  and  C_20 
REMARK    7  A    between atoms: N_22  and  C_23 
ROOT
HETATM    1  C   UNL     1     -44.092  58.265 -55.614  1.00  0.00     0.103 A 
HETATM    2  N   UNL     1     -45.199  59.033 -55.645  1.00  0.00    -0.173 NA
HETATM    3  N   UNL     1     -45.531  59.206 -54.361  1.00  0.00    -0.272 N 
HETATM    4  H   UNL     1     -46.338  59.786 -54.148  1.00  0.00     0.189 HD
HETATM    5  C   UNL     1     -44.731  58.537 -53.489  1.00  0.00     0.147 A 
HETATM    6  C   UNL     1     -43.789  57.894 -54.264  1.00  0.00     0.042 A 
ENDROOT
BRANCH   1   7
HETATM    7  C   UNL     1     -43.423  57.913 -56.870  1.00  0.00     0.029 A 
HETATM    8  C   UNL     1     -42.337  58.631 -57.383  1.00  0.00     0.081 A 
HETATM    9  C   UNL     1     -41.712  58.229 -58.565  1.00  0.00     0.074 A 
HETATM   10  C   UNL     1     -42.191  57.121 -59.265  1.00  0.00     0.074 A 
HETATM   11  C   UNL     1     -43.309  56.411 -58.817  1.00  0.00    -0.024 A 
HETATM   12  C   UNL     1     -43.904  56.814 -57.607  1.00  0.00     0.026 A 
BRANCH   8  13
HETATM   13  O   UNL     1     -41.883  59.751 -56.741  1.00  0.00    -0.360 OA
HETATM   14  H   UNL     1     -41.063  59.534 -56.266  1.00  0.00     0.217 HD
ENDBRANCH   8  13
BRANCH  10  15
HETATM   15  O   UNL     1     -41.504  56.797 -60.400  1.00  0.00    -0.360 OA
HETATM   16  H   UNL     1     -41.127  55.908 -60.307  1.00  0.00     0.217 HD
ENDBRANCH  10  15
BRANCH  11  17
HETATM   17  C   UNL     1     -43.906  55.241 -59.559  1.00  0.00     0.037 C 
HETATM   18  C   UNL     1     -44.818  55.687 -60.691  1.00  0.00     0.010 C 
ENDBRANCH  11  17
ENDBRANCH   1   7
BRANCH   6  19
HETATM   19  C   UNL     1     -42.725  57.019 -53.795  1.00  0.00     0.016 A 
HETATM   20  C   UNL     1     -42.541  55.685 -54.068  1.00  0.00     0.132 A 
HETATM   21  N   UNL     1     -41.422  55.280 -53.367  1.00  0.00    -0.245 N 
HETATM   22  N   UNL     1     -40.857  56.323 -52.699  1.00  0.00    -0.179 NA
HETATM   23  C   UNL     1     -41.651  57.362 -52.960  1.00  0.00     0.153 A 
BRANCH  21  24
HETATM   24  C   UNL     1     -40.872  53.970 -53.283  1.00  0.00     0.058 A 
HETATM   25  C   UNL     1     -40.851  53.115 -54.394  1.00  0.00     0.031 A 
HETATM   26  C   UNL     1     -40.317  51.828 -54.279  1.00  0.00     0.002 A 
HETATM   27  C   UNL     1     -39.805  51.386 -53.061  1.00  0.00     0.000 A 
HETATM   28  C   UNL     1     -39.820  52.230 -51.952  1.00  0.00     0.002 A 
HETATM   29  C   UNL     1     -40.349  53.518 -52.061  1.00  0.00     0.031 A 
ENDBRANCH  21  24
ENDBRANCH   6  19
BRANCH   5  30
HETATM   30  C   UNL     1     -44.998  58.590 -52.050  1.00  0.00     0.435 C 
HETATM   31  F   UNL     1     -45.194  57.347 -51.537  1.00  0.00    -0.165 F 
HETATM   32  F   UNL     1     -43.976  59.141 -51.353  1.00  0.00    -0.165 F 
HETATM   33  F   UNL     1     -46.113  59.306 -51.762  1.00  0.00    -0.165 F 
ENDBRANCH   5  30
TORSDOF 7
ENDMDL
MODEL 5
REMARK VINA RESULT:      -8.3      2.320      2.911
REMARK  7 active torsions:
REMARK  status: ('A' for Active; 'I' for Inactive)
REMARK    1  A    between atoms: C_2  and  C_3 
REMARK    2  A    between atoms: C_4  and  O_5 
REMARK    3  A    between atoms: C_7  and  O_8 
REMARK    4  A    between atoms: C_9  and  C_10 
REMARK    5  A    between atoms: C_14  and  C_15 
REMARK    6  A    between atoms: C_19  and  C_20 
REMARK    7  A    between atoms: N_22  and  C_23 
ROOT
HETATM    1  C   UNL     1     -42.742  58.786 -54.563  1.00  0.00     0.103 A 
HETATM    2  N   UNL     1     -42.558  60.113 -54.413  1.00  0.00    -0.173 NA
HETATM    3  N   UNL     1     -41.766  60.229 -53.342  1.00  0.00    -0.272 N 
HETATM    4  H   UNL     1     -41.476  61.161 -53.059  1.00  0.00     0.189 HD
HETATM    5  C   UNL     1     -41.471  59.045 -52.742  1.00  0.00     0.147 A 
HETATM    6  C   UNL     1     -42.103  58.078 -53.496  1.00  0.00     0.042 A 
ENDROOT
BRANCH   1   7
HETATM    7  C   UNL     1     -43.539  58.291 -55.690  1.00  0.00     0.029 A 
HETATM    8  C   UNL     1     -44.903  58.566 -55.838  1.00  0.00     0.081 A 
HETATM    9  C   UNL     1     -45.605  58.101 -56.952  1.00  0.00     0.074 A 
HETATM   10  C   UNL     1     -44.955  57.326 -57.913  1.00  0.00     0.074 A 
HETATM   11  C   UNL     1     -43.607  56.982 -57.773  1.00  0.00    -0.024 A 
HETATM   12  C   UNL     1     -42.911  57.487 -56.659  1.00  0.00     0.026 A 
BRANCH   8  13
HETATM   13  O   UNL     1     -45.574  59.279 -54.882  1.00  0.00    -0.360 OA
HETATM   14  H   UNL     1     -45.265  60.200 -54.899  1.00  0.00     0.217 HD
ENDBRANCH   8  13
BRANCH  10  15
HETATM   15  O   UNL     1     -45.721  56.933 -58.973  1.00  0.00    -0.360 OA
HETATM   16  H   UNL     1     -45.198  56.986 -59.788  1.00  0.00     0.217 HD
ENDBRANCH  10  15
BRANCH  11  17
HETATM   17  C   UNL     1     -42.866  56.102 -58.749  1.00  0.00     0.037 C 
HETATM   18  C   UNL     1     -42.285  56.898 -59.908  1.00  0.00     0.010 C 
ENDBRANCH  11  17
ENDBRANCH   1   7
BRANCH   6  19
HETATM   19  C   UNL     1     -42.115  56.645 -53.240  1.00  0.00     0.016 A 
HETATM   20  C   UNL     1     -41.083  55.749 -53.379  1.00  0.00     0.132 A 
HETATM   21  N   UNL     1     -41.583  54.503 -53.061  1.00  0.00    -0.245 N 
HETATM   22  N   UNL     1     -42.886  54.580 -52.674  1.00  0.00    -0.179 NA
HETATM   23  C   UNL     1     -43.196  55.873 -52.790  1.00  0.00     0.153 A 
BRANCH  21  24
HETATM   24  C   UNL     1     -40.909  53.250 -53.118  1.00  0.00     0.058 A 
HETATM   25  C   UNL     1     -40.944  52.454 -54.272  1.00  0.00     0.031 A 
HETATM   26  C   UNL     1     -40.284  51.221 -54.294  1.00  0.00     0.002 A 
HETATM   27  C   UNL     1     -39.590  50.776 -53.171  1.00  0.00     0.000 A 
HETATM   28  C   UNL     1     -39.548  51.562 -52.021  1.00  0.00     0.002 A 
HETATM   29  C   UNL     1     -40.202  52.795 -51.993  1.00  0.00     0.031 A 
ENDBRANCH  21  24
ENDBRANCH   6  19
BRANCH   5  30
HETATM   30  C   UNL     1     -40.653  59.015 -51.528  1.00  0.00     0.435 C 
HETATM   31  F   UNL     1     -39.327  59.061 -51.825  1.00  0.00    -0.165 F 
HETATM   32  F   UNL     1     -40.904  60.064 -50.708  1.00  0.00    -0.165 F 
HETATM   33  F   UNL     1     -40.847  57.884 -50.806  1.00  0.00    -0.165 F 
ENDBRANCH   5  30
TORSDOF 7
ENDMDL
MODEL 6
REMARK VINA RESULT:      -8.2      3.527      7.054
REMARK  7 active torsions:
REMARK  status: ('A' for Active; 'I' for Inactive)
REMARK    1  A    between atoms: C_2  and  C_3 
REMARK    2  A    between atoms: C_4  and  O_5 
REMARK    3  A    between atoms: C_7  and  O_8 
REMARK    4  A    between atoms: C_9  and  C_10 
REMARK    5  A    between atoms: C_14  and  C_15 
REMARK    6  A    between atoms: C_19  and  C_20 
REMARK    7  A    between atoms: N_22  and  C_23 
ROOT
HETATM    1  C   UNL     1     -41.816  55.019 -52.175  1.00  0.00     0.103 A 
HETATM    2  N   UNL     1     -41.208  54.357 -51.170  1.00  0.00    -0.173 NA
HETATM    3  N   UNL     1     -40.577  53.339 -51.764  1.00  0.00    -0.272 N 
HETATM    4  H   UNL     1     -40.025  52.713 -51.184  1.00  0.00     0.189 HD
HETATM    5  C   UNL     1     -40.791  53.263 -53.105  1.00  0.00     0.147 A 
HETATM    6  C   UNL     1     -41.609  54.330 -53.413  1.00  0.00     0.042 A 
ENDROOT
BRANCH   1   7
HETATM    7  C   UNL     1     -42.575  56.239 -51.881  1.00  0.00     0.029 A 
HETATM    8  C   UNL     1     -43.789  56.232 -51.185  1.00  0.00     0.081 A 
HETATM    9  C   UNL     1     -44.451  57.427 -50.898  1.00  0.00     0.074 A 
HETATM   10  C   UNL     1     -43.921  58.641 -51.335  1.00  0.00     0.074 A 
HETATM   11  C   UNL     1     -42.740  58.686 -52.083  1.00  0.00    -0.024 A 
HETATM   12  C   UNL     1     -42.072  57.473 -52.333  1.00  0.00     0.026 A 
BRANCH   8  13
HETATM   13  O   UNL     1     -44.355  55.049 -50.791  1.00  0.00    -0.360 OA
HETATM   14  H   UNL     1     -44.877  55.201 -49.986  1.00  0.00     0.217 HD
ENDBRANCH   8  13
BRANCH  10  15
HETATM   15  O   UNL     1     -44.631  59.755 -50.992  1.00  0.00    -0.360 OA
HETATM   16  H   UNL     1     -45.121  59.587 -50.171  1.00  0.00     0.217 HD
ENDBRANCH  10  15
BRANCH  11  17
HETATM   17  C   UNL     1     -42.148  59.961 -52.630  1.00  0.00     0.037 C 
HETATM   18  C   UNL     1     -41.817  59.848 -54.110  1.00  0.00     0.010 C 
ENDBRANCH  11  17
ENDBRANCH   1   7
BRANCH   6  19
HETATM   19  C   UNL     1     -42.148  54.664 -54.723  1.00  0.00     0.016 A 
HETATM   20  C   UNL     1     -41.778  55.693 -55.555  1.00  0.00     0.132 A 
HETATM   21  N   UNL     1     -42.598  55.630 -56.664  1.00  0.00    -0.245 N 
HETATM   22  N   UNL     1     -43.443  54.565 -56.591  1.00  0.00    -0.179 NA
HETATM   23  C   UNL     1     -43.166  53.994 -55.417  1.00  0.00     0.153 A 
BRANCH  21  24
HETATM   24  C   UNL     1     -42.637  56.523 -57.772  1.00  0.00     0.058 A 
HETATM   25  C   UNL     1     -42.274  57.871 -57.636  1.00  0.00     0.031 A 
HETATM   26  C   UNL     1     -42.336  58.728 -58.739  1.00  0.00     0.002 A 
HETATM   27  C   UNL     1     -42.761  58.250 -59.977  1.00  0.00     0.000 A 
HETATM   28  C   UNL     1     -43.121  56.913 -60.121  1.00  0.00     0.002 A 
HETATM   29  C   UNL     1     -43.059  56.050 -59.025  1.00  0.00     0.031 A 
ENDBRANCH  21  24
ENDBRANCH   6  19
BRANCH   5  30
HETATM   30  C   UNL     1     -40.204  52.172 -53.886  1.00  0.00     0.435 C 
HETATM   31  F   UNL     1     -39.521  52.647 -54.961  1.00  0.00    -0.165 F 
HETATM   32  F   UNL     1     -39.328  51.432 -53.165  1.00  0.00    -0.165 F 
HETATM   33  F   UNL     1     -41.145  51.325 -54.370  1.00  0.00    -0.165 F 
ENDBRANCH   5  30
TORSDOF 7
ENDMDL
MODEL 7
REMARK VINA RESULT:      -8.1      3.286      7.181
REMARK  7 active torsions:
REMARK  status: ('A' for Active; 'I' for Inactive)
REMARK    1  A    between atoms: C_2  and  C_3 
REMARK    2  A    between atoms: C_4  and  O_5 
REMARK    3  A    between atoms: C_7  and  O_8 
REMARK    4  A    between atoms: C_9  and  C_10 
REMARK    5  A    between atoms: C_14  and  C_15 
REMARK    6  A    between atoms: C_19  and  C_20 
REMARK    7  A    between atoms: N_22  and  C_23 
ROOT
HETATM    1  C   UNL     1     -41.643  55.505 -52.304  1.00  0.00     0.103 A 
HETATM    2  N   UNL     1     -41.208  54.616 -51.387  1.00  0.00    -0.173 NA
HETATM    3  N   UNL     1     -40.760  53.579 -52.102  1.00  0.00    -0.272 N 
HETATM    4  H   UNL     1     -40.358  52.791 -51.602  1.00  0.00     0.189 HD
HETATM    5  C   UNL     1     -40.936  53.715 -53.443  1.00  0.00     0.147 A 
HETATM    6  C   UNL     1     -41.526  54.949 -53.618  1.00  0.00     0.042 A 
ENDROOT
BRANCH   1   7
HETATM    7  C   UNL     1     -42.168  56.800 -51.861  1.00  0.00     0.029 A 
HETATM    8  C   UNL     1     -43.520  57.148 -51.956  1.00  0.00     0.081 A 
HETATM    9  C   UNL     1     -43.971  58.382 -51.483  1.00  0.00     0.074 A 
HETATM   10  C   UNL     1     -43.067  59.295 -50.942  1.00  0.00     0.074 A 
HETATM   11  C   UNL     1     -41.700  59.009 -50.882  1.00  0.00    -0.024 A 
HETATM   12  C   UNL     1     -41.270  57.747 -51.334  1.00  0.00     0.026 A 
BRANCH   8  13
HETATM   13  O   UNL     1     -44.417  56.289 -52.531  1.00  0.00    -0.360 OA
HETATM   14  H   UNL     1     -45.262  56.752 -52.657  1.00  0.00     0.217 HD
ENDBRANCH   8  13
BRANCH  10  15
HETATM   15  O   UNL     1     -43.606  60.466 -50.492  1.00  0.00    -0.360 OA
HETATM   16  H   UNL     1     -44.499  60.301 -50.150  1.00  0.00     0.217 HD
ENDBRANCH  10  15
BRANCH  11  17
HETATM   17  C   UNL     1     -40.668  59.977 -50.358  1.00  0.00     0.037 C 
HETATM   18  C   UNL     1     -39.249  59.500 -50.627  1.00  0.00     0.010 C 
ENDBRANCH  11  17
ENDBRANCH   1   7
BRANCH   6  19
HETATM   19  C   UNL     1     -41.944  55.543 -54.880  1.00  0.00     0.016 A 
HETATM   20  C   UNL     1     -42.689  54.970 -55.882  1.00  0.00     0.132 A 
HETATM   21  N   UNL     1     -42.792  55.904 -56.893  1.00  0.00    -0.245 N 
HETATM   22  N   UNL     1     -42.184  57.072 -56.548  1.00  0.00    -0.179 NA
HETATM   23  C   UNL     1     -41.674  56.841 -55.337  1.00  0.00     0.153 A 
BRANCH  21  24
HETATM   24  C   UNL     1     -43.416  55.750 -58.164  1.00  0.00     0.058 A 
HETATM   25  C   UNL     1     -43.920  54.510 -58.583  1.00  0.00     0.031 A 
HETATM   26  C   UNL     1     -44.515  54.384 -59.842  1.00  0.00     0.002 A 
HETATM   27  C   UNL     1     -44.610  55.488 -60.688  1.00  0.00     0.000 A 
HETATM   28  C   UNL     1     -44.113  56.724 -60.278  1.00  0.00     0.002 A 
HETATM   29  C   UNL     1     -43.520  56.857 -59.020  1.00  0.00     0.031 A 
ENDBRANCH  21  24
ENDBRANCH   6  19
BRANCH   5  30
HETATM   30  C   UNL     1     -40.539  52.639 -54.354  1.00  0.00     0.435 C 
HETATM   31  F   UNL     1     -39.976  53.134 -55.488  1.00  0.00    -0.165 F 
HETATM   32  F   UNL     1     -39.627  51.803 -53.801  1.00  0.00    -0.165 F 
HETATM   33  F   UNL     1     -41.594  51.883 -54.745  1.00  0.00    -0.165 F 
ENDBRANCH   5  30
TORSDOF 7
ENDMDL
MODEL 8
REMARK VINA RESULT:      -8.0      2.495      3.403
REMARK  7 active torsions:
REMARK  status: ('A' for Active; 'I' for Inactive)
REMARK    1  A    between atoms: C_2  and  C_3 
REMARK    2  A    between atoms: C_4  and  O_5 
REMARK    3  A    between atoms: C_7  and  O_8 
REMARK    4  A    between atoms: C_9  and  C_10 
REMARK    5  A    between atoms: C_14  and  C_15 
REMARK    6  A    between atoms: C_19  and  C_20 
REMARK    7  A    between atoms: N_22  and  C_23 
ROOT
HETATM    1  C   UNL     1     -43.350  58.931 -57.140  1.00  0.00     0.103 A 
HETATM    2  N   UNL     1     -43.371  60.264 -57.341  1.00  0.00    -0.173 NA
HETATM    3  N   UNL     1     -43.001  60.792 -56.169  1.00  0.00    -0.272 N 
HETATM    4  H   UNL     1     -42.925  61.804 -56.102  1.00  0.00     0.189 HD
HETATM    5  C   UNL     1     -42.797  59.873 -55.189  1.00  0.00     0.147 A 
HETATM    6  C   UNL     1     -43.032  58.646 -55.774  1.00  0.00     0.042 A 
ENDROOT
BRANCH   1   7
HETATM    7  C   UNL     1     -43.665  58.029 -58.252  1.00  0.00     0.029 A 
HETATM    8  C   UNL     1     -42.684  57.428 -59.048  1.00  0.00     0.081 A 
HETATM    9  C   UNL     1     -43.039  56.547 -60.070  1.00  0.00     0.074 A 
HETATM   10  C   UNL     1     -44.384  56.283 -60.329  1.00  0.00     0.074 A 
HETATM   11  C   UNL     1     -45.397  56.907 -59.593  1.00  0.00    -0.024 A 
HETATM   12  C   UNL     1     -45.016  57.768 -58.547  1.00  0.00     0.026 A 
BRANCH   8  13
HETATM   13  O   UNL     1     -41.360  57.712 -58.848  1.00  0.00    -0.360 OA
HETATM   14  H   UNL     1     -41.136  57.539 -57.918  1.00  0.00     0.217 HD
ENDBRANCH   8  13
BRANCH  10  15
HETATM   15  O   UNL     1     -44.630  55.395 -61.337  1.00  0.00    -0.360 OA
HETATM   16  H   UNL     1     -43.983  55.523 -62.047  1.00  0.00     0.217 HD
ENDBRANCH  10  15
BRANCH  11  17
HETATM   17  C   UNL     1     -46.867  56.704 -59.862  1.00  0.00     0.037 C 
HETATM   18  C   UNL     1     -47.393  57.666 -60.916  1.00  0.00     0.010 C 
ENDBRANCH  11  17
ENDBRANCH   1   7
BRANCH   6  19
HETATM   19  C   UNL     1     -42.974  57.346 -55.122  1.00  0.00     0.016 A 
HETATM   20  C   UNL     1     -41.861  56.614 -54.785  1.00  0.00     0.132 A 
HETATM   21  N   UNL     1     -42.308  55.433 -54.228  1.00  0.00    -0.245 N 
HETATM   22  N   UNL     1     -43.667  55.409 -54.150  1.00  0.00    -0.179 NA
HETATM   23  C   UNL     1     -44.057  56.562 -54.695  1.00  0.00     0.153 A 
BRANCH  21  24
HETATM   24  C   UNL     1     -41.528  54.328 -53.782  1.00  0.00     0.058 A 
HETATM   25  C   UNL     1     -41.350  54.066 -52.416  1.00  0.00     0.031 A 
HETATM   26  C   UNL     1     -40.566  52.982 -52.007  1.00  0.00     0.002 A 
HETATM   27  C   UNL     1     -39.958  52.159 -52.952  1.00  0.00     0.000 A 
HETATM   28  C   UNL     1     -40.132  52.411 -54.310  1.00  0.00     0.002 A 
HETATM   29  C   UNL     1     -40.915  53.490 -54.727  1.00  0.00     0.031 A 
ENDBRANCH  21  24
ENDBRANCH   6  19
BRANCH   5  30
HETATM   30  C   UNL     1     -42.434  60.302 -53.837  1.00  0.00     0.435 C 
HETATM   31  F   UNL     1     -43.319  59.837 -52.916  1.00  0.00    -0.165 F 
HETATM   32  F   UNL     1     -41.212  59.854 -53.462  1.00  0.00    -0.165 F 
HETATM   33  F   UNL     1     -42.423  61.652 -53.714  1.00  0.00    -0.165 F 
ENDBRANCH   5  30
TORSDOF 7
ENDMDL
MODEL 9
REMARK VINA RESULT:      -7.7      1.945      3.061
REMARK  7 active torsions:
REMARK  status: ('A' for Active; 'I' for Inactive)
REMARK    1  A    between atoms: C_2  and  C_3 
REMARK    2  A    between atoms: C_4  and  O_5 
REMARK    3  A    between atoms: C_7  and  O_8 
REMARK    4  A    between atoms: C_9  and  C_10 
REMARK    5  A    between atoms: C_14  and  C_15 
REMARK    6  A    between atoms: C_19  and  C_20 
REMARK    7  A    between atoms: N_22  and  C_23 
ROOT
HETATM    1  C   UNL     1     -44.106  58.699 -55.720  1.00  0.00     0.103 A 
HETATM    2  N   UNL     1     -45.264  59.384 -55.627  1.00  0.00    -0.173 NA
HETATM    3  N   UNL     1     -45.565  59.371 -54.324  1.00  0.00    -0.272 N 
HETATM    4  H   UNL     1     -46.403  59.860 -54.021  1.00  0.00     0.189 HD
HETATM    5  C   UNL     1     -44.693  58.659 -53.562  1.00  0.00     0.147 A 
HETATM    6  C   UNL     1     -43.735  58.187 -54.435  1.00  0.00     0.042 A 
ENDROOT
BRANCH   1   7
HETATM    7  C   UNL     1     -43.455  58.555 -57.026  1.00  0.00     0.029 A 
HETATM    8  C   UNL     1     -43.397  57.341 -57.719  1.00  0.00     0.081 A 
HETATM    9  C   UNL     1     -42.798  57.269 -58.978  1.00  0.00     0.074 A 
HETATM   10  C   UNL     1     -42.220  58.406 -59.542  1.00  0.00     0.074 A 
HETATM   11  C   UNL     1     -42.207  59.625 -58.857  1.00  0.00    -0.024 A 
HETATM   12  C   UNL     1     -42.844  59.684 -57.603  1.00  0.00     0.026 A 
BRANCH   8  13
HETATM   13  O   UNL     1     -43.910  56.201 -57.162  1.00  0.00    -0.360 OA
HETATM   14  H   UNL     1     -44.599  56.444 -56.521  1.00  0.00     0.217 HD
ENDBRANCH   8  13
BRANCH  10  15
HETATM   15  O   UNL     1     -41.674  58.239 -60.783  1.00  0.00    -0.360 OA
HETATM   16  H   UNL     1     -41.639  57.294 -60.996  1.00  0.00     0.217 HD
ENDBRANCH  10  15
BRANCH  11  17
HETATM   17  C   UNL     1     -41.550  60.874 -59.391  1.00  0.00     0.037 C 
HETATM   18  C   UNL     1     -40.810  61.639 -58.305  1.00  0.00     0.010 C 
ENDBRANCH  11  17
ENDBRANCH   1   7
BRANCH   6  19
HETATM   19  C   UNL     1     -42.598  57.340 -54.105  1.00  0.00     0.016 A 
HETATM   20  C   UNL     1     -42.553  55.969 -54.033  1.00  0.00     0.132 A 
HETATM   21  N   UNL     1     -41.274  55.626 -53.644  1.00  0.00    -0.245 N 
HETATM   22  N   UNL     1     -40.487  56.729 -53.517  1.00  0.00    -0.179 NA
HETATM   23  C   UNL     1     -41.295  57.754 -53.792  1.00  0.00     0.153 A 
BRANCH  21  24
HETATM   24  C   UNL     1     -40.763  54.325 -53.375  1.00  0.00     0.058 A 
HETATM   25  C   UNL     1     -40.460  53.431 -54.412  1.00  0.00     0.031 A 
HETATM   26  C   UNL     1     -39.973  52.153 -54.117  1.00  0.00     0.002 A 
HETATM   27  C   UNL     1     -39.789  51.760 -52.793  1.00  0.00     0.000 A 
HETATM   28  C   UNL     1     -40.086  52.643 -51.757  1.00  0.00     0.002 A 
HETATM   29  C   UNL     1     -40.570  53.921 -52.044  1.00  0.00     0.031 A 
ENDBRANCH  21  24
ENDBRANCH   6  19
BRANCH   5  30
HETATM   30  C   UNL     1     -44.917  58.514 -52.123  1.00  0.00     0.435 C 
HETATM   31  F   UNL     1     -43.842  58.943 -51.410  1.00  0.00    -0.165 F 
HETATM   32  F   UNL     1     -45.981  59.231 -51.690  1.00  0.00    -0.165 F 
HETATM   33  F   UNL     1     -45.126  57.224 -51.764  1.00  0.00    -0.165 F 
ENDBRANCH   5  30
TORSDOF 7
ENDMDL
MODEL 10
REMARK VINA RESULT:      -7.7      2.528      3.104
REMARK  7 active torsions:
REMARK  status: ('A' for Active; 'I' for Inactive)
REMARK    1  A    between atoms: C_2  and  C_3 
REMARK    2  A    between atoms: C_4  and  O_5 
REMARK    3  A    between atoms: C_7  and  O_8 
REMARK    4  A    between atoms: C_9  and  C_10 
REMARK    5  A    between atoms: C_14  and  C_15 
REMARK    6  A    between atoms: C_19  and  C_20 
REMARK    7  A    between atoms: N_22  and  C_23 
ROOT
HETATM    1  C   UNL     1     -42.978  58.754 -55.072  1.00  0.00     0.103 A 
HETATM    2  N   UNL     1     -42.841  60.091 -54.957  1.00  0.00    -0.173 NA
HETATM    3  N   UNL     1     -42.113  60.266 -53.849  1.00  0.00    -0.272 N 
HETATM    4  H   UNL     1     -41.867  61.216 -53.583  1.00  0.00     0.189 HD
HETATM    5  C   UNL     1     -41.817  59.112 -53.195  1.00  0.00     0.147 A 
HETATM    6  C   UNL     1     -42.377  58.102 -53.947  1.00  0.00     0.042 A 
ENDROOT
BRANCH   1   7
HETATM    7  C   UNL     1     -43.697  58.198 -56.222  1.00  0.00     0.029 A 
HETATM    8  C   UNL     1     -43.093  57.360 -57.166  1.00  0.00     0.081 A 
HETATM    9  C   UNL     1     -43.835  56.828 -58.222  1.00  0.00     0.074 A 
HETATM   10  C   UNL     1     -45.183  57.156 -58.363  1.00  0.00     0.074 A 
HETATM   11  C   UNL     1     -45.809  58.035 -57.474  1.00  0.00    -0.024 A 
HETATM   12  C   UNL     1     -45.052  58.536 -56.399  1.00  0.00     0.026 A 
BRANCH   8  13
HETATM   13  O   UNL     1     -41.759  57.066 -57.078  1.00  0.00    -0.360 OA
HETATM   14  H   UNL     1     -41.405  57.446 -56.257  1.00  0.00     0.217 HD
ENDBRANCH   8  13
BRANCH  10  15
HETATM   15  O   UNL     1     -45.827  56.573 -59.417  1.00  0.00    -0.360 OA
HETATM   16  H   UNL     1     -45.287  56.664 -60.217  1.00  0.00     0.217 HD
ENDBRANCH  10  15
BRANCH  11  17
HETATM   17  C   UNL     1     -47.248  58.471 -57.607  1.00  0.00     0.037 C 
HETATM   18  C   UNL     1     -47.370  59.962 -57.881  1.00  0.00     0.010 C 
ENDBRANCH  11  17
ENDBRANCH   1   7
BRANCH   6  19
HETATM   19  C   UNL     1     -42.361  56.678 -53.644  1.00  0.00     0.016 A 
HETATM   20  C   UNL     1     -41.279  55.834 -53.590  1.00  0.00     0.132 A 
HETATM   21  N   UNL     1     -41.763  54.573 -53.308  1.00  0.00    -0.245 N 
HETATM   22  N   UNL     1     -43.112  54.593 -53.127  1.00  0.00    -0.179 NA
HETATM   23  C   UNL     1     -43.462  55.864 -53.337  1.00  0.00     0.153 A 
BRANCH  21  24
HETATM   24  C   UNL     1     -41.029  53.356 -53.214  1.00  0.00     0.058 A 
HETATM   25  C   UNL     1     -40.345  53.006 -52.040  1.00  0.00     0.031 A 
HETATM   26  C   UNL     1     -39.620  51.812 -51.981  1.00  0.00     0.002 A 
HETATM   27  C   UNL     1     -39.571  50.964 -53.086  1.00  0.00     0.000 A 
HETATM   28  C   UNL     1     -40.249  51.304 -54.255  1.00  0.00     0.002 A 
HETATM   29  C   UNL     1     -40.978  52.494 -54.320  1.00  0.00     0.031 A 
ENDBRANCH  21  24
ENDBRANCH   6  19
BRANCH   5  30
HETATM   30  C   UNL     1     -41.065  59.147 -51.938  1.00  0.00     0.435 C 
HETATM   31  F   UNL     1     -41.290  60.304 -51.261  1.00  0.00    -0.165 F 
HETATM   32  F   UNL     1     -41.405  58.135 -51.103  1.00  0.00    -0.165 F 
HETATM   33  F   UNL     1     -39.727  59.071 -52.139  1.00  0.00    -0.165 F 
ENDBRANCH   5  30
TORSDOF 7
ENDMDL
