MODEL 1
REMARK VINA RESULT:      -7.8      0.000      0.000
REMARK  5 active torsions:
REMARK  status: ('A' for Active; 'I' for Inactive)
REMARK    1  A    between atoms: C_8  and  N_9 
REMARK       I    between atoms: N_9  and  C_10 
REMARK       I    between atoms: C_10  and  N_11 
REMARK    2  A    between atoms: N_11  and  C_12 
REMARK    3  A    between atoms: C_13  and  O_14 
REMARK    4  A    between atoms: O_14  and  C_15 
REMARK    5  A    between atoms: C_15  and  C_16 
ROOT
HETATM    1  N   UNL     1     -41.532  56.120 -52.831  1.00  0.00    -0.305 N 
HETATM    2  C   UNL     1     -41.682  54.746 -52.788  1.00  0.00     0.325 C 
HETATM    3  N   UNL     1     -40.558  54.128 -53.304  1.00  0.00    -0.306 N 
HETATM    4  O   UNL     1     -42.660  54.156 -52.348  1.00  0.00    -0.247 OA
HETATM    5  H   UNL     1     -40.587  56.455 -52.721  1.00  0.00     0.171 HD
HETATM    6  H   UNL     1     -40.049  54.652 -54.004  1.00  0.00     0.171 HD
ENDROOT
BRANCH   3   7
HETATM    7  C   UNL     1     -40.241  52.755 -53.223  1.00  0.00     0.070 A 
HETATM    8  C   UNL     1     -39.708  52.275 -52.015  1.00  0.00     0.098 A 
HETATM    9  C   UNL     1     -39.439  50.918 -51.837  1.00  0.00     0.081 A 
HETATM   10  C   UNL     1     -39.677  50.044 -52.889  1.00  0.00     0.119 A 
HETATM   11  F   UNL     1     -39.418  48.740 -52.730  1.00  0.00    -0.206 F 
HETATM   12  C   UNL     1     -40.181  50.499 -54.102  1.00  0.00     0.044 A 
HETATM   13  C   UNL     1     -40.467  51.858 -54.270  1.00  0.00     0.035 A 
BRANCH   8  14
HETATM   14  O   UNL     1     -39.477  53.175 -51.002  1.00  0.00    -0.340 OA
BRANCH  14  15
HETATM   15  C   UNL     1     -40.375  52.950 -49.897  1.00  0.00     0.293 C 
BRANCH  15  16
HETATM   16  C   UNL     1     -40.718  54.271 -49.226  1.00  0.00     0.408 C 
HETATM   17  F   UNL     1     -40.376  54.260 -47.917  1.00  0.00    -0.169 F 
HETATM   18  F   UNL     1     -40.082  55.308 -49.812  1.00  0.00    -0.169 F 
HETATM   19  F   UNL     1     -42.047  54.514 -49.299  1.00  0.00    -0.169 F 
ENDBRANCH  15  16
ENDBRANCH  14  15
ENDBRANCH   8  14
ENDBRANCH   3   7
BRANCH   1  20
HETATM   20  C   UNL     1     -42.541  57.036 -52.587  1.00  0.00     0.086 A 
HETATM   21  C   UNL     1     -42.449  58.012 -51.614  1.00  0.00     0.052 A 
HETATM   22  C   UNL     1     -41.409  58.332 -50.611  1.00  0.00     0.072 C 
HETATM   23  N   UNL     1     -43.622  58.711 -51.683  1.00  0.00    -0.280 N 
HETATM   24  H   UNL     1     -43.921  59.491 -51.107  1.00  0.00     0.189 HD
HETATM   25  N   UNL     1     -44.448  58.293 -52.648  1.00  0.00    -0.177 NA
HETATM   26  C   UNL     1     -43.798  57.267 -53.216  1.00  0.00     0.079 A 
HETATM   27  C   UNL     1     -44.410  56.599 -54.393  1.00  0.00     0.075 C 
ENDBRANCH   1  20
TORSDOF 5
ENDMDL
MODEL 2
REMARK VINA RESULT:      -7.7      3.076      3.970
REMARK  5 active torsions:
REMARK  status: ('A' for Active; 'I' for Inactive)
REMARK    1  A    between atoms: C_8  and  N_9 
REMARK       I    between atoms: N_9  and  C_10 
REMARK       I    between atoms: C_10  and  N_11 
REMARK    2  A    between atoms: N_11  and  C_12 
REMARK    3  A    between atoms: C_13  and  O_14 
REMARK    4  A    between atoms: O_14  and  C_15 
REMARK    5  A    between atoms: C_15  and  C_16 
ROOT
HETATM    1  N   UNL     1     -42.160  56.200 -56.384  1.00  0.00    -0.305 N 
HETATM    2  C   UNL     1     -42.118  55.014 -55.676  1.00  0.00     0.325 C 
HETATM    3  N   UNL     1     -40.837  54.781 -55.209  1.00  0.00    -0.306 N 
HETATM    4  O   UNL     1     -43.075  54.276 -55.477  1.00  0.00    -0.247 OA
HETATM    5  H   UNL     1     -41.523  56.915 -56.067  1.00  0.00     0.171 HD
HETATM    6  H   UNL     1     -40.088  55.171 -55.767  1.00  0.00     0.171 HD
ENDROOT
BRANCH   3   7
HETATM    7  C   UNL     1     -40.449  53.805 -54.268  1.00  0.00     0.070 A 
HETATM    8  C   UNL     1     -40.584  54.117 -52.904  1.00  0.00     0.098 A 
HETATM    9  C   UNL     1     -40.290  53.176 -51.919  1.00  0.00     0.081 A 
HETATM   10  C   UNL     1     -39.826  51.925 -52.303  1.00  0.00     0.119 A 
HETATM   11  F   UNL     1     -39.536  51.015 -51.364  1.00  0.00    -0.206 F 
HETATM   12  C   UNL     1     -39.660  51.601 -53.645  1.00  0.00     0.044 A 
HETATM   13  C   UNL     1     -39.975  52.541 -54.631  1.00  0.00     0.035 A 
BRANCH   8  14
HETATM   14  O   UNL     1     -41.037  55.371 -52.566  1.00  0.00    -0.340 OA
BRANCH  14  15
HETATM   15  C   UNL     1     -41.826  55.327 -51.360  1.00  0.00     0.293 C 
BRANCH  15  16
HETATM   16  C   UNL     1     -43.302  55.214 -51.706  1.00  0.00     0.408 C 
HETATM   17  F   UNL     1     -43.652  53.931 -51.953  1.00  0.00    -0.169 F 
HETATM   18  F   UNL     1     -44.085  55.673 -50.706  1.00  0.00    -0.169 F 
HETATM   19  F   UNL     1     -43.590  55.937 -52.814  1.00  0.00    -0.169 F 
ENDBRANCH  15  16
ENDBRANCH  14  15
ENDBRANCH   8  14
ENDBRANCH   3   7
BRANCH   1  20
HETATM   20  C   UNL     1     -43.228  56.628 -57.154  1.00  0.00     0.086 A 
HETATM   21  C   UNL     1     -44.260  57.393 -56.647  1.00  0.00     0.052 A 
HETATM   22  C   UNL     1     -44.557  57.901 -55.290  1.00  0.00     0.072 C 
HETATM   23  N   UNL     1     -45.105  57.613 -57.700  1.00  0.00    -0.280 N 
HETATM   24  H   UNL     1     -45.983  58.121 -57.702  1.00  0.00     0.189 HD
HETATM   25  N   UNL     1     -44.683  57.088 -58.855  1.00  0.00    -0.177 NA
HETATM   26  C   UNL     1     -43.529  56.481 -58.539  1.00  0.00     0.079 A 
HETATM   27  C   UNL     1     -42.740  55.841 -59.621  1.00  0.00     0.075 C 
ENDBRANCH   1  20
TORSDOF 5
ENDMDL
MODEL 3
REMARK VINA RESULT:      -7.5      1.631      2.516
REMARK  5 active torsions:
REMARK  status: ('A' for Active; 'I' for Inactive)
REMARK    1  A    between atoms: C_8  and  N_9 
REMARK       I    between atoms: N_9  and  C_10 
REMARK       I    between atoms: C_10  and  N_11 
REMARK    2  A    between atoms: N_11  and  C_12 
REMARK    3  A    between atoms: C_13  and  O_14 
REMARK    4  A    between atoms: O_14  and  C_15 
REMARK    5  A    between atoms: C_15  and  C_16 
ROOT
HETATM    1  N   UNL     1     -42.034  55.895 -54.571  1.00  0.00    -0.305 N 
HETATM    2  C   UNL     1     -42.033  54.577 -54.154  1.00  0.00     0.325 C 
HETATM    3  N   UNL     1     -40.738  54.095 -54.100  1.00  0.00    -0.306 N 
HETATM    4  O   UNL     1     -43.029  53.929 -53.862  1.00  0.00    -0.247 OA
HETATM    5  H   UNL     1     -41.228  56.436 -54.297  1.00  0.00     0.171 HD
HETATM    6  H   UNL     1     -40.083  54.518 -54.745  1.00  0.00     0.171 HD
ENDROOT
BRANCH   3   7
HETATM    7  C   UNL     1     -40.315  52.884 -53.512  1.00  0.00     0.070 A 
HETATM    8  C   UNL     1     -40.106  52.868 -52.122  1.00  0.00     0.098 A 
HETATM    9  C   UNL     1     -39.759  51.690 -51.462  1.00  0.00     0.081 A 
HETATM   10  C   UNL     1     -39.588  50.529 -52.205  1.00  0.00     0.119 A 
HETATM   11  F   UNL     1     -39.250  49.394 -51.582  1.00  0.00    -0.206 F 
HETATM   12  C   UNL     1     -39.764  50.527 -53.585  1.00  0.00     0.044 A 
HETATM   13  C   UNL     1     -40.132  51.706 -54.241  1.00  0.00     0.035 A 
BRANCH   8  14
HETATM   14  O   UNL     1     -40.276  54.040 -51.425  1.00  0.00    -0.340 OA
BRANCH  14  15
HETATM   15  C   UNL     1     -41.252  53.881 -50.376  1.00  0.00     0.293 C 
BRANCH  15  16
HETATM   16  C   UNL     1     -40.617  54.161 -49.024  1.00  0.00     0.408 C 
HETATM   17  F   UNL     1     -41.160  55.256 -48.444  1.00  0.00    -0.169 F 
HETATM   18  F   UNL     1     -40.772  53.122 -48.175  1.00  0.00    -0.169 F 
HETATM   19  F   UNL     1     -39.289  54.385 -49.157  1.00  0.00    -0.169 F 
ENDBRANCH  15  16
ENDBRANCH  14  15
ENDBRANCH   8  14
ENDBRANCH   3   7
BRANCH   1  20
HETATM   20  C   UNL     1     -43.162  56.614 -54.929  1.00  0.00     0.086 A 
HETATM   21  C   UNL     1     -43.572  56.765 -56.238  1.00  0.00     0.052 A 
HETATM   22  C   UNL     1     -42.998  56.314 -57.526  1.00  0.00     0.072 C 
HETATM   23  N   UNL     1     -44.709  57.521 -56.183  1.00  0.00    -0.280 N 
HETATM   24  H   UNL     1     -45.280  57.851 -56.954  1.00  0.00     0.189 HD
HETATM   25  N   UNL     1     -45.091  57.838 -54.941  1.00  0.00    -0.177 NA
HETATM   26  C   UNL     1     -44.153  57.286 -54.157  1.00  0.00     0.079 A 
HETATM   27  C   UNL     1     -44.306  57.386 -52.684  1.00  0.00     0.075 C 
ENDBRANCH   1  20
TORSDOF 5
ENDMDL
MODEL 4
REMARK VINA RESULT:      -7.5      4.031      6.081
REMARK  5 active torsions:
REMARK  status: ('A' for Active; 'I' for Inactive)
REMARK    1  A    between atoms: C_8  and  N_9 
REMARK       I    between atoms: N_9  and  C_10 
REMARK       I    between atoms: C_10  and  N_11 
REMARK    2  A    between atoms: N_11  and  C_12 
REMARK    3  A    between atoms: C_13  and  O_14 
REMARK    4  A    between atoms: O_14  and  C_15 
REMARK    5  A    between atoms: C_15  and  C_16 
ROOT
HETATM    1  N   UNL     1     -42.313  55.732 -57.967  1.00  0.00    -0.305 N 
HETATM    2  C   UNL     1     -42.651  55.759 -56.627  1.00  0.00     0.325 C 
HETATM    3  N   UNL     1     -41.679  55.122 -55.877  1.00  0.00    -0.306 N 
HETATM    4  O   UNL     1     -43.657  56.280 -56.163  1.00  0.00    -0.247 OA
HETATM    5  H   UNL     1     -41.324  55.757 -58.164  1.00  0.00     0.171 HD
HETATM    6  H   UNL     1     -41.169  54.387 -56.350  1.00  0.00     0.171 HD
ENDROOT
BRANCH   3   7
HETATM    7  C   UNL     1     -41.554  55.141 -54.472  1.00  0.00     0.070 A 
HETATM    8  C   UNL     1     -41.329  53.918 -53.817  1.00  0.00     0.098 A 
HETATM    9  C   UNL     1     -41.122  53.868 -52.439  1.00  0.00     0.081 A 
HETATM   10  C   UNL     1     -41.174  55.048 -51.709  1.00  0.00     0.119 A 
HETATM   11  F   UNL     1     -40.981  55.011 -50.385  1.00  0.00    -0.206 F 
HETATM   12  C   UNL     1     -41.420  56.267 -52.332  1.00  0.00     0.044 A 
HETATM   13  C   UNL     1     -41.607  56.316 -53.717  1.00  0.00     0.035 A 
BRANCH   8  14
HETATM   14  O   UNL     1     -41.295  52.771 -54.574  1.00  0.00    -0.340 OA
BRANCH  14  15
HETATM   15  C   UNL     1     -40.048  52.071 -54.396  1.00  0.00     0.293 C 
BRANCH  15  16
HETATM   16  C   UNL     1     -40.298  50.574 -54.301  1.00  0.00     0.408 C 
HETATM   17  F   UNL     1     -41.568  50.266 -54.653  1.00  0.00    -0.169 F 
HETATM   18  F   UNL     1     -39.465  49.877 -55.103  1.00  0.00    -0.169 F 
HETATM   19  F   UNL     1     -40.107  50.136 -53.035  1.00  0.00    -0.169 F 
ENDBRANCH  15  16
ENDBRANCH  14  15
ENDBRANCH   8  14
ENDBRANCH   3   7
BRANCH   1  20
HETATM   20  C   UNL     1     -43.155  56.094 -59.005  1.00  0.00     0.086 A 
HETATM   21  C   UNL     1     -43.085  57.321 -59.635  1.00  0.00     0.052 A 
HETATM   22  C   UNL     1     -42.240  58.514 -59.412  1.00  0.00     0.072 C 
HETATM   23  N   UNL     1     -44.060  57.297 -60.594  1.00  0.00    -0.280 N 
HETATM   24  H   UNL     1     -44.318  58.033 -61.242  1.00  0.00     0.189 HD
HETATM   25  N   UNL     1     -44.727  56.140 -60.662  1.00  0.00    -0.177 NA
HETATM   26  C   UNL     1     -44.181  55.387 -59.695  1.00  0.00     0.079 A 
HETATM   27  C   UNL     1     -44.646  53.987 -59.534  1.00  0.00     0.075 C 
ENDBRANCH   1  20
TORSDOF 5
ENDMDL
MODEL 5
REMARK VINA RESULT:      -7.5      1.931      2.195
REMARK  5 active torsions:
REMARK  status: ('A' for Active; 'I' for Inactive)
REMARK    1  A    between atoms: C_8  and  N_9 
REMARK       I    between atoms: N_9  and  C_10 
REMARK       I    between atoms: C_10  and  N_11 
REMARK    2  A    between atoms: N_11  and  C_12 
REMARK    3  A    between atoms: C_13  and  O_14 
REMARK    4  A    between atoms: O_14  and  C_15 
REMARK    5  A    between atoms: C_15  and  C_16 
ROOT
HETATM    1  N   UNL     1     -41.078  55.503 -55.099  1.00  0.00    -0.305 N 
HETATM    2  C   UNL     1     -41.345  54.262 -54.551  1.00  0.00     0.325 C 
HETATM    3  N   UNL     1     -40.184  53.515 -54.472  1.00  0.00    -0.306 N 
HETATM    4  O   UNL     1     -42.446  53.878 -54.178  1.00  0.00    -0.247 OA
HETATM    5  H   UNL     1     -40.164  55.877 -54.895  1.00  0.00     0.171 HD
HETATM    6  H   UNL     1     -39.479  53.722 -55.168  1.00  0.00     0.171 HD
ENDROOT
BRANCH   3   7
HETATM    7  C   UNL     1     -40.010  52.302 -53.773  1.00  0.00     0.070 A 
HETATM    8  C   UNL     1     -39.870  52.365 -52.375  1.00  0.00     0.098 A 
HETATM    9  C   UNL     1     -39.768  51.204 -51.611  1.00  0.00     0.081 A 
HETATM   10  C   UNL     1     -39.773  49.973 -52.255  1.00  0.00     0.119 A 
HETATM   11  F   UNL     1     -39.671  48.852 -51.531  1.00  0.00    -0.206 F 
HETATM   12  C   UNL     1     -39.885  49.887 -53.638  1.00  0.00     0.044 A 
HETATM   13  C   UNL     1     -40.008  51.054 -54.400  1.00  0.00     0.035 A 
BRANCH   8  14
HETATM   14  O   UNL     1     -39.859  53.603 -51.777  1.00  0.00    -0.340 OA
BRANCH  14  15
HETATM   15  C   UNL     1     -40.918  53.716 -50.805  1.00  0.00     0.293 C 
BRANCH  15  16
HETATM   16  C   UNL     1     -40.346  54.128 -49.458  1.00  0.00     0.408 C 
HETATM   17  F   UNL     1     -40.469  53.134 -48.548  1.00  0.00    -0.169 F 
HETATM   18  F   UNL     1     -39.037  54.448 -49.548  1.00  0.00    -0.169 F 
HETATM   19  F   UNL     1     -40.998  55.210 -48.972  1.00  0.00    -0.169 F 
ENDBRANCH  15  16
ENDBRANCH  14  15
ENDBRANCH   8  14
ENDBRANCH   3   7
BRANCH   1  20
HETATM   20  C   UNL     1     -42.037  56.414 -55.507  1.00  0.00     0.086 A 
HETATM   21  C   UNL     1     -42.275  57.601 -54.843  1.00  0.00     0.052 A 
HETATM   22  C   UNL     1     -41.701  58.195 -53.615  1.00  0.00     0.072 C 
HETATM   23  N   UNL     1     -43.275  58.219 -55.542  1.00  0.00    -0.280 N 
HETATM   24  H   UNL     1     -43.725  59.105 -55.339  1.00  0.00     0.189 HD
HETATM   25  N   UNL     1     -43.674  57.548 -56.627  1.00  0.00    -0.177 NA
HETATM   26  C   UNL     1     -42.922  56.437 -56.623  1.00  0.00     0.079 A 
HETATM   27  C   UNL     1     -43.059  55.479 -57.749  1.00  0.00     0.075 C 
ENDBRANCH   1  20
TORSDOF 5
ENDMDL
MODEL 6
REMARK VINA RESULT:      -7.2      2.760      3.724
REMARK  5 active torsions:
REMARK  status: ('A' for Active; 'I' for Inactive)
REMARK    1  A    between atoms: C_8  and  N_9 
REMARK       I    between atoms: N_9  and  C_10 
REMARK       I    between atoms: C_10  and  N_11 
REMARK    2  A    between atoms: N_11  and  C_12 
REMARK    3  A    between atoms: C_13  and  O_14 
REMARK    4  A    between atoms: O_14  and  C_15 
REMARK    5  A    between atoms: C_15  and  C_16 
ROOT
HETATM    1  N   UNL     1     -43.180  55.285 -56.195  1.00  0.00    -0.305 N 
HETATM    2  C   UNL     1     -42.103  54.994 -55.378  1.00  0.00     0.325 C 
HETATM    3  N   UNL     1     -42.336  53.824 -54.678  1.00  0.00    -0.306 N 
HETATM    4  O   UNL     1     -41.082  55.664 -55.292  1.00  0.00    -0.247 OA
HETATM    5  H   UNL     1     -43.676  54.484 -56.557  1.00  0.00     0.171 HD
HETATM    6  H   UNL     1     -43.307  53.614 -54.484  1.00  0.00     0.171 HD
ENDROOT
BRANCH   3   7
HETATM    7  C   UNL     1     -41.394  53.091 -53.928  1.00  0.00     0.070 A 
HETATM    8  C   UNL     1     -41.282  53.377 -52.556  1.00  0.00     0.098 A 
HETATM    9  C   UNL     1     -40.425  52.643 -51.736  1.00  0.00     0.081 A 
HETATM   10  C   UNL     1     -39.652  51.639 -52.303  1.00  0.00     0.119 A 
HETATM   11  F   UNL     1     -38.823  50.931 -51.526  1.00  0.00    -0.206 F 
HETATM   12  C   UNL     1     -39.727  51.354 -53.662  1.00  0.00     0.044 A 
HETATM   13  C   UNL     1     -40.602  52.079 -54.477  1.00  0.00     0.035 A 
BRANCH   8  14
HETATM   14  O   UNL     1     -42.058  54.387 -52.036  1.00  0.00    -0.340 OA
BRANCH  14  15
HETATM   15  C   UNL     1     -41.259  55.549 -51.738  1.00  0.00     0.293 C 
BRANCH  15  16
HETATM   16  C   UNL     1     -41.149  55.734 -50.233  1.00  0.00     0.408 C 
HETATM   17  F   UNL     1     -39.936  55.343 -49.778  1.00  0.00    -0.169 F 
HETATM   18  F   UNL     1     -41.330  57.023 -49.874  1.00  0.00    -0.169 F 
HETATM   19  F   UNL     1     -42.083  54.996 -49.591  1.00  0.00    -0.169 F 
ENDBRANCH  15  16
ENDBRANCH  14  15
ENDBRANCH   8  14
ENDBRANCH   3   7
BRANCH   1  20
HETATM   20  C   UNL     1     -43.364  56.478 -56.871  1.00  0.00     0.086 A 
HETATM   21  C   UNL     1     -43.397  56.563 -58.249  1.00  0.00     0.052 A 
HETATM   22  C   UNL     1     -43.221  55.556 -59.318  1.00  0.00     0.072 C 
HETATM   23  N   UNL     1     -43.600  57.885 -58.531  1.00  0.00    -0.280 N 
HETATM   24  H   UNL     1     -43.661  58.329 -59.441  1.00  0.00     0.189 HD
HETATM   25  N   UNL     1     -43.742  58.657 -57.447  1.00  0.00    -0.177 NA
HETATM   26  C   UNL     1     -43.603  57.808 -56.418  1.00  0.00     0.079 A 
HETATM   27  C   UNL     1     -43.776  58.327 -55.038  1.00  0.00     0.075 C 
ENDBRANCH   1  20
TORSDOF 5
ENDMDL
MODEL 7
REMARK VINA RESULT:      -7.1      1.890      2.737
REMARK  5 active torsions:
REMARK  status: ('A' for Active; 'I' for Inactive)
REMARK    1  A    between atoms: C_8  and  N_9 
REMARK       I    between atoms: N_9  and  C_10 
REMARK       I    between atoms: C_10  and  N_11 
REMARK    2  A    between atoms: N_11  and  C_12 
REMARK    3  A    between atoms: C_13  and  O_14 
REMARK    4  A    between atoms: O_14  and  C_15 
REMARK    5  A    between atoms: C_15  and  C_16 
ROOT
HETATM    1  N   UNL     1     -44.506  56.525 -53.544  1.00  0.00    -0.305 N 
HETATM    2  C   UNL     1     -43.202  56.068 -53.494  1.00  0.00     0.325 C 
HETATM    3  N   UNL     1     -43.183  54.705 -53.258  1.00  0.00    -0.306 N 
HETATM    4  O   UNL     1     -42.205  56.761 -53.648  1.00  0.00    -0.247 OA
HETATM    5  H   UNL     1     -45.181  55.867 -53.903  1.00  0.00     0.171 HD
HETATM    6  H   UNL     1     -43.965  54.339 -52.730  1.00  0.00     0.171 HD
ENDROOT
BRANCH   3   7
HETATM    7  C   UNL     1     -42.067  53.849 -53.363  1.00  0.00     0.070 A 
HETATM    8  C   UNL     1     -41.346  53.564 -52.190  1.00  0.00     0.098 A 
HETATM    9  C   UNL     1     -40.277  52.669 -52.204  1.00  0.00     0.081 A 
HETATM   10  C   UNL     1     -39.908  52.082 -53.407  1.00  0.00     0.119 A 
HETATM   11  F   UNL     1     -38.880  51.225 -53.432  1.00  0.00    -0.206 F 
HETATM   12  C   UNL     1     -40.591  52.368 -54.585  1.00  0.00     0.044 A 
HETATM   13  C   UNL     1     -41.675  53.250 -54.564  1.00  0.00     0.035 A 
BRANCH   8  14
HETATM   14  O   UNL     1     -41.736  54.174 -51.022  1.00  0.00    -0.340 OA
BRANCH  14  15
HETATM   15  C   UNL     1     -41.141  53.528 -49.878  1.00  0.00     0.293 C 
BRANCH  15  16
HETATM   16  C   UNL     1     -40.368  54.542 -49.050  1.00  0.00     0.408 C 
HETATM   17  F   UNL     1     -40.639  54.408 -47.732  1.00  0.00    -0.169 F 
HETATM   18  F   UNL     1     -39.035  54.409 -49.216  1.00  0.00    -0.169 F 
HETATM   19  F   UNL     1     -40.699  55.805 -49.408  1.00  0.00    -0.169 F 
ENDBRANCH  15  16
ENDBRANCH  14  15
ENDBRANCH   8  14
ENDBRANCH   3   7
BRANCH   1  20
HETATM   20  C   UNL     1     -44.880  57.858 -53.559  1.00  0.00     0.086 A 
HETATM   21  C   UNL     1     -45.167  58.544 -54.722  1.00  0.00     0.052 A 
HETATM   22  C   UNL     1     -45.130  58.155 -56.149  1.00  0.00     0.072 C 
HETATM   23  N   UNL     1     -45.495  59.812 -54.330  1.00  0.00    -0.280 N 
HETATM   24  H   UNL     1     -45.746  60.602 -54.913  1.00  0.00     0.189 HD
HETATM   25  N   UNL     1     -45.483  59.991 -53.004  1.00  0.00    -0.177 NA
HETATM   26  C   UNL     1     -45.109  58.799 -52.514  1.00  0.00     0.079 A 
HETATM   27  C   UNL     1     -45.058  58.618 -51.042  1.00  0.00     0.075 C 
ENDBRANCH   1  20
TORSDOF 5
ENDMDL
MODEL 8
REMARK VINA RESULT:      -6.9      2.959      6.492
REMARK  5 active torsions:
REMARK  status: ('A' for Active; 'I' for Inactive)
REMARK    1  A    between atoms: C_8  and  N_9 
REMARK       I    between atoms: N_9  and  C_10 
REMARK       I    between atoms: C_10  and  N_11 
REMARK    2  A    between atoms: N_11  and  C_12 
REMARK    3  A    between atoms: C_13  and  O_14 
REMARK    4  A    between atoms: O_14  and  C_15 
REMARK    5  A    between atoms: C_15  and  C_16 
ROOT
HETATM    1  N   UNL     1     -39.983  52.805 -53.954  1.00  0.00    -0.305 N 
HETATM    2  C   UNL     1     -41.075  53.646 -54.065  1.00  0.00     0.325 C 
HETATM    3  N   UNL     1     -40.784  54.696 -54.917  1.00  0.00    -0.306 N 
HETATM    4  O   UNL     1     -42.151  53.483 -53.504  1.00  0.00    -0.247 OA
HETATM    5  H   UNL     1     -39.405  52.737 -54.777  1.00  0.00     0.171 HD
HETATM    6  H   UNL     1     -39.811  54.971 -54.960  1.00  0.00     0.171 HD
ENDROOT
BRANCH   3   7
HETATM    7  C   UNL     1     -41.702  55.623 -55.454  1.00  0.00     0.070 A 
HETATM    8  C   UNL     1     -41.798  56.883 -54.838  1.00  0.00     0.098 A 
HETATM    9  C   UNL     1     -42.629  57.875 -55.357  1.00  0.00     0.081 A 
HETATM   10  C   UNL     1     -43.393  57.590 -56.481  1.00  0.00     0.119 A 
HETATM   11  F   UNL     1     -44.198  58.533 -56.985  1.00  0.00    -0.206 F 
HETATM   12  C   UNL     1     -43.334  56.342 -57.092  1.00  0.00     0.044 A 
HETATM   13  C   UNL     1     -42.484  55.356 -56.581  1.00  0.00     0.035 A 
BRANCH   8  14
HETATM   14  O   UNL     1     -41.033  57.121 -53.721  1.00  0.00    -0.340 OA
BRANCH  14  15
HETATM   15  C   UNL     1     -41.837  57.650 -52.648  1.00  0.00     0.293 C 
BRANCH  15  16
HETATM   16  C   UNL     1     -41.506  56.935 -51.347  1.00  0.00     0.408 C 
HETATM   17  F   UNL     1     -40.978  55.712 -51.580  1.00  0.00    -0.169 F 
HETATM   18  F   UNL     1     -40.620  57.635 -50.606  1.00  0.00    -0.169 F 
HETATM   19  F   UNL     1     -42.619  56.764 -50.598  1.00  0.00    -0.169 F 
ENDBRANCH  15  16
ENDBRANCH  14  15
ENDBRANCH   8  14
ENDBRANCH   3   7
BRANCH   1  20
HETATM   20  C   UNL     1     -39.862  51.780 -53.032  1.00  0.00     0.086 A 
HETATM   21  C   UNL     1     -39.695  50.459 -53.396  1.00  0.00     0.052 A 
HETATM   22  C   UNL     1     -39.646  49.781 -54.711  1.00  0.00     0.072 C 
HETATM   23  N   UNL     1     -39.611  49.761 -52.223  1.00  0.00    -0.280 N 
HETATM   24  H   UNL     1     -39.505  48.761 -52.096  1.00  0.00     0.189 HD
HETATM   25  N   UNL     1     -39.668  50.529 -51.130  1.00  0.00    -0.177 NA
HETATM   26  C   UNL     1     -39.820  51.773 -51.608  1.00  0.00     0.079 A 
HETATM   27  C   UNL     1     -39.850  52.906 -50.649  1.00  0.00     0.075 C 
ENDBRANCH   1  20
TORSDOF 5
ENDMDL
MODEL 9
REMARK VINA RESULT:      -6.9      5.940      8.263
REMARK  5 active torsions:
REMARK  status: ('A' for Active; 'I' for Inactive)
REMARK    1  A    between atoms: C_8  and  N_9 
REMARK       I    between atoms: N_9  and  C_10 
REMARK       I    between atoms: C_10  and  N_11 
REMARK    2  A    between atoms: N_11  and  C_12 
REMARK    3  A    between atoms: C_13  and  O_14 
REMARK    4  A    between atoms: O_14  and  C_15 
REMARK    5  A    between atoms: C_15  and  C_16 
ROOT
HETATM    1  N   UNL     1     -41.290  54.996 -55.720  1.00  0.00    -0.305 N 
HETATM    2  C   UNL     1     -42.559  55.020 -56.268  1.00  0.00     0.325 C 
HETATM    3  N   UNL     1     -42.527  55.603 -57.522  1.00  0.00    -0.306 N 
HETATM    4  O   UNL     1     -43.567  54.578 -55.732  1.00  0.00    -0.247 OA
HETATM    5  H   UNL     1     -40.535  54.900 -56.383  1.00  0.00     0.171 HD
HETATM    6  H   UNL     1     -41.800  56.292 -57.668  1.00  0.00     0.171 HD
ENDROOT
BRANCH   3   7
HETATM    7  C   UNL     1     -43.566  55.603 -58.476  1.00  0.00     0.070 A 
HETATM    8  C   UNL     1     -44.212  56.823 -58.741  1.00  0.00     0.098 A 
HETATM    9  C   UNL     1     -45.198  56.915 -59.724  1.00  0.00     0.081 A 
HETATM   10  C   UNL     1     -45.559  55.770 -60.421  1.00  0.00     0.119 A 
HETATM   11  F   UNL     1     -46.507  55.847 -61.363  1.00  0.00    -0.206 F 
HETATM   12  C   UNL     1     -44.952  54.547 -60.158  1.00  0.00     0.044 A 
HETATM   13  C   UNL     1     -43.950  54.462 -59.186  1.00  0.00     0.035 A 
BRANCH   8  14
HETATM   14  O   UNL     1     -43.832  57.931 -58.022  1.00  0.00    -0.340 OA
BRANCH  14  15
HETATM   15  C   UNL     1     -43.576  59.050 -58.894  1.00  0.00     0.293 C 
BRANCH  15  16
HETATM   16  C   UNL     1     -42.134  59.019 -59.373  1.00  0.00     0.408 C 
HETATM   17  F   UNL     1     -41.335  58.383 -58.484  1.00  0.00    -0.169 F 
HETATM   18  F   UNL     1     -42.017  58.387 -60.561  1.00  0.00    -0.169 F 
HETATM   19  F   UNL     1     -41.654  60.274 -59.529  1.00  0.00    -0.169 F 
ENDBRANCH  15  16
ENDBRANCH  14  15
ENDBRANCH   8  14
ENDBRANCH   3   7
BRANCH   1  20
HETATM   20  C   UNL     1     -40.998  54.673 -54.406  1.00  0.00     0.086 A 
HETATM   21  C   UNL     1     -41.133  55.570 -53.365  1.00  0.00     0.052 A 
HETATM   22  C   UNL     1     -41.531  56.994 -53.315  1.00  0.00     0.072 C 
HETATM   23  N   UNL     1     -40.761  54.886 -52.241  1.00  0.00    -0.280 N 
HETATM   24  H   UNL     1     -40.713  55.228 -51.287  1.00  0.00     0.189 HD
HETATM   25  N   UNL     1     -40.435  53.609 -52.465  1.00  0.00    -0.177 NA
HETATM   26  C   UNL     1     -40.579  53.459 -53.790  1.00  0.00     0.079 A 
HETATM   27  C   UNL     1     -40.361  52.116 -54.383  1.00  0.00     0.075 C 
ENDBRANCH   1  20
TORSDOF 5
ENDMDL
MODEL 10
REMARK VINA RESULT:      -6.8      3.249      6.605
REMARK  5 active torsions:
REMARK  status: ('A' for Active; 'I' for Inactive)
REMARK    1  A    between atoms: C_8  and  N_9 
REMARK       I    between atoms: N_9  and  C_10 
REMARK       I    between atoms: C_10  and  N_11 
REMARK    2  A    between atoms: N_11  and  C_12 
REMARK    3  A    between atoms: C_13  and  O_14 
REMARK    4  A    between atoms: O_14  and  C_15 
REMARK    5  A    between atoms: C_15  and  C_16 
ROOT
HETATM    1  N   UNL     1     -39.906  52.984 -53.890  1.00  0.00    -0.305 N 
HETATM    2  C   UNL     1     -41.015  53.808 -53.940  1.00  0.00     0.325 C 
HETATM    3  N   UNL     1     -40.726  54.955 -54.656  1.00  0.00    -0.306 N 
HETATM    4  O   UNL     1     -42.103  53.558 -53.435  1.00  0.00    -0.247 OA
HETATM    5  H   UNL     1     -39.302  53.024 -54.697  1.00  0.00     0.171 HD
HETATM    6  H   UNL     1     -39.760  55.255 -54.636  1.00  0.00     0.171 HD
ENDROOT
BRANCH   3   7
HETATM    7  C   UNL     1     -41.651  55.917 -55.113  1.00  0.00     0.070 A 
HETATM    8  C   UNL     1     -41.746  57.126 -54.401  1.00  0.00     0.098 A 
HETATM    9  C   UNL     1     -42.585  58.151 -54.835  1.00  0.00     0.081 A 
HETATM   10  C   UNL     1     -43.357  57.951 -55.972  1.00  0.00     0.119 A 
HETATM   11  F   UNL     1     -44.168  58.928 -56.395  1.00  0.00    -0.206 F 
HETATM   12  C   UNL     1     -43.298  56.755 -56.678  1.00  0.00     0.044 A 
HETATM   13  C   UNL     1     -42.442  55.736 -56.251  1.00  0.00     0.035 A 
BRANCH   8  14
HETATM   14  O   UNL     1     -40.973  57.280 -53.274  1.00  0.00    -0.340 OA
BRANCH  14  15
HETATM   15  C   UNL     1     -40.514  58.640 -53.145  1.00  0.00     0.293 C 
BRANCH  15  16
HETATM   16  C   UNL     1     -40.154  58.934 -51.698  1.00  0.00     0.408 C 
HETATM   17  F   UNL     1     -40.907  59.941 -51.199  1.00  0.00    -0.169 F 
HETATM   18  F   UNL     1     -40.333  57.852 -50.910  1.00  0.00    -0.169 F 
HETATM   19  F   UNL     1     -38.856  59.305 -51.594  1.00  0.00    -0.169 F 
ENDBRANCH  15  16
ENDBRANCH  14  15
ENDBRANCH   8  14
ENDBRANCH   3   7
BRANCH   1  20
HETATM   20  C   UNL     1     -39.786  51.862 -53.088  1.00  0.00     0.086 A 
HETATM   21  C   UNL     1     -39.746  51.927 -51.709  1.00  0.00     0.052 A 
HETATM   22  C   UNL     1     -39.766  53.060 -50.758  1.00  0.00     0.072 C 
HETATM   23  N   UNL     1     -39.629  50.632 -51.284  1.00  0.00    -0.280 N 
HETATM   24  H   UNL     1     -39.552  50.291 -50.332  1.00  0.00     0.189 HD
HETATM   25  N   UNL     1     -39.631  49.733 -52.274  1.00  0.00    -0.177 NA
HETATM   26  C   UNL     1     -39.730  50.471 -53.389  1.00  0.00     0.079 A 
HETATM   27  C   UNL     1     -39.831  49.776 -54.697  1.00  0.00     0.075 C 
ENDBRANCH   1  20
TORSDOF 5
ENDMDL
