MODEL 1
REMARK VINA RESULT:      -8.8      0.000      0.000
REMARK  7 active torsions:
REMARK  status: ('A' for Active; 'I' for Inactive)
REMARK    1  A    between atoms: N_7  and  C_8 
REMARK    2  A    between atoms: C_8  and  C_9 
REMARK       I    between atoms: C_9  and  N_10 
REMARK    3  A    between atoms: N_10  and  C_11 
REMARK    4  A    between atoms: C_11  and  C_12 
REMARK    5  A    between atoms: C_12  and  C_13 
REMARK    6  A    between atoms: C_12  and  C_23 
REMARK    7  A    between atoms: C_26  and  O_27 
ROOT
HETATM    1  C   UNL     1     -41.622  54.389 -55.087  1.00  0.00     0.136 C 
ENDROOT
BRANCH   1   2
HETATM    2  N   UNL     1     -41.751  55.373 -56.150  1.00  0.00    -0.359 N 
HETATM    3  C   UNL     1     -42.792  55.310 -57.052  1.00  0.00     0.236 C 
HETATM    4  O   UNL     1     -43.660  54.442 -57.010  1.00  0.00    -0.272 OA
HETATM    5  H   UNL     1     -41.105  56.164 -56.183  1.00  0.00     0.162 HD
BRANCH   3   6
HETATM    6  C   UNL     1     -42.764  56.388 -58.129  1.00  0.00     0.239 C 
BRANCH   6   7
HETATM    7  N   UNL     1     -43.598  57.505 -57.747  1.00  0.00    -0.259 N 
HETATM    8  C   UNL     1     -44.856  57.708 -58.210  1.00  0.00     0.326 A 
HETATM    9  N   UNL     1     -45.378  58.817 -57.594  1.00  0.00    -0.324 N 
HETATM   10  O   UNL     1     -45.441  57.045 -59.051  1.00  0.00    -0.247 OA
HETATM   11  C   UNL     1     -44.440  59.447 -56.678  1.00  0.00     0.119 A 
HETATM   12  H   UNL     1     -46.305  59.154 -57.818  1.00  0.00     0.165 HD
HETATM   13  C   UNL     1     -45.002  59.470 -55.237  1.00  0.00     0.019 C 
HETATM   14  C   UNL     1     -43.246  58.477 -56.853  1.00  0.00     0.257 A 
HETATM   15  C   UNL     1     -44.084  60.846 -57.200  1.00  0.00     0.041 C 
HETATM   16  C   UNL     1     -45.225  58.075 -54.636  1.00  0.00     0.013 C 
HETATM   17  C   UNL     1     -44.127  60.306 -54.289  1.00  0.00     0.007 C 
HETATM   18  C   UNL     1     -43.877  61.708 -54.835  1.00  0.00     0.001 C 
HETATM   19  C   UNL     1     -43.246  61.663 -56.220  1.00  0.00     0.003 C 
HETATM   20  O   UNL     1     -42.176  58.560 -56.266  1.00  0.00    -0.270 OA
ENDBRANCH   6   7
ENDBRANCH   3   6
ENDBRANCH   1   2
BRANCH   1  21
HETATM   21  C   UNL     1     -40.915  54.916 -53.823  1.00  0.00     0.071 C 
BRANCH  21  22
HETATM   22  C   UNL     1     -40.517  53.840 -52.839  1.00  0.00    -0.020 A 
HETATM   23  C   UNL     1     -40.261  52.458 -53.150  1.00  0.00    -0.001 A 
HETATM   24  C   UNL     1     -39.911  51.815 -51.962  1.00  0.00     0.042 A 
HETATM   25  C   UNL     1     -40.285  51.697 -54.337  1.00  0.00     0.014 A 
HETATM   26  C   UNL     1     -39.579  50.456 -51.902  1.00  0.00     0.030 A 
HETATM   27  N   UNL     1     -39.964  52.756 -50.963  1.00  0.00    -0.365 N 
HETATM   28  C   UNL     1     -39.604  49.728 -53.095  1.00  0.00     0.002 A 
HETATM   29  C   UNL     1     -39.954  50.337 -54.297  1.00  0.00     0.001 A 
HETATM   30  H   UNL     1     -39.754  52.570 -49.992  1.00  0.00     0.165 HD
HETATM   31  C   UNL     1     -40.332  53.970 -51.472  1.00  0.00     0.097 A 
ENDBRANCH  21  22
BRANCH  21  32
HETATM   32  C   UNL     1     -41.740  55.909 -53.013  1.00  0.00    -0.048 A 
HETATM   33  C   UNL     1     -41.286  57.229 -52.863  1.00  0.00     0.011 A 
HETATM   34  C   UNL     1     -42.033  58.168 -52.145  1.00  0.00     0.037 A 
HETATM   35  C   UNL     1     -43.251  57.816 -51.565  1.00  0.00     0.068 A 
HETATM   36  C   UNL     1     -43.702  56.503 -51.681  1.00  0.00     0.037 A 
HETATM   37  C   UNL     1     -42.953  55.560 -52.395  1.00  0.00     0.011 A 
BRANCH  35  38
HETATM   38  O   UNL     1     -43.892  58.830 -50.909  1.00  0.00    -0.356 OA
HETATM   39  C   UNL     1     -45.312  58.846 -50.996  1.00  0.00     0.210 C 
ENDBRANCH  35  38
ENDBRANCH  21  32
ENDBRANCH   1  21
TORSDOF 7
ENDMDL
MODEL 2
REMARK VINA RESULT:      -8.7      3.275      8.256
REMARK  7 active torsions:
REMARK  status: ('A' for Active; 'I' for Inactive)
REMARK    1  A    between atoms: N_7  and  C_8 
REMARK    2  A    between atoms: C_8  and  C_9 
REMARK       I    between atoms: C_9  and  N_10 
REMARK    3  A    between atoms: N_10  and  C_11 
REMARK    4  A    between atoms: C_11  and  C_12 
REMARK    5  A    between atoms: C_12  and  C_13 
REMARK    6  A    between atoms: C_12  and  C_23 
REMARK    7  A    between atoms: C_26  and  O_27 
ROOT
HETATM    1  C   UNL     1     -41.990  59.825 -57.148  1.00  0.00     0.136 C 
ENDROOT
BRANCH   1   2
HETATM    2  N   UNL     1     -42.774  59.370 -56.010  1.00  0.00    -0.359 N 
HETATM    3  C   UNL     1     -42.261  59.416 -54.731  1.00  0.00     0.236 C 
HETATM    4  O   UNL     1     -41.137  59.842 -54.478  1.00  0.00    -0.272 OA
HETATM    5  H   UNL     1     -43.745  59.084 -56.152  1.00  0.00     0.162 HD
BRANCH   3   6
HETATM    6  C   UNL     1     -43.189  58.865 -53.655  1.00  0.00     0.239 C 
BRANCH   6   7
HETATM    7  N   UNL     1     -43.358  57.439 -53.818  1.00  0.00    -0.259 N 
HETATM    8  C   UNL     1     -44.516  56.851 -54.211  1.00  0.00     0.326 A 
HETATM    9  N   UNL     1     -44.306  55.500 -54.325  1.00  0.00    -0.324 N 
HETATM   10  O   UNL     1     -45.584  57.404 -54.414  1.00  0.00    -0.247 OA
HETATM   11  C   UNL     1     -42.952  55.107 -53.967  1.00  0.00     0.119 A 
HETATM   12  H   UNL     1     -45.056  54.874 -54.587  1.00  0.00     0.165 HD
HETATM   13  C   UNL     1     -42.239  54.425 -55.157  1.00  0.00     0.019 C 
HETATM   14  C   UNL     1     -42.378  56.506 -53.630  1.00  0.00     0.257 A 
HETATM   15  C   UNL     1     -42.996  54.222 -52.713  1.00  0.00     0.041 C 
HETATM   16  C   UNL     1     -42.048  55.341 -56.374  1.00  0.00     0.013 C 
HETATM   17  C   UNL     1     -40.885  53.820 -54.750  1.00  0.00     0.007 C 
HETATM   18  C   UNL     1     -41.017  52.893 -53.547  1.00  0.00     0.001 C 
HETATM   19  C   UNL     1     -41.644  53.608 -52.358  1.00  0.00     0.003 C 
HETATM   20  O   UNL     1     -41.229  56.732 -53.278  1.00  0.00    -0.270 OA
ENDBRANCH   6   7
ENDBRANCH   3   6
ENDBRANCH   1   2
BRANCH   1  21
HETATM   21  C   UNL     1     -42.715  59.698 -58.503  1.00  0.00     0.071 C 
BRANCH  21  22
HETATM   22  C   UNL     1     -42.729  58.298 -59.071  1.00  0.00    -0.020 A 
HETATM   23  C   UNL     1     -43.899  57.516 -59.373  1.00  0.00    -0.001 A 
HETATM   24  C   UNL     1     -43.470  56.293 -59.891  1.00  0.00     0.042 A 
HETATM   25  C   UNL     1     -45.287  57.741 -59.264  1.00  0.00     0.014 A 
HETATM   26  C   UNL     1     -44.353  55.291 -60.308  1.00  0.00     0.030 A 
HETATM   27  N   UNL     1     -42.095  56.316 -59.893  1.00  0.00    -0.365 N 
HETATM   28  C   UNL     1     -45.723  55.545 -60.195  1.00  0.00     0.002 A 
HETATM   29  C   UNL     1     -46.186  56.751 -59.678  1.00  0.00     0.001 A 
HETATM   30  H   UNL     1     -41.512  55.559 -60.219  1.00  0.00     0.165 HD
HETATM   31  C   UNL     1     -41.639  57.507 -59.398  1.00  0.00     0.097 A 
ENDBRANCH  21  22
BRANCH  21  32
HETATM   32  C   UNL     1     -42.129  60.569 -59.609  1.00  0.00    -0.048 A 
HETATM   33  C   UNL     1     -42.545  60.375 -60.937  1.00  0.00     0.011 A 
HETATM   34  C   UNL     1     -42.043  61.173 -61.969  1.00  0.00     0.037 A 
HETATM   35  C   UNL     1     -41.123  62.185 -61.704  1.00  0.00     0.068 A 
HETATM   36  C   UNL     1     -40.680  62.372 -60.396  1.00  0.00     0.037 A 
HETATM   37  C   UNL     1     -41.176  61.570 -59.361  1.00  0.00     0.011 A 
BRANCH  35  38
HETATM   38  O   UNL     1     -40.727  62.906 -62.796  1.00  0.00    -0.356 OA
HETATM   39  C   UNL     1     -39.348  63.249 -62.866  1.00  0.00     0.210 C 
ENDBRANCH  35  38
ENDBRANCH  21  32
ENDBRANCH   1  21
TORSDOF 7
ENDMDL
MODEL 3
REMARK VINA RESULT:      -8.7      2.597      7.706
REMARK  7 active torsions:
REMARK  status: ('A' for Active; 'I' for Inactive)
REMARK    1  A    between atoms: N_7  and  C_8 
REMARK    2  A    between atoms: C_8  and  C_9 
REMARK       I    between atoms: C_9  and  N_10 
REMARK    3  A    between atoms: N_10  and  C_11 
REMARK    4  A    between atoms: C_11  and  C_12 
REMARK    5  A    between atoms: C_12  and  C_13 
REMARK    6  A    between atoms: C_12  and  C_23 
REMARK    7  A    between atoms: C_26  and  O_27 
ROOT
HETATM    1  C   UNL     1     -44.444  59.957 -56.435  1.00  0.00     0.136 C 
ENDROOT
BRANCH   1   2
HETATM    2  N   UNL     1     -44.661  58.835 -55.534  1.00  0.00    -0.359 N 
HETATM    3  C   UNL     1     -44.683  59.017 -54.167  1.00  0.00     0.236 C 
HETATM    4  O   UNL     1     -44.532  60.115 -53.638  1.00  0.00    -0.272 OA
HETATM    5  H   UNL     1     -44.875  57.914 -55.922  1.00  0.00     0.162 HD
BRANCH   3   6
HETATM    6  C   UNL     1     -44.878  57.739 -53.361  1.00  0.00     0.239 C 
BRANCH   6   7
HETATM    7  N   UNL     1     -43.605  57.104 -53.106  1.00  0.00    -0.259 N 
HETATM    8  C   UNL     1     -42.766  57.460 -52.101  1.00  0.00     0.326 A 
HETATM    9  N   UNL     1     -41.687  56.612 -52.108  1.00  0.00    -0.324 N 
HETATM   10  O   UNL     1     -42.911  58.387 -51.322  1.00  0.00    -0.247 OA
HETATM   11  C   UNL     1     -41.745  55.634 -53.182  1.00  0.00     0.119 A 
HETATM   12  H   UNL     1     -40.930  56.723 -51.446  1.00  0.00     0.165 HD
HETATM   13  C   UNL     1     -41.755  54.193 -52.620  1.00  0.00     0.019 C 
HETATM   14  C   UNL     1     -43.096  56.052 -53.815  1.00  0.00     0.257 A 
HETATM   15  C   UNL     1     -40.588  55.884 -54.160  1.00  0.00     0.041 C 
HETATM   16  C   UNL     1     -42.985  53.871 -51.759  1.00  0.00     0.013 C 
HETATM   17  C   UNL     1     -41.612  53.139 -53.730  1.00  0.00     0.007 C 
HETATM   18  C   UNL     1     -40.400  53.407 -54.615  1.00  0.00     0.001 C 
HETATM   19  C   UNL     1     -40.452  54.801 -55.226  1.00  0.00     0.003 C 
HETATM   20  O   UNL     1     -43.625  55.510 -54.775  1.00  0.00    -0.270 OA
ENDBRANCH   6   7
ENDBRANCH   3   6
ENDBRANCH   1   2
BRANCH   1  21
HETATM   21  C   UNL     1     -44.073  59.547 -57.874  1.00  0.00     0.071 C 
BRANCH  21  22
HETATM   22  C   UNL     1     -43.636  58.107 -58.016  1.00  0.00    -0.020 A 
HETATM   23  C   UNL     1     -44.311  57.085 -58.773  1.00  0.00    -0.001 A 
HETATM   24  C   UNL     1     -43.570  55.909 -58.651  1.00  0.00     0.042 A 
HETATM   25  C   UNL     1     -45.481  57.057 -59.560  1.00  0.00     0.014 A 
HETATM   26  C   UNL     1     -43.934  54.712 -59.280  1.00  0.00     0.030 A 
HETATM   27  N   UNL     1     -42.495  56.191 -57.843  1.00  0.00    -0.365 N 
HETATM   28  C   UNL     1     -45.094  54.715 -60.060  1.00  0.00     0.002 A 
HETATM   29  C   UNL     1     -45.859  55.869 -60.198  1.00  0.00     0.001 A 
HETATM   30  H   UNL     1     -41.784  55.521 -57.585  1.00  0.00     0.165 HD
HETATM   31  C   UNL     1     -42.526  57.500 -57.450  1.00  0.00     0.097 A 
ENDBRANCH  21  22
BRANCH  21  32
HETATM   32  C   UNL     1     -42.943  60.366 -58.486  1.00  0.00    -0.048 A 
HETATM   33  C   UNL     1     -42.757  60.359 -59.878  1.00  0.00     0.011 A 
HETATM   34  C   UNL     1     -41.744  61.118 -60.471  1.00  0.00     0.037 A 
HETATM   35  C   UNL     1     -40.897  61.907 -59.693  1.00  0.00     0.068 A 
HETATM   36  C   UNL     1     -41.051  61.903 -58.308  1.00  0.00     0.037 A 
HETATM   37  C   UNL     1     -42.061  61.139 -57.712  1.00  0.00     0.011 A 
BRANCH  35  38
HETATM   38  O   UNL     1     -39.962  62.616 -60.395  1.00  0.00    -0.356 OA
HETATM   39  C   UNL     1     -39.130  63.490 -59.641  1.00  0.00     0.210 C 
ENDBRANCH  35  38
ENDBRANCH  21  32
ENDBRANCH   1  21
TORSDOF 7
ENDMDL
MODEL 4
REMARK VINA RESULT:      -8.7      2.453      5.852
REMARK  7 active torsions:
REMARK  status: ('A' for Active; 'I' for Inactive)
REMARK    1  A    between atoms: N_7  and  C_8 
REMARK    2  A    between atoms: C_8  and  C_9 
REMARK       I    between atoms: C_9  and  N_10 
REMARK    3  A    between atoms: N_10  and  C_11 
REMARK    4  A    between atoms: C_11  and  C_12 
REMARK    5  A    between atoms: C_12  and  C_13 
REMARK    6  A    between atoms: C_12  and  C_23 
REMARK    7  A    between atoms: C_26  and  O_27 
ROOT
HETATM    1  C   UNL     1     -43.910  55.103 -54.351  1.00  0.00     0.136 C 
ENDROOT
BRANCH   1   2
HETATM    2  N   UNL     1     -43.757  56.346 -55.091  1.00  0.00    -0.359 N 
HETATM    3  C   UNL     1     -42.883  56.437 -56.153  1.00  0.00     0.236 C 
HETATM    4  O   UNL     1     -42.199  55.491 -56.537  1.00  0.00    -0.272 OA
HETATM    5  H   UNL     1     -44.361  57.139 -54.868  1.00  0.00     0.162 HD
BRANCH   3   6
HETATM    6  C   UNL     1     -42.807  57.816 -56.796  1.00  0.00     0.239 C 
BRANCH   6   7
HETATM    7  N   UNL     1     -43.330  57.774 -58.143  1.00  0.00    -0.259 N 
HETATM    8  C   UNL     1     -42.562  57.832 -59.259  1.00  0.00     0.326 A 
HETATM    9  N   UNL     1     -43.372  57.699 -60.359  1.00  0.00    -0.324 N 
HETATM   10  O   UNL     1     -41.354  57.997 -59.307  1.00  0.00    -0.247 OA
HETATM   11  C   UNL     1     -44.778  57.574 -60.011  1.00  0.00     0.119 A 
HETATM   12  H   UNL     1     -42.993  57.738 -61.296  1.00  0.00     0.165 HD
HETATM   13  C   UNL     1     -45.358  56.233 -60.519  1.00  0.00     0.019 C 
HETATM   14  C   UNL     1     -44.651  57.638 -58.469  1.00  0.00     0.257 A 
HETATM   15  C   UNL     1     -45.543  58.794 -60.543  1.00  0.00     0.041 C 
HETATM   16  C   UNL     1     -44.709  54.995 -59.885  1.00  0.00     0.013 C 
HETATM   17  C   UNL     1     -46.884  56.161 -60.346  1.00  0.00     0.007 C 
HETATM   18  C   UNL     1     -47.583  57.367 -60.965  1.00  0.00     0.001 C 
HETATM   19  C   UNL     1     -47.057  58.674 -60.389  1.00  0.00     0.003 C 
HETATM   20  O   UNL     1     -45.580  57.557 -57.679  1.00  0.00    -0.270 OA
ENDBRANCH   6   7
ENDBRANCH   3   6
ENDBRANCH   1   2
BRANCH   1  21
HETATM   21  C   UNL     1     -43.259  55.117 -52.954  1.00  0.00     0.071 C 
BRANCH  21  22
HETATM   22  C   UNL     1     -42.667  56.451 -52.559  1.00  0.00    -0.020 A 
HETATM   23  C   UNL     1     -43.375  57.547 -51.951  1.00  0.00    -0.001 A 
HETATM   24  C   UNL     1     -42.458  58.577 -51.738  1.00  0.00     0.042 A 
HETATM   25  C   UNL     1     -44.712  57.754 -51.553  1.00  0.00     0.014 A 
HETATM   26  C   UNL     1     -42.807  59.796 -51.144  1.00  0.00     0.030 A 
HETATM   27  N   UNL     1     -41.243  58.139 -52.207  1.00  0.00    -0.365 N 
HETATM   28  C   UNL     1     -44.137  59.970 -50.753  1.00  0.00     0.002 A 
HETATM   29  C   UNL     1     -45.079  58.965 -50.955  1.00  0.00     0.001 A 
HETATM   30  H   UNL     1     -40.391  58.681 -52.179  1.00  0.00     0.165 HD
HETATM   31  C   UNL     1     -41.355  56.871 -52.707  1.00  0.00     0.097 A 
ENDBRANCH  21  22
BRANCH  21  32
HETATM   32  C   UNL     1     -42.125  54.114 -52.781  1.00  0.00    -0.048 A 
HETATM   33  C   UNL     1     -41.652  53.817 -51.492  1.00  0.00     0.011 A 
HETATM   34  C   UNL     1     -40.629  52.884 -51.301  1.00  0.00     0.037 A 
HETATM   35  C   UNL     1     -40.058  52.220 -52.386  1.00  0.00     0.068 A 
HETATM   36  C   UNL     1     -40.497  52.523 -53.672  1.00  0.00     0.037 A 
HETATM   37  C   UNL     1     -41.518  53.462 -53.867  1.00  0.00     0.011 A 
BRANCH  35  38
HETATM   38  O   UNL     1     -39.082  51.318 -52.062  1.00  0.00    -0.356 OA
HETATM   39  C   UNL     1     -39.485  50.199 -51.281  1.00  0.00     0.210 C 
ENDBRANCH  35  38
ENDBRANCH  21  32
ENDBRANCH   1  21
TORSDOF 7
ENDMDL
MODEL 5
REMARK VINA RESULT:      -8.6      2.810      5.523
REMARK  7 active torsions:
REMARK  status: ('A' for Active; 'I' for Inactive)
REMARK    1  A    between atoms: N_7  and  C_8 
REMARK    2  A    between atoms: C_8  and  C_9 
REMARK       I    between atoms: C_9  and  N_10 
REMARK    3  A    between atoms: N_10  and  C_11 
REMARK    4  A    between atoms: C_11  and  C_12 
REMARK    5  A    between atoms: C_12  and  C_13 
REMARK    6  A    between atoms: C_12  and  C_23 
REMARK    7  A    between atoms: C_26  and  O_27 
ROOT
HETATM    1  C   UNL     1     -42.148  56.860 -56.307  1.00  0.00     0.136 C 
ENDROOT
BRANCH   1   2
HETATM    2  N   UNL     1     -42.676  56.498 -57.613  1.00  0.00    -0.359 N 
HETATM    3  C   UNL     1     -42.428  57.282 -58.721  1.00  0.00     0.236 C 
HETATM    4  O   UNL     1     -41.754  58.308 -58.675  1.00  0.00    -0.272 OA
HETATM    5  H   UNL     1     -43.173  55.613 -57.726  1.00  0.00     0.162 HD
BRANCH   3   6
HETATM    6  C   UNL     1     -43.085  56.792 -60.005  1.00  0.00     0.239 C 
BRANCH   6   7
HETATM    7  N   UNL     1     -44.523  56.902 -59.910  1.00  0.00    -0.259 N 
HETATM    8  C   UNL     1     -45.359  55.844 -59.758  1.00  0.00     0.326 A 
HETATM    9  N   UNL     1     -46.643  56.311 -59.636  1.00  0.00    -0.324 N 
HETATM   10  O   UNL     1     -45.049  54.664 -59.752  1.00  0.00    -0.247 OA
HETATM   11  C   UNL     1     -46.728  57.759 -59.737  1.00  0.00     0.119 A 
HETATM   12  H   UNL     1     -47.423  55.676 -59.536  1.00  0.00     0.165 HD
HETATM   13  C   UNL     1     -47.322  58.371 -58.447  1.00  0.00     0.019 C 
HETATM   14  C   UNL     1     -45.223  58.075 -59.926  1.00  0.00     0.257 A 
HETATM   15  C   UNL     1     -47.524  58.134 -60.995  1.00  0.00     0.041 C 
HETATM   16  C   UNL     1     -46.463  58.137 -57.196  1.00  0.00     0.013 C 
HETATM   17  C   UNL     1     -47.612  59.873 -58.600  1.00  0.00     0.007 C 
HETATM   18  C   UNL     1     -48.470  60.163 -59.827  1.00  0.00     0.001 C 
HETATM   19  C   UNL     1     -47.826  59.626 -61.098  1.00  0.00     0.003 C 
HETATM   20  O   UNL     1     -44.746  59.195 -60.047  1.00  0.00    -0.270 OA
ENDBRANCH   6   7
ENDBRANCH   3   6
ENDBRANCH   1   2
BRANCH   1  21
HETATM   21  C   UNL     1     -42.762  56.065 -55.138  1.00  0.00     0.071 C 
BRANCH  21  22
HETATM   22  C   UNL     1     -43.051  56.894 -53.907  1.00  0.00    -0.020 A 
HETATM   23  C   UNL     1     -42.099  57.693 -53.180  1.00  0.00    -0.001 A 
HETATM   24  C   UNL     1     -42.778  58.303 -52.125  1.00  0.00     0.042 A 
HETATM   25  C   UNL     1     -40.723  57.962 -53.330  1.00  0.00     0.014 A 
HETATM   26  C   UNL     1     -42.155  59.169 -51.219  1.00  0.00     0.030 A 
HETATM   27  N   UNL     1     -44.086  57.886 -52.191  1.00  0.00    -0.365 N 
HETATM   28  C   UNL     1     -40.792  59.423 -51.396  1.00  0.00     0.002 A 
HETATM   29  C   UNL     1     -40.083  58.828 -52.435  1.00  0.00     0.001 A 
HETATM   30  H   UNL     1     -44.810  58.174 -51.548  1.00  0.00     0.165 HD
HETATM   31  C   UNL     1     -44.261  57.037 -53.248  1.00  0.00     0.097 A 
ENDBRANCH  21  22
BRANCH  21  32
HETATM   32  C   UNL     1     -41.898  54.910 -54.645  1.00  0.00    -0.048 A 
HETATM   33  C   UNL     1     -42.284  54.197 -53.498  1.00  0.00     0.011 A 
HETATM   34  C   UNL     1     -41.524  53.118 -53.034  1.00  0.00     0.037 A 
HETATM   35  C   UNL     1     -40.368  52.721 -53.705  1.00  0.00     0.068 A 
HETATM   36  C   UNL     1     -39.958  53.435 -54.828  1.00  0.00     0.037 A 
HETATM   37  C   UNL     1     -40.714  54.520 -55.291  1.00  0.00     0.011 A 
BRANCH  35  38
HETATM   38  O   UNL     1     -39.729  51.641 -53.162  1.00  0.00    -0.356 OA
HETATM   39  C   UNL     1     -39.922  50.393 -53.817  1.00  0.00     0.210 C 
ENDBRANCH  35  38
ENDBRANCH  21  32
ENDBRANCH   1  21
TORSDOF 7
ENDMDL
MODEL 6
REMARK VINA RESULT:      -8.5      1.778      2.351
REMARK  7 active torsions:
REMARK  status: ('A' for Active; 'I' for Inactive)
REMARK    1  A    between atoms: N_7  and  C_8 
REMARK    2  A    between atoms: C_8  and  C_9 
REMARK       I    between atoms: C_9  and  N_10 
REMARK    3  A    between atoms: N_10  and  C_11 
REMARK    4  A    between atoms: C_11  and  C_12 
REMARK    5  A    between atoms: C_12  and  C_13 
REMARK    6  A    between atoms: C_12  and  C_23 
REMARK    7  A    between atoms: C_26  and  O_27 
ROOT
HETATM    1  C   UNL     1     -42.799  54.534 -54.734  1.00  0.00     0.136 C 
ENDROOT
BRANCH   1   2
HETATM    2  N   UNL     1     -42.817  54.670 -56.182  1.00  0.00    -0.359 N 
HETATM    3  C   UNL     1     -43.247  55.837 -56.779  1.00  0.00     0.236 C 
HETATM    4  O   UNL     1     -43.624  56.815 -56.139  1.00  0.00    -0.272 OA
HETATM    5  H   UNL     1     -42.436  53.920 -56.762  1.00  0.00     0.162 HD
BRANCH   3   6
HETATM    6  C   UNL     1     -43.245  55.807 -58.303  1.00  0.00     0.239 C 
BRANCH   6   7
HETATM    7  N   UNL     1     -43.606  57.103 -58.833  1.00  0.00    -0.259 N 
HETATM    8  C   UNL     1     -44.864  57.451 -59.200  1.00  0.00     0.326 A 
HETATM    9  N   UNL     1     -44.860  58.765 -59.592  1.00  0.00    -0.324 N 
HETATM   10  O   UNL     1     -45.848  56.730 -59.210  1.00  0.00    -0.247 OA
HETATM   11  C   UNL     1     -43.538  59.368 -59.533  1.00  0.00     0.119 A 
HETATM   12  H   UNL     1     -45.703  59.215 -59.927  1.00  0.00     0.165 HD
HETATM   13  C   UNL     1     -43.520  60.575 -58.566  1.00  0.00     0.019 C 
HETATM   14  C   UNL     1     -42.743  58.149 -59.003  1.00  0.00     0.257 A 
HETATM   15  C   UNL     1     -43.084  59.736 -60.953  1.00  0.00     0.041 C 
HETATM   16  C   UNL     1     -43.824  60.206 -57.108  1.00  0.00     0.013 C 
HETATM   17  C   UNL     1     -42.196  61.353 -58.637  1.00  0.00     0.007 C 
HETATM   18  C   UNL     1     -41.847  61.751 -60.066  1.00  0.00     0.001 C 
HETATM   19  C   UNL     1     -41.786  60.538 -60.985  1.00  0.00     0.003 C 
HETATM   20  O   UNL     1     -41.545  58.139 -58.758  1.00  0.00    -0.270 OA
ENDBRANCH   6   7
ENDBRANCH   3   6
ENDBRANCH   1   2
BRANCH   1  21
HETATM   21  C   UNL     1     -41.499  55.030 -54.072  1.00  0.00     0.071 C 
BRANCH  21  22
HETATM   22  C   UNL     1     -40.947  54.101 -53.015  1.00  0.00    -0.020 A 
HETATM   23  C   UNL     1     -40.518  52.742 -53.219  1.00  0.00    -0.001 A 
HETATM   24  C   UNL     1     -40.067  52.252 -51.993  1.00  0.00     0.042 A 
HETATM   25  C   UNL     1     -40.464  51.886 -54.339  1.00  0.00     0.014 A 
HETATM   26  C   UNL     1     -39.559  50.957 -51.832  1.00  0.00     0.030 A 
HETATM   27  N   UNL     1     -40.224  53.259 -51.073  1.00  0.00    -0.365 N 
HETATM   28  C   UNL     1     -39.510  50.134 -52.960  1.00  0.00     0.002 A 
HETATM   29  C   UNL     1     -39.957  50.589 -54.198  1.00  0.00     0.001 A 
HETATM   30  H   UNL     1     -39.975  53.185 -50.096  1.00  0.00     0.165 HD
HETATM   31  C   UNL     1     -40.756  54.369 -51.669  1.00  0.00     0.097 A 
ENDBRANCH  21  22
BRANCH  21  32
HETATM   32  C   UNL     1     -41.625  56.384 -53.382  1.00  0.00    -0.048 A 
HETATM   33  C   UNL     1     -40.637  57.361 -53.588  1.00  0.00     0.011 A 
HETATM   34  C   UNL     1     -40.737  58.620 -52.988  1.00  0.00     0.037 A 
HETATM   35  C   UNL     1     -41.824  58.937 -52.175  1.00  0.00     0.068 A 
HETATM   36  C   UNL     1     -42.798  57.969 -51.939  1.00  0.00     0.037 A 
HETATM   37  C   UNL     1     -42.697  56.706 -52.534  1.00  0.00     0.011 A 
BRANCH  35  38
HETATM   38  O   UNL     1     -41.814  60.206 -51.666  1.00  0.00    -0.356 OA
HETATM   39  C   UNL     1     -41.865  60.323 -50.249  1.00  0.00     0.210 C 
ENDBRANCH  35  38
ENDBRANCH  21  32
ENDBRANCH   1  21
TORSDOF 7
ENDMDL
MODEL 7
REMARK VINA RESULT:      -8.5      1.777      4.798
REMARK  7 active torsions:
REMARK  status: ('A' for Active; 'I' for Inactive)
REMARK    1  A    between atoms: N_7  and  C_8 
REMARK    2  A    between atoms: C_8  and  C_9 
REMARK       I    between atoms: C_9  and  N_10 
REMARK    3  A    between atoms: N_10  and  C_11 
REMARK    4  A    between atoms: C_11  and  C_12 
REMARK    5  A    between atoms: C_12  and  C_13 
REMARK    6  A    between atoms: C_12  and  C_23 
REMARK    7  A    between atoms: C_26  and  O_27 
ROOT
HETATM    1  C   UNL     1     -42.713  54.638 -55.739  1.00  0.00     0.136 C 
ENDROOT
BRANCH   1   2
HETATM    2  N   UNL     1     -42.391  55.852 -56.473  1.00  0.00    -0.359 N 
HETATM    3  C   UNL     1     -42.851  56.047 -57.758  1.00  0.00     0.236 C 
HETATM    4  O   UNL     1     -43.554  55.229 -58.347  1.00  0.00    -0.272 OA
HETATM    5  H   UNL     1     -41.881  56.602 -56.003  1.00  0.00     0.162 HD
BRANCH   3   6
HETATM    6  C   UNL     1     -42.393  57.348 -58.405  1.00  0.00     0.239 C 
BRANCH   6   7
HETATM    7  N   UNL     1     -43.279  58.431 -58.042  1.00  0.00    -0.259 N 
HETATM    8  C   UNL     1     -44.405  58.754 -58.727  1.00  0.00     0.326 A 
HETATM    9  N   UNL     1     -45.037  59.781 -58.073  1.00  0.00    -0.324 N 
HETATM   10  O   UNL     1     -44.799  58.248 -59.765  1.00  0.00    -0.247 OA
HETATM   11  C   UNL     1     -44.315  60.228 -56.893  1.00  0.00     0.119 A 
HETATM   12  H   UNL     1     -45.890  60.186 -58.436  1.00  0.00     0.165 HD
HETATM   13  C   UNL     1     -45.176  60.062 -55.619  1.00  0.00     0.019 C 
HETATM   14  C   UNL     1     -43.120  59.244 -56.955  1.00  0.00     0.257 A 
HETATM   15  C   UNL     1     -43.840  61.672 -57.106  1.00  0.00     0.041 C 
HETATM   16  C   UNL     1     -45.539  58.604 -55.301  1.00  0.00     0.013 C 
HETATM   17  C   UNL     1     -44.520  60.710 -54.389  1.00  0.00     0.007 C 
HETATM   18  C   UNL     1     -44.144  62.165 -54.647  1.00  0.00     0.001 C 
HETATM   19  C   UNL     1     -43.227  62.298 -55.855  1.00  0.00     0.003 C 
HETATM   20  O   UNL     1     -42.203  59.193 -56.148  1.00  0.00    -0.270 OA
ENDBRANCH   6   7
ENDBRANCH   3   6
ENDBRANCH   1   2
BRANCH   1  21
HETATM   21  C   UNL     1     -42.551  54.764 -54.211  1.00  0.00     0.071 C 
BRANCH  21  22
HETATM   22  C   UNL     1     -42.073  56.121 -53.748  1.00  0.00    -0.020 A 
HETATM   23  C   UNL     1     -42.798  57.033 -52.901  1.00  0.00    -0.001 A 
HETATM   24  C   UNL     1     -41.996  58.158 -52.706  1.00  0.00     0.042 A 
HETATM   25  C   UNL     1     -44.060  56.998 -52.273  1.00  0.00     0.014 A 
HETATM   26  C   UNL     1     -42.388  59.243 -51.914  1.00  0.00     0.030 A 
HETATM   27  N   UNL     1     -40.836  57.954 -53.414  1.00  0.00    -0.365 N 
HETATM   28  C   UNL     1     -43.641  59.179 -51.298  1.00  0.00     0.002 A 
HETATM   29  C   UNL     1     -44.468  58.074 -51.475  1.00  0.00     0.001 A 
HETATM   30  H   UNL     1     -40.068  58.609 -53.451  1.00  0.00     0.165 HD
HETATM   31  C   UNL     1     -40.872  56.743 -54.047  1.00  0.00     0.097 A 
ENDBRANCH  21  22
BRANCH  21  32
HETATM   32  C   UNL     1     -41.570  53.770 -53.602  1.00  0.00    -0.048 A 
HETATM   33  C   UNL     1     -41.386  53.741 -52.210  1.00  0.00     0.011 A 
HETATM   34  C   UNL     1     -40.510  52.825 -51.620  1.00  0.00     0.037 A 
HETATM   35  C   UNL     1     -39.803  51.912 -52.401  1.00  0.00     0.068 A 
HETATM   36  C   UNL     1     -39.954  51.945 -53.785  1.00  0.00     0.037 A 
HETATM   37  C   UNL     1     -40.826  52.866 -54.379  1.00  0.00     0.011 A 
BRANCH  35  38
HETATM   38  O   UNL     1     -38.997  51.057 -51.701  1.00  0.00    -0.356 OA
HETATM   39  C   UNL     1     -39.601  49.861 -51.224  1.00  0.00     0.210 C 
ENDBRANCH  35  38
ENDBRANCH  21  32
ENDBRANCH   1  21
TORSDOF 7
ENDMDL
MODEL 8
REMARK VINA RESULT:      -8.5      2.410      5.741
REMARK  7 active torsions:
REMARK  status: ('A' for Active; 'I' for Inactive)
REMARK    1  A    between atoms: N_7  and  C_8 
REMARK    2  A    between atoms: C_8  and  C_9 
REMARK       I    between atoms: C_9  and  N_10 
REMARK    3  A    between atoms: N_10  and  C_11 
REMARK    4  A    between atoms: C_11  and  C_12 
REMARK    5  A    between atoms: C_12  and  C_13 
REMARK    6  A    between atoms: C_12  and  C_23 
REMARK    7  A    between atoms: C_26  and  O_27 
ROOT
HETATM    1  C   UNL     1     -41.918  56.967 -55.356  1.00  0.00     0.136 C 
ENDROOT
BRANCH   1   2
HETATM    2  N   UNL     1     -42.894  57.846 -55.981  1.00  0.00    -0.359 N 
HETATM    3  C   UNL     1     -42.664  59.202 -56.084  1.00  0.00     0.236 C 
HETATM    4  O   UNL     1     -41.639  59.738 -55.670  1.00  0.00    -0.272 OA
HETATM    5  H   UNL     1     -43.726  57.443 -56.418  1.00  0.00     0.162 HD
BRANCH   3   6
HETATM    6  C   UNL     1     -43.799  59.991 -56.726  1.00  0.00     0.239 C 
BRANCH   6   7
HETATM    7  N   UNL     1     -44.052  59.510 -58.065  1.00  0.00    -0.259 N 
HETATM    8  C   UNL     1     -43.396  59.949 -59.168  1.00  0.00     0.326 A 
HETATM    9  N   UNL     1     -43.836  59.237 -60.255  1.00  0.00    -0.324 N 
HETATM   10  O   UNL     1     -42.566  60.842 -59.216  1.00  0.00    -0.247 OA
HETATM   11  C   UNL     1     -44.871  58.274 -59.917  1.00  0.00     0.119 A 
HETATM   12  H   UNL     1     -43.484  59.429 -61.184  1.00  0.00     0.165 HD
HETATM   13  C   UNL     1     -44.425  56.834 -60.264  1.00  0.00     0.019 C 
HETATM   14  C   UNL     1     -44.954  58.536 -58.392  1.00  0.00     0.257 A 
HETATM   15  C   UNL     1     -46.182  58.674 -60.607  1.00  0.00     0.041 C 
HETATM   16  C   UNL     1     -43.200  56.356 -59.472  1.00  0.00     0.013 C 
HETATM   17  C   UNL     1     -45.570  55.820 -60.107  1.00  0.00     0.007 C 
HETATM   18  C   UNL     1     -46.813  56.244 -60.881  1.00  0.00     0.001 C 
HETATM   19  C   UNL     1     -47.286  57.630 -60.463  1.00  0.00     0.003 C 
HETATM   20  O   UNL     1     -45.690  57.948 -57.613  1.00  0.00    -0.270 OA
ENDBRANCH   6   7
ENDBRANCH   3   6
ENDBRANCH   1   2
BRANCH   1  21
HETATM   21  C   UNL     1     -42.478  56.138 -54.183  1.00  0.00     0.071 C 
BRANCH  21  22
HETATM   22  C   UNL     1     -42.540  56.884 -52.870  1.00  0.00    -0.020 A 
HETATM   23  C   UNL     1     -41.519  57.746 -52.335  1.00  0.00    -0.001 A 
HETATM   24  C   UNL     1     -41.980  58.242 -51.115  1.00  0.00     0.042 A 
HETATM   25  C   UNL     1     -40.247  58.159 -52.783  1.00  0.00     0.014 A 
HETATM   26  C   UNL     1     -41.240  59.131 -50.326  1.00  0.00     0.030 A 
HETATM   27  N   UNL     1     -43.224  57.698 -50.902  1.00  0.00    -0.365 N 
HETATM   28  C   UNL     1     -39.986  59.529 -50.798  1.00  0.00     0.002 A 
HETATM   29  C   UNL     1     -39.493  59.050 -52.008  1.00  0.00     0.001 A 
HETATM   30  H   UNL     1     -43.798  57.885 -50.092  1.00  0.00     0.165 HD
HETATM   31  C   UNL     1     -43.568  56.878 -51.941  1.00  0.00     0.097 A 
ENDBRANCH  21  22
BRANCH  21  32
HETATM   32  C   UNL     1     -41.690  54.869 -53.881  1.00  0.00    -0.048 A 
HETATM   33  C   UNL     1     -40.957  54.247 -54.905  1.00  0.00     0.011 A 
HETATM   34  C   UNL     1     -40.206  53.095 -54.653  1.00  0.00     0.037 A 
HETATM   35  C   UNL     1     -40.161  52.540 -53.375  1.00  0.00     0.068 A 
HETATM   36  C   UNL     1     -40.904  53.129 -52.355  1.00  0.00     0.037 A 
HETATM   37  C   UNL     1     -41.662  54.279 -52.606  1.00  0.00     0.011 A 
BRANCH  35  38
HETATM   38  O   UNL     1     -39.375  51.428 -53.256  1.00  0.00    -0.356 OA
HETATM   39  C   UNL     1     -39.705  50.324 -54.090  1.00  0.00     0.210 C 
ENDBRANCH  35  38
ENDBRANCH  21  32
ENDBRANCH   1  21
TORSDOF 7
ENDMDL
MODEL 9
REMARK VINA RESULT:      -8.4      1.583      2.735
REMARK  7 active torsions:
REMARK  status: ('A' for Active; 'I' for Inactive)
REMARK    1  A    between atoms: N_7  and  C_8 
REMARK    2  A    between atoms: C_8  and  C_9 
REMARK       I    between atoms: C_9  and  N_10 
REMARK    3  A    between atoms: N_10  and  C_11 
REMARK    4  A    between atoms: C_11  and  C_12 
REMARK    5  A    between atoms: C_12  and  C_13 
REMARK    6  A    between atoms: C_12  and  C_23 
REMARK    7  A    between atoms: C_26  and  O_27 
ROOT
HETATM    1  C   UNL     1     -42.038  54.306 -54.960  1.00  0.00     0.136 C 
ENDROOT
BRANCH   1   2
HETATM    2  N   UNL     1     -41.994  55.016 -56.229  1.00  0.00    -0.359 N 
HETATM    3  C   UNL     1     -42.869  56.049 -56.494  1.00  0.00     0.236 C 
HETATM    4  O   UNL     1     -43.715  56.430 -55.689  1.00  0.00    -0.272 OA
HETATM    5  H   UNL     1     -41.257  54.797 -56.901  1.00  0.00     0.162 HD
BRANCH   3   6
HETATM    6  C   UNL     1     -42.723  56.663 -57.881  1.00  0.00     0.239 C 
BRANCH   6   7
HETATM    7  N   UNL     1     -43.480  57.891 -57.971  1.00  0.00    -0.259 N 
HETATM    8  C   UNL     1     -43.005  59.106 -57.597  1.00  0.00     0.326 A 
HETATM    9  N   UNL     1     -43.955  60.055 -57.878  1.00  0.00    -0.324 N 
HETATM   10  O   UNL     1     -41.927  59.339 -57.076  1.00  0.00    -0.247 OA
HETATM   11  C   UNL     1     -45.168  59.488 -58.445  1.00  0.00     0.119 A 
HETATM   12  H   UNL     1     -43.804  61.029 -57.654  1.00  0.00     0.165 HD
HETATM   13  C   UNL     1     -45.445  60.065 -59.854  1.00  0.00     0.019 C 
HETATM   14  C   UNL     1     -44.748  57.997 -58.469  1.00  0.00     0.257 A 
HETATM   15  C   UNL     1     -46.334  59.708 -57.472  1.00  0.00     0.041 C 
HETATM   16  C   UNL     1     -44.361  59.728 -60.887  1.00  0.00     0.013 C 
HETATM   17  C   UNL     1     -46.821  59.641 -60.392  1.00  0.00     0.007 C 
HETATM   18  C   UNL     1     -47.939  59.958 -59.406  1.00  0.00     0.001 C 
HETATM   19  C   UNL     1     -47.689  59.310 -58.051  1.00  0.00     0.003 C 
HETATM   20  O   UNL     1     -45.435  57.076 -58.886  1.00  0.00    -0.270 OA
ENDBRANCH   6   7
ENDBRANCH   3   6
ENDBRANCH   1   2
BRANCH   1  21
HETATM   21  C   UNL     1     -41.040  54.831 -53.910  1.00  0.00     0.071 C 
BRANCH  21  22
HETATM   22  C   UNL     1     -40.587  53.793 -52.909  1.00  0.00    -0.020 A 
HETATM   23  C   UNL     1     -40.305  52.409 -53.190  1.00  0.00    -0.001 A 
HETATM   24  C   UNL     1     -39.906  51.807 -51.996  1.00  0.00     0.042 A 
HETATM   25  C   UNL     1     -40.342  51.615 -54.356  1.00  0.00     0.014 A 
HETATM   26  C   UNL     1     -39.538  50.460 -51.909  1.00  0.00     0.030 A 
HETATM   27  N   UNL     1     -39.955  52.774 -51.021  1.00  0.00    -0.365 N 
HETATM   28  C   UNL     1     -39.577  49.699 -53.081  1.00  0.00     0.002 A 
HETATM   29  C   UNL     1     -39.975  50.266 -54.288  1.00  0.00     0.001 A 
HETATM   30  H   UNL     1     -39.714  52.620 -50.052  1.00  0.00     0.165 HD
HETATM   31  C   UNL     1     -40.368  53.965 -51.552  1.00  0.00     0.097 A 
ENDBRANCH  21  22
BRANCH  21  32
HETATM   32  C   UNL     1     -41.566  55.988 -53.069  1.00  0.00    -0.048 A 
HETATM   33  C   UNL     1     -40.862  57.203 -53.043  1.00  0.00     0.011 A 
HETATM   34  C   UNL     1     -41.332  58.290 -52.299  1.00  0.00     0.037 A 
HETATM   35  C   UNL     1     -42.517  58.194 -51.571  1.00  0.00     0.068 A 
HETATM   36  C   UNL     1     -43.213  56.988 -51.565  1.00  0.00     0.037 A 
HETATM   37  C   UNL     1     -42.740  55.896 -52.304  1.00  0.00     0.011 A 
BRANCH  35  38
HETATM   38  O   UNL     1     -42.878  59.333 -50.904  1.00  0.00    -0.356 OA
HETATM   39  C   UNL     1     -41.836  60.256 -50.613  1.00  0.00     0.210 C 
ENDBRANCH  35  38
ENDBRANCH  21  32
ENDBRANCH   1  21
TORSDOF 7
ENDMDL
MODEL 10
REMARK VINA RESULT:      -8.2      2.561      5.577
REMARK  7 active torsions:
REMARK  status: ('A' for Active; 'I' for Inactive)
REMARK    1  A    between atoms: N_7  and  C_8 
REMARK    2  A    between atoms: C_8  and  C_9 
REMARK       I    between atoms: C_9  and  N_10 
REMARK    3  A    between atoms: N_10  and  C_11 
REMARK    4  A    between atoms: C_11  and  C_12 
REMARK    5  A    between atoms: C_12  and  C_13 
REMARK    6  A    between atoms: C_12  and  C_23 
REMARK    7  A    between atoms: C_26  and  O_27 
ROOT
HETATM    1  C   UNL     1     -43.209  55.771 -54.700  1.00  0.00     0.136 C 
ENDROOT
BRANCH   1   2
HETATM    2  N   UNL     1     -44.313  56.718 -54.724  1.00  0.00    -0.359 N 
HETATM    3  C   UNL     1     -44.220  57.898 -55.432  1.00  0.00     0.236 C 
HETATM    4  O   UNL     1     -43.224  58.212 -56.078  1.00  0.00    -0.272 OA
HETATM    5  H   UNL     1     -45.196  56.470 -54.274  1.00  0.00     0.162 HD
BRANCH   3   6
HETATM    6  C   UNL     1     -45.443  58.800 -55.323  1.00  0.00     0.239 C 
BRANCH   6   7
HETATM    7  N   UNL     1     -45.163  59.928 -54.464  1.00  0.00    -0.259 N 
HETATM    8  C   UNL     1     -44.999  61.200 -54.907  1.00  0.00     0.326 A 
HETATM    9  N   UNL     1     -44.815  62.023 -53.825  1.00  0.00    -0.324 N 
HETATM   10  O   UNL     1     -44.990  61.573 -56.069  1.00  0.00    -0.247 OA
HETATM   11  C   UNL     1     -44.815  61.302 -52.562  1.00  0.00     0.119 A 
HETATM   12  H   UNL     1     -44.651  63.014 -53.943  1.00  0.00     0.165 HD
HETATM   13  C   UNL     1     -45.947  61.805 -51.636  1.00  0.00     0.019 C 
HETATM   14  C   UNL     1     -45.058  59.871 -53.102  1.00  0.00     0.257 A 
HETATM   15  C   UNL     1     -43.426  61.410 -51.916  1.00  0.00     0.041 C 
HETATM   16  C   UNL     1     -47.357  61.571 -52.196  1.00  0.00     0.013 C 
HETATM   17  C   UNL     1     -45.847  61.208 -50.223  1.00  0.00     0.007 C 
HETATM   18  C   UNL     1     -44.465  61.418 -49.615  1.00  0.00     0.001 C 
HETATM   19  C   UNL     1     -43.371  60.840 -50.501  1.00  0.00     0.003 C 
HETATM   20  O   UNL     1     -45.162  58.865 -52.416  1.00  0.00    -0.270 OA
ENDBRANCH   6   7
ENDBRANCH   3   6
ENDBRANCH   1   2
BRANCH   1  21
HETATM   21  C   UNL     1     -43.026  55.052 -53.349  1.00  0.00     0.071 C 
BRANCH  21  22
HETATM   22  C   UNL     1     -42.603  55.958 -52.216  1.00  0.00    -0.020 A 
HETATM   23  C   UNL     1     -41.625  57.012 -52.291  1.00  0.00    -0.001 A 
HETATM   24  C   UNL     1     -41.547  57.608 -51.031  1.00  0.00     0.042 A 
HETATM   25  C   UNL     1     -40.805  57.521 -53.320  1.00  0.00     0.014 A 
HETATM   26  C   UNL     1     -40.699  58.686 -50.751  1.00  0.00     0.030 A 
HETATM   27  N   UNL     1     -42.427  56.940 -50.214  1.00  0.00    -0.365 N 
HETATM   28  C   UNL     1     -39.904  59.174 -51.791  1.00  0.00     0.002 A 
HETATM   29  C   UNL     1     -39.953  58.600 -53.058  1.00  0.00     0.001 A 
HETATM   30  H   UNL     1     -42.583  57.162 -49.241  1.00  0.00     0.165 HD
HETATM   31  C   UNL     1     -43.061  55.947 -50.908  1.00  0.00     0.097 A 
ENDBRANCH  21  22
BRANCH  21  32
HETATM   32  C   UNL     1     -41.989  53.935 -53.371  1.00  0.00    -0.048 A 
HETATM   33  C   UNL     1     -41.301  53.604 -52.192  1.00  0.00     0.011 A 
HETATM   34  C   UNL     1     -40.362  52.569 -52.175  1.00  0.00     0.037 A 
HETATM   35  C   UNL     1     -40.089  51.836 -53.329  1.00  0.00     0.068 A 
HETATM   36  C   UNL     1     -40.742  52.170 -54.513  1.00  0.00     0.037 A 
HETATM   37  C   UNL     1     -41.679  53.210 -54.534  1.00  0.00     0.011 A 
BRANCH  35  38
HETATM   38  O   UNL     1     -39.166  50.838 -53.175  1.00  0.00    -0.356 OA
HETATM   39  C   UNL     1     -39.215  49.776 -54.120  1.00  0.00     0.210 C 
ENDBRANCH  35  38
ENDBRANCH  21  32
ENDBRANCH   1  21
TORSDOF 7
ENDMDL
