MODEL 1
REMARK VINA RESULT:      -9.6      0.000      0.000
REMARK  7 active torsions:
REMARK  status: ('A' for Active; 'I' for Inactive)
REMARK    1  A    between atoms: N_8  and  C_9 
REMARK    2  A    between atoms: C_9  and  C_10 
REMARK    3  A    between atoms: C_13  and  C_14 
REMARK       I    between atoms: C_14  and  N_15 
REMARK    4  A    between atoms: N_15  and  N_16 
REMARK    5  A    between atoms: C_17  and  C_18 
REMARK    6  A    between atoms: C_19  and  O_20 
REMARK    7  A    between atoms: C_22  and  O_23 
ROOT
HETATM    1  C   UNL     1     -42.192  57.011 -53.106  1.00  0.00    -0.040 A 
HETATM    2  C   UNL     1     -41.835  58.137 -52.351  1.00  0.00     0.010 A 
HETATM    3  C   UNL     1     -42.772  58.770 -51.530  1.00  0.00     0.017 A 
HETATM    4  C   UNL     1     -44.084  58.290 -51.448  1.00  0.00     0.033 A 
HETATM    5  C   UNL     1     -44.441  57.152 -52.182  1.00  0.00     0.017 A 
HETATM    6  C   UNL     1     -43.503  56.523 -53.008  1.00  0.00     0.010 A 
ENDROOT
BRANCH   4   7
HETATM    7  C   UNL     1     -45.036  58.990 -50.537  1.00  0.00     0.271 C 
HETATM    8  N   UNL     1     -44.506  60.020 -49.771  1.00  0.00    -0.243 N 
HETATM    9  H   UNL     1     -43.513  60.211 -49.756  1.00  0.00     0.192 HD
HETATM   10  O   UNL     1     -46.208  58.626 -50.489  1.00  0.00    -0.266 OA
BRANCH   8  11
HETATM   11  N   UNL     1     -45.335  60.725 -48.952  1.00  0.00    -0.183 NA
HETATM   12  C   UNL     1     -44.764  61.493 -48.081  1.00  0.00     0.153 C 
BRANCH  12  13
HETATM   13  C   UNL     1     -45.577  62.309 -47.156  1.00  0.00     0.016 A 
HETATM   14  C   UNL     1     -46.838  62.807 -47.515  1.00  0.00     0.080 A 
HETATM   15  C   UNL     1     -47.571  63.580 -46.617  1.00  0.00     0.074 A 
HETATM   16  C   UNL     1     -47.037  63.857 -45.363  1.00  0.00     0.068 A 
HETATM   17  C   UNL     1     -45.787  63.370 -44.994  1.00  0.00     0.037 A 
HETATM   18  C   UNL     1     -45.050  62.592 -45.891  1.00  0.00     0.018 A 
BRANCH  14  19
HETATM   19  O   UNL     1     -47.421  62.576 -48.731  1.00  0.00    -0.360 OA
HETATM   20  H   UNL     1     -47.228  61.650 -49.005  1.00  0.00     0.217 HD
ENDBRANCH  14  19
BRANCH  16  21
HETATM   21  O   UNL     1     -47.716  64.612 -44.454  1.00  0.00    -0.361 OA
HETATM   22  H   UNL     1     -47.163  65.375 -44.213  1.00  0.00     0.217 HD
ENDBRANCH  16  21
ENDBRANCH  12  13
ENDBRANCH   8  11
ENDBRANCH   4   7
BRANCH   1  23
HETATM   23  C   UNL     1     -41.165  56.317 -53.972  1.00  0.00     0.171 C 
BRANCH  23  24
HETATM   24  N   UNL     1     -40.841  54.993 -53.495  1.00  0.00    -0.309 N 
HETATM   25  C   UNL     1     -40.726  54.600 -52.158  1.00  0.00     0.050 A 
HETATM   26  C   UNL     1     -40.366  53.271 -52.161  1.00  0.00     0.017 A 
HETATM   27  C   UNL     1     -40.914  55.280 -50.965  1.00  0.00     0.031 A 
HETATM   28  C   UNL     1     -40.258  52.831 -53.466  1.00  0.00     0.045 A 
HETATM   29  C   UNL     1     -40.158  52.514 -51.047  1.00  0.00    -0.023 A 
HETATM   30  C   UNL     1     -39.903  51.507 -53.716  1.00  0.00     0.018 A 
HETATM   31  C   UNL     1     -40.560  53.920 -54.375  1.00  0.00     0.259 A 
HETATM   32  C   UNL     1     -39.676  50.688 -52.593  1.00  0.00     0.002 A 
HETATM   33  C   UNL     1     -39.799  51.172 -51.273  1.00  0.00     0.012 A 
HETATM   34  O   UNL     1     -40.593  53.966 -55.599  1.00  0.00    -0.267 OA
HETATM   35  C   UNL     1     -40.332  53.172 -49.815  1.00  0.00     0.012 A 
HETATM   36  C   UNL     1     -40.705  54.534 -49.786  1.00  0.00     0.003 A 
ENDBRANCH  23  24
ENDBRANCH   1  23
TORSDOF 7
ENDMDL
MODEL 2
REMARK VINA RESULT:      -9.2      1.922      2.659
REMARK  7 active torsions:
REMARK  status: ('A' for Active; 'I' for Inactive)
REMARK    1  A    between atoms: N_8  and  C_9 
REMARK    2  A    between atoms: C_9  and  C_10 
REMARK    3  A    between atoms: C_13  and  C_14 
REMARK       I    between atoms: C_14  and  N_15 
REMARK    4  A    between atoms: N_15  and  N_16 
REMARK    5  A    between atoms: C_17  and  C_18 
REMARK    6  A    between atoms: C_19  and  O_20 
REMARK    7  A    between atoms: C_22  and  O_23 
ROOT
HETATM    1  C   UNL     1     -44.256  57.929 -52.867  1.00  0.00    -0.040 A 
HETATM    2  C   UNL     1     -45.254  58.094 -51.896  1.00  0.00     0.010 A 
HETATM    3  C   UNL     1     -45.134  59.079 -50.912  1.00  0.00     0.017 A 
HETATM    4  C   UNL     1     -44.014  59.918 -50.881  1.00  0.00     0.033 A 
HETATM    5  C   UNL     1     -43.025  59.774 -51.862  1.00  0.00     0.017 A 
HETATM    6  C   UNL     1     -43.144  58.783 -52.842  1.00  0.00     0.010 A 
ENDROOT
BRANCH   4   7
HETATM    7  C   UNL     1     -43.950  60.969 -49.823  1.00  0.00     0.271 C 
HETATM    8  N   UNL     1     -44.720  60.746 -48.689  1.00  0.00    -0.243 N 
HETATM    9  H   UNL     1     -45.366  59.970 -48.634  1.00  0.00     0.192 HD
HETATM   10  O   UNL     1     -43.255  61.966 -50.001  1.00  0.00    -0.266 OA
BRANCH   8  11
HETATM   11  N   UNL     1     -44.669  61.649 -47.671  1.00  0.00    -0.183 NA
HETATM   12  C   UNL     1     -44.851  61.180 -46.479  1.00  0.00     0.153 C 
BRANCH  12  13
HETATM   13  C   UNL     1     -44.801  62.076 -45.306  1.00  0.00     0.016 A 
HETATM   14  C   UNL     1     -45.482  63.302 -45.276  1.00  0.00     0.080 A 
HETATM   15  C   UNL     1     -45.404  64.124 -44.155  1.00  0.00     0.074 A 
HETATM   16  C   UNL     1     -44.639  63.718 -43.065  1.00  0.00     0.068 A 
HETATM   17  C   UNL     1     -43.958  62.505 -43.081  1.00  0.00     0.037 A 
HETATM   18  C   UNL     1     -44.037  61.677 -44.204  1.00  0.00     0.018 A 
BRANCH  14  19
HETATM   19  O   UNL     1     -46.248  63.764 -46.313  1.00  0.00    -0.360 OA
HETATM   20  H   UNL     1     -47.198  63.625 -46.090  1.00  0.00     0.217 HD
ENDBRANCH  14  19
BRANCH  16  21
HETATM   21  O   UNL     1     -44.530  64.491 -41.948  1.00  0.00    -0.361 OA
HETATM   22  H   UNL     1     -44.346  63.912 -41.190  1.00  0.00     0.217 HD
ENDBRANCH  16  21
ENDBRANCH  12  13
ENDBRANCH   8  11
ENDBRANCH   4   7
BRANCH   1  23
HETATM   23  C   UNL     1     -44.406  56.877 -53.943  1.00  0.00     0.171 C 
BRANCH  23  24
HETATM   24  N   UNL     1     -43.370  55.874 -53.888  1.00  0.00    -0.309 N 
HETATM   25  C   UNL     1     -42.946  55.185 -52.748  1.00  0.00     0.050 A 
HETATM   26  C   UNL     1     -41.917  54.358 -53.139  1.00  0.00     0.017 A 
HETATM   27  C   UNL     1     -43.376  55.205 -51.430  1.00  0.00     0.031 A 
HETATM   28  C   UNL     1     -41.694  54.518 -54.494  1.00  0.00     0.045 A 
HETATM   29  C   UNL     1     -41.233  53.514 -52.316  1.00  0.00    -0.023 A 
HETATM   30  C   UNL     1     -40.693  53.776 -55.116  1.00  0.00     0.018 A 
HETATM   31  C   UNL     1     -42.620  55.497 -55.029  1.00  0.00     0.259 A 
HETATM   32  C   UNL     1     -39.959  52.891 -54.302  1.00  0.00     0.002 A 
HETATM   33  C   UNL     1     -40.216  52.753 -52.921  1.00  0.00     0.012 A 
HETATM   34  O   UNL     1     -42.776  55.927 -56.165  1.00  0.00    -0.267 OA
HETATM   35  C   UNL     1     -41.636  53.512 -50.967  1.00  0.00     0.012 A 
HETATM   36  C   UNL     1     -42.692  54.347 -50.542  1.00  0.00     0.003 A 
ENDBRANCH  23  24
ENDBRANCH   1  23
TORSDOF 7
ENDMDL
MODEL 3
REMARK VINA RESULT:      -9.1      5.638      8.243
REMARK  7 active torsions:
REMARK  status: ('A' for Active; 'I' for Inactive)
REMARK    1  A    between atoms: N_8  and  C_9 
REMARK    2  A    between atoms: C_9  and  C_10 
REMARK    3  A    between atoms: C_13  and  C_14 
REMARK       I    between atoms: C_14  and  N_15 
REMARK    4  A    between atoms: N_15  and  N_16 
REMARK    5  A    between atoms: C_17  and  C_18 
REMARK    6  A    between atoms: C_19  and  O_20 
REMARK    7  A    between atoms: C_22  and  O_23 
ROOT
HETATM    1  C   UNL     1     -41.774  56.012 -51.734  1.00  0.00    -0.040 A 
HETATM    2  C   UNL     1     -41.295  57.065 -52.526  1.00  0.00     0.010 A 
HETATM    3  C   UNL     1     -42.116  57.664 -53.486  1.00  0.00     0.017 A 
HETATM    4  C   UNL     1     -43.431  57.222 -53.671  1.00  0.00     0.033 A 
HETATM    5  C   UNL     1     -43.923  56.186 -52.868  1.00  0.00     0.017 A 
HETATM    6  C   UNL     1     -43.098  55.583 -51.912  1.00  0.00     0.010 A 
ENDROOT
BRANCH   4   7
HETATM    7  C   UNL     1     -44.270  57.915 -54.693  1.00  0.00     0.271 C 
HETATM    8  N   UNL     1     -44.426  57.258 -55.906  1.00  0.00    -0.243 N 
HETATM    9  H   UNL     1     -43.914  56.412 -56.119  1.00  0.00     0.192 HD
HETATM   10  O   UNL     1     -44.757  59.012 -54.433  1.00  0.00    -0.266 OA
BRANCH   8  11
HETATM   11  N   UNL     1     -45.216  57.820 -56.862  1.00  0.00    -0.183 NA
HETATM   12  C   UNL     1     -44.732  57.851 -58.062  1.00  0.00     0.153 C 
BRANCH  12  13
HETATM   13  C   UNL     1     -45.517  58.428 -59.172  1.00  0.00     0.016 A 
HETATM   14  C   UNL     1     -46.644  57.783 -59.701  1.00  0.00     0.080 A 
HETATM   15  C   UNL     1     -47.354  58.355 -60.753  1.00  0.00     0.074 A 
HETATM   16  C   UNL     1     -46.931  59.572 -61.277  1.00  0.00     0.068 A 
HETATM   17  C   UNL     1     -45.814  60.224 -60.762  1.00  0.00     0.037 A 
HETATM   18  C   UNL     1     -45.102  59.653 -59.705  1.00  0.00     0.018 A 
BRANCH  14  19
HETATM   19  O   UNL     1     -47.113  56.583 -59.236  1.00  0.00    -0.360 OA
HETATM   20  H   UNL     1     -48.005  56.723 -58.842  1.00  0.00     0.217 HD
ENDBRANCH  14  19
BRANCH  16  21
HETATM   21  O   UNL     1     -47.592  60.168 -62.310  1.00  0.00    -0.361 OA
HETATM   22  H   UNL     1     -46.959  60.714 -62.806  1.00  0.00     0.217 HD
ENDBRANCH  16  21
ENDBRANCH  12  13
ENDBRANCH   8  11
ENDBRANCH   4   7
BRANCH   1  23
HETATM   23  C   UNL     1     -40.889  55.386 -50.680  1.00  0.00     0.171 C 
BRANCH  23  24
HETATM   24  N   UNL     1     -40.575  54.006 -50.967  1.00  0.00    -0.309 N 
HETATM   25  C   UNL     1     -40.384  53.447 -52.234  1.00  0.00     0.050 A 
HETATM   26  C   UNL     1     -40.146  52.104 -52.047  1.00  0.00     0.017 A 
HETATM   27  C   UNL     1     -40.388  53.995 -53.507  1.00  0.00     0.031 A 
HETATM   28  C   UNL     1     -40.183  51.818 -50.695  1.00  0.00     0.045 A 
HETATM   29  C   UNL     1     -39.907  51.204 -53.043  1.00  0.00    -0.023 A 
HETATM   30  C   UNL     1     -39.966  50.511 -50.264  1.00  0.00     0.018 A 
HETATM   31  C   UNL     1     -40.459  53.030 -49.948  1.00  0.00     0.259 A 
HETATM   32  C   UNL     1     -39.717  49.547 -51.261  1.00  0.00     0.002 A 
HETATM   33  C   UNL     1     -39.685  49.877 -52.633  1.00  0.00     0.012 A 
HETATM   34  O   UNL     1     -40.565  53.231 -48.744  1.00  0.00    -0.267 OA
HETATM   35  C   UNL     1     -39.911  51.722 -54.352  1.00  0.00     0.012 A 
HETATM   36  C   UNL     1     -40.148  53.097 -54.569  1.00  0.00     0.003 A 
ENDBRANCH  23  24
ENDBRANCH   1  23
TORSDOF 7
ENDMDL
MODEL 4
REMARK VINA RESULT:      -8.9      5.607      8.923
REMARK  7 active torsions:
REMARK  status: ('A' for Active; 'I' for Inactive)
REMARK    1  A    between atoms: N_8  and  C_9 
REMARK    2  A    between atoms: C_9  and  C_10 
REMARK    3  A    between atoms: C_13  and  C_14 
REMARK       I    between atoms: C_14  and  N_15 
REMARK    4  A    between atoms: N_15  and  N_16 
REMARK    5  A    between atoms: C_17  and  C_18 
REMARK    6  A    between atoms: C_19  and  O_20 
REMARK    7  A    between atoms: C_22  and  O_23 
ROOT
HETATM    1  C   UNL     1     -42.723  57.549 -52.574  1.00  0.00    -0.040 A 
HETATM    2  C   UNL     1     -43.930  56.890 -52.847  1.00  0.00     0.010 A 
HETATM    3  C   UNL     1     -44.723  57.278 -53.930  1.00  0.00     0.017 A 
HETATM    4  C   UNL     1     -44.324  58.331 -54.761  1.00  0.00     0.033 A 
HETATM    5  C   UNL     1     -43.108  58.977 -54.508  1.00  0.00     0.017 A 
HETATM    6  C   UNL     1     -42.318  58.592 -53.419  1.00  0.00     0.010 A 
ENDROOT
BRANCH   4   7
HETATM    7  C   UNL     1     -45.198  58.686 -55.918  1.00  0.00     0.271 C 
HETATM    8  N   UNL     1     -45.659  57.625 -56.687  1.00  0.00    -0.243 N 
HETATM    9  H   UNL     1     -45.334  56.680 -56.532  1.00  0.00     0.192 HD
HETATM   10  O   UNL     1     -45.450  59.866 -56.147  1.00  0.00    -0.266 OA
BRANCH   8  11
HETATM   11  N   UNL     1     -46.495  57.883 -57.730  1.00  0.00    -0.183 NA
HETATM   12  C   UNL     1     -46.139  57.411 -58.881  1.00  0.00     0.153 C 
BRANCH  12  13
HETATM   13  C   UNL     1     -46.986  57.625 -60.072  1.00  0.00     0.016 A 
HETATM   14  C   UNL     1     -47.460  58.896 -60.430  1.00  0.00     0.080 A 
HETATM   15  C   UNL     1     -48.262  59.056 -61.557  1.00  0.00     0.074 A 
HETATM   16  C   UNL     1     -48.594  57.941 -62.321  1.00  0.00     0.068 A 
HETATM   17  C   UNL     1     -48.132  56.674 -61.977  1.00  0.00     0.037 A 
HETATM   18  C   UNL     1     -47.324  56.511 -60.849  1.00  0.00     0.018 A 
BRANCH  14  19
HETATM   19  O   UNL     1     -47.176  60.033 -59.723  1.00  0.00    -0.360 OA
HETATM   20  H   UNL     1     -47.456  59.902 -58.787  1.00  0.00     0.217 HD
ENDBRANCH  14  19
BRANCH  16  21
HETATM   21  O   UNL     1     -49.381  58.049 -63.429  1.00  0.00    -0.361 OA
HETATM   22  H   UNL     1     -48.806  58.145 -64.206  1.00  0.00     0.217 HD
ENDBRANCH  16  21
ENDBRANCH  12  13
ENDBRANCH   8  11
ENDBRANCH   4   7
BRANCH   1  23
HETATM   23  C   UNL     1     -41.858  57.106 -51.415  1.00  0.00     0.171 C 
BRANCH  23  24
HETATM   24  N   UNL     1     -41.346  55.767 -51.585  1.00  0.00    -0.309 N 
HETATM   25  C   UNL     1     -40.977  55.169 -52.793  1.00  0.00     0.050 A 
HETATM   26  C   UNL     1     -40.585  53.882 -52.500  1.00  0.00     0.017 A 
HETATM   27  C   UNL     1     -40.943  55.640 -54.096  1.00  0.00     0.031 A 
HETATM   28  C   UNL     1     -40.700  53.670 -51.139  1.00  0.00     0.045 A 
HETATM   29  C   UNL     1     -40.148  52.969 -53.413  1.00  0.00    -0.023 A 
HETATM   30  C   UNL     1     -40.355  52.429 -50.608  1.00  0.00     0.018 A 
HETATM   31  C   UNL     1     -41.192  54.873 -50.497  1.00  0.00     0.259 A 
HETATM   32  C   UNL     1     -39.899  51.453 -51.517  1.00  0.00     0.002 A 
HETATM   33  C   UNL     1     -39.793  51.708 -52.900  1.00  0.00     0.012 A 
HETATM   34  O   UNL     1     -41.426  55.124 -49.321  1.00  0.00    -0.267 OA
HETATM   35  C   UNL     1     -40.107  53.408 -54.750  1.00  0.00     0.012 A 
HETATM   36  C   UNL     1     -40.499  54.725 -55.075  1.00  0.00     0.003 A 
ENDBRANCH  23  24
ENDBRANCH   1  23
TORSDOF 7
ENDMDL
MODEL 5
REMARK VINA RESULT:      -8.8      7.011     11.746
REMARK  7 active torsions:
REMARK  status: ('A' for Active; 'I' for Inactive)
REMARK    1  A    between atoms: N_8  and  C_9 
REMARK    2  A    between atoms: C_9  and  C_10 
REMARK    3  A    between atoms: C_13  and  C_14 
REMARK       I    between atoms: C_14  and  N_15 
REMARK    4  A    between atoms: N_15  and  N_16 
REMARK    5  A    between atoms: C_17  and  C_18 
REMARK    6  A    between atoms: C_19  and  O_20 
REMARK    7  A    between atoms: C_22  and  O_23 
ROOT
HETATM    1  C   UNL     1     -43.659  59.159 -57.497  1.00  0.00    -0.040 A 
HETATM    2  C   UNL     1     -43.762  58.027 -58.319  1.00  0.00     0.010 A 
HETATM    3  C   UNL     1     -43.336  56.777 -57.865  1.00  0.00     0.017 A 
HETATM    4  C   UNL     1     -42.799  56.633 -56.580  1.00  0.00     0.033 A 
HETATM    5  C   UNL     1     -42.714  57.754 -55.746  1.00  0.00     0.017 A 
HETATM    6  C   UNL     1     -43.136  59.007 -56.204  1.00  0.00     0.010 A 
ENDROOT
BRANCH   4   7
HETATM    7  C   UNL     1     -42.383  55.269 -56.139  1.00  0.00     0.271 C 
HETATM    8  N   UNL     1     -41.037  55.105 -55.840  1.00  0.00    -0.243 N 
HETATM    9  H   UNL     1     -40.363  55.839 -56.014  1.00  0.00     0.192 HD
HETATM   10  O   UNL     1     -43.219  54.371 -56.078  1.00  0.00    -0.266 OA
BRANCH   8  11
HETATM   11  N   UNL     1     -40.606  53.895 -55.390  1.00  0.00    -0.183 NA
HETATM   12  C   UNL     1     -40.764  53.662 -54.127  1.00  0.00     0.153 C 
BRANCH  12  13
HETATM   13  C   UNL     1     -40.341  52.372 -53.544  1.00  0.00     0.016 A 
HETATM   14  C   UNL     1     -39.948  52.254 -52.203  1.00  0.00     0.080 A 
HETATM   15  C   UNL     1     -39.548  51.022 -51.692  1.00  0.00     0.074 A 
HETATM   16  C   UNL     1     -39.538  49.909 -52.528  1.00  0.00     0.068 A 
HETATM   17  C   UNL     1     -39.924  50.012 -53.861  1.00  0.00     0.037 A 
HETATM   18  C   UNL     1     -40.329  51.246 -54.375  1.00  0.00     0.018 A 
BRANCH  14  19
HETATM   19  O   UNL     1     -39.931  53.306 -51.327  1.00  0.00    -0.360 OA
HETATM   20  H   UNL     1     -40.855  53.623 -51.194  1.00  0.00     0.217 HD
ENDBRANCH  14  19
BRANCH  16  21
HETATM   21  O   UNL     1     -39.150  48.684 -52.074  1.00  0.00    -0.361 OA
HETATM   22  H   UNL     1     -38.512  48.309 -52.704  1.00  0.00     0.217 HD
ENDBRANCH  16  21
ENDBRANCH  12  13
ENDBRANCH   8  11
ENDBRANCH   4   7
BRANCH   1  23
HETATM   23  C   UNL     1     -44.147  60.504 -57.986  1.00  0.00     0.171 C 
BRANCH  23  24
HETATM   24  N   UNL     1     -43.460  60.943 -59.178  1.00  0.00    -0.309 N 
HETATM   25  C   UNL     1     -42.198  61.542 -59.233  1.00  0.00     0.050 A 
HETATM   26  C   UNL     1     -41.949  61.833 -60.555  1.00  0.00     0.017 A 
HETATM   27  C   UNL     1     -41.261  61.837 -58.255  1.00  0.00     0.031 A 
HETATM   28  C   UNL     1     -43.027  61.428 -61.321  1.00  0.00     0.045 A 
HETATM   29  C   UNL     1     -40.815  62.423 -61.028  1.00  0.00    -0.023 A 
HETATM   30  C   UNL     1     -42.999  61.622 -62.700  1.00  0.00     0.018 A 
HETATM   31  C   UNL     1     -44.039  60.839 -60.466  1.00  0.00     0.259 A 
HETATM   32  C   UNL     1     -41.845  62.231 -63.233  1.00  0.00     0.002 A 
HETATM   33  C   UNL     1     -40.763  62.629 -62.419  1.00  0.00     0.012 A 
HETATM   34  O   UNL     1     -45.131  60.349 -60.726  1.00  0.00    -0.267 OA
HETATM   35  C   UNL     1     -39.843  62.746 -60.063  1.00  0.00     0.012 A 
HETATM   36  C   UNL     1     -40.072  62.453 -58.701  1.00  0.00     0.003 A 
ENDBRANCH  23  24
ENDBRANCH   1  23
TORSDOF 7
ENDMDL
MODEL 6
REMARK VINA RESULT:      -8.8      6.979     11.809
REMARK  7 active torsions:
REMARK  status: ('A' for Active; 'I' for Inactive)
REMARK    1  A    between atoms: N_8  and  C_9 
REMARK    2  A    between atoms: C_9  and  C_10 
REMARK    3  A    between atoms: C_13  and  C_14 
REMARK       I    between atoms: C_14  and  N_15 
REMARK    4  A    between atoms: N_15  and  N_16 
REMARK    5  A    between atoms: C_17  and  C_18 
REMARK    6  A    between atoms: C_19  and  O_20 
REMARK    7  A    between atoms: C_22  and  O_23 
ROOT
HETATM    1  C   UNL     1     -43.673  58.986 -57.935  1.00  0.00    -0.040 A 
HETATM    2  C   UNL     1     -43.181  57.953 -58.747  1.00  0.00     0.010 A 
HETATM    3  C   UNL     1     -42.793  56.733 -58.188  1.00  0.00     0.017 A 
HETATM    4  C   UNL     1     -42.889  56.521 -56.808  1.00  0.00     0.033 A 
HETATM    5  C   UNL     1     -43.401  57.539 -55.995  1.00  0.00     0.017 A 
HETATM    6  C   UNL     1     -43.783  58.763 -56.555  1.00  0.00     0.010 A 
ENDROOT
BRANCH   4   7
HETATM    7  C   UNL     1     -42.484  55.189 -56.270  1.00  0.00     0.271 C 
HETATM    8  N   UNL     1     -41.148  55.050 -55.918  1.00  0.00    -0.243 N 
HETATM    9  H   UNL     1     -40.471  55.775 -56.116  1.00  0.00     0.192 HD
HETATM   10  O   UNL     1     -43.319  54.292 -56.180  1.00  0.00    -0.266 OA
BRANCH   8  11
HETATM   11  N   UNL     1     -40.728  53.872 -55.380  1.00  0.00    -0.183 NA
HETATM   12  C   UNL     1     -40.765  53.784 -54.090  1.00  0.00     0.153 C 
BRANCH  12  13
HETATM   13  C   UNL     1     -40.344  52.542 -53.411  1.00  0.00     0.016 A 
HETATM   14  C   UNL     1     -40.019  52.512 -52.047  1.00  0.00     0.080 A 
HETATM   15  C   UNL     1     -39.618  51.323 -51.444  1.00  0.00     0.074 A 
HETATM   16  C   UNL     1     -39.538  50.164 -52.211  1.00  0.00     0.068 A 
HETATM   17  C   UNL     1     -39.857  50.179 -53.566  1.00  0.00     0.037 A 
HETATM   18  C   UNL     1     -40.262  51.371 -54.172  1.00  0.00     0.018 A 
BRANCH  14  19
HETATM   19  O   UNL     1     -40.072  53.613 -51.235  1.00  0.00    -0.360 OA
HETATM   20  H   UNL     1     -40.891  53.565 -50.689  1.00  0.00     0.217 HD
ENDBRANCH  14  19
BRANCH  16  21
HETATM   21  O   UNL     1     -39.146  48.978 -51.666  1.00  0.00    -0.361 OA
HETATM   22  H   UNL     1     -39.926  48.543 -51.282  1.00  0.00     0.217 HD
ENDBRANCH  16  21
ENDBRANCH  12  13
ENDBRANCH   8  11
ENDBRANCH   4   7
BRANCH   1  23
HETATM   23  C   UNL     1     -44.115  60.295 -58.550  1.00  0.00     0.171 C 
BRANCH  23  24
HETATM   24  N   UNL     1     -43.039  60.982 -59.224  1.00  0.00    -0.309 N 
HETATM   25  C   UNL     1     -42.903  61.154 -60.605  1.00  0.00     0.050 A 
HETATM   26  C   UNL     1     -41.720  61.827 -60.811  1.00  0.00     0.017 A 
HETATM   27  C   UNL     1     -43.707  60.793 -61.675  1.00  0.00     0.031 A 
HETATM   28  C   UNL     1     -41.121  62.078 -59.591  1.00  0.00     0.045 A 
HETATM   29  C   UNL     1     -41.226  62.190 -62.028  1.00  0.00    -0.023 A 
HETATM   30  C   UNL     1     -39.904  62.756 -59.551  1.00  0.00     0.018 A 
HETATM   31  C   UNL     1     -41.946  61.547 -58.523  1.00  0.00     0.259 A 
HETATM   32  C   UNL     1     -39.356  63.149 -60.788  1.00  0.00     0.002 A 
HETATM   33  C   UNL     1     -39.998  62.876 -62.015  1.00  0.00     0.012 A 
HETATM   34  O   UNL     1     -41.800  61.558 -57.307  1.00  0.00    -0.267 OA
HETATM   35  C   UNL     1     -42.012  61.834 -63.141  1.00  0.00     0.012 A 
HETATM   36  C   UNL     1     -43.232  61.147 -62.956  1.00  0.00     0.003 A 
ENDBRANCH  23  24
ENDBRANCH   1  23
TORSDOF 7
ENDMDL
MODEL 7
REMARK VINA RESULT:      -8.8      2.615     11.209
REMARK  7 active torsions:
REMARK  status: ('A' for Active; 'I' for Inactive)
REMARK    1  A    between atoms: N_8  and  C_9 
REMARK    2  A    between atoms: C_9  and  C_10 
REMARK    3  A    between atoms: C_13  and  C_14 
REMARK       I    between atoms: C_14  and  N_15 
REMARK    4  A    between atoms: N_15  and  N_16 
REMARK    5  A    between atoms: C_17  and  C_18 
REMARK    6  A    between atoms: C_19  and  O_20 
REMARK    7  A    between atoms: C_22  and  O_23 
ROOT
HETATM    1  C   UNL     1     -44.051  60.538 -51.963  1.00  0.00    -0.040 A 
HETATM    2  C   UNL     1     -42.741  60.062 -51.807  1.00  0.00     0.010 A 
HETATM    3  C   UNL     1     -42.496  58.697 -51.638  1.00  0.00     0.017 A 
HETATM    4  C   UNL     1     -43.554  57.782 -51.623  1.00  0.00     0.033 A 
HETATM    5  C   UNL     1     -44.863  58.248 -51.802  1.00  0.00     0.017 A 
HETATM    6  C   UNL     1     -45.107  59.616 -51.965  1.00  0.00     0.010 A 
ENDROOT
BRANCH   4   7
HETATM    7  C   UNL     1     -43.232  56.333 -51.465  1.00  0.00     0.271 C 
HETATM    8  N   UNL     1     -42.130  55.869 -52.172  1.00  0.00    -0.243 N 
HETATM    9  H   UNL     1     -41.643  56.456 -52.836  1.00  0.00     0.192 HD
HETATM   10  O   UNL     1     -43.942  55.629 -50.752  1.00  0.00    -0.266 OA
BRANCH   8  11
HETATM   11  N   UNL     1     -41.760  54.566 -52.033  1.00  0.00    -0.183 NA
HETATM   12  C   UNL     1     -40.929  54.109 -52.913  1.00  0.00     0.153 C 
BRANCH  12  13
HETATM   13  C   UNL     1     -40.456  52.712 -52.841  1.00  0.00     0.016 A 
HETATM   14  C   UNL     1     -40.027  52.132 -51.638  1.00  0.00     0.080 A 
HETATM   15  C   UNL     1     -39.581  50.813 -51.612  1.00  0.00     0.074 A 
HETATM   16  C   UNL     1     -39.560  50.077 -52.793  1.00  0.00     0.068 A 
HETATM   17  C   UNL     1     -39.983  50.640 -53.994  1.00  0.00     0.037 A 
HETATM   18  C   UNL     1     -40.434  51.962 -54.022  1.00  0.00     0.018 A 
BRANCH  14  19
HETATM   19  O   UNL     1     -40.017  52.797 -50.442  1.00  0.00    -0.360 OA
HETATM   20  H   UNL     1     -39.714  53.723 -50.597  1.00  0.00     0.217 HD
ENDBRANCH  14  19
BRANCH  16  21
HETATM   21  O   UNL     1     -39.127  48.785 -52.817  1.00  0.00    -0.361 OA
HETATM   22  H   UNL     1     -38.178  48.774 -52.608  1.00  0.00     0.217 HD
ENDBRANCH  16  21
ENDBRANCH  12  13
ENDBRANCH   8  11
ENDBRANCH   4   7
BRANCH   1  23
HETATM   23  C   UNL     1     -44.306  62.014 -52.171  1.00  0.00     0.171 C 
BRANCH  23  24
HETATM   24  N   UNL     1     -45.394  62.509 -51.361  1.00  0.00    -0.309 N 
HETATM   25  C   UNL     1     -45.433  62.548 -49.964  1.00  0.00     0.050 A 
HETATM   26  C   UNL     1     -46.664  63.054 -49.612  1.00  0.00     0.017 A 
HETATM   27  C   UNL     1     -44.508  62.199 -48.993  1.00  0.00     0.031 A 
HETATM   28  C   UNL     1     -47.387  63.332 -50.757  1.00  0.00     0.045 A 
HETATM   29  C   UNL     1     -47.094  63.253 -48.333  1.00  0.00    -0.023 A 
HETATM   30  C   UNL     1     -48.671  63.859 -50.646  1.00  0.00     0.018 A 
HETATM   31  C   UNL     1     -46.598  62.994 -51.926  1.00  0.00     0.259 A 
HETATM   32  C   UNL     1     -49.157  64.079 -49.342  1.00  0.00     0.002 A 
HETATM   33  C   UNL     1     -48.389  63.785 -48.195  1.00  0.00     0.012 A 
HETATM   34  O   UNL     1     -46.844  63.088 -53.122  1.00  0.00    -0.267 OA
HETATM   35  C   UNL     1     -46.183  62.903 -47.319  1.00  0.00     0.012 A 
HETATM   36  C   UNL     1     -44.912  62.386 -47.654  1.00  0.00     0.003 A 
ENDBRANCH  23  24
ENDBRANCH   1  23
TORSDOF 7
ENDMDL
MODEL 8
REMARK VINA RESULT:      -8.4      2.137     11.130
REMARK  7 active torsions:
REMARK  status: ('A' for Active; 'I' for Inactive)
REMARK    1  A    between atoms: N_8  and  C_9 
REMARK    2  A    between atoms: C_9  and  C_10 
REMARK    3  A    between atoms: C_13  and  C_14 
REMARK       I    between atoms: C_14  and  N_15 
REMARK    4  A    between atoms: N_15  and  N_16 
REMARK    5  A    between atoms: C_17  and  C_18 
REMARK    6  A    between atoms: C_19  and  O_20 
REMARK    7  A    between atoms: C_22  and  O_23 
ROOT
HETATM    1  C   UNL     1     -44.273  60.407 -52.089  1.00  0.00    -0.040 A 
HETATM    2  C   UNL     1     -43.040  60.058 -52.659  1.00  0.00     0.010 A 
HETATM    3  C   UNL     1     -42.743  58.724 -52.950  1.00  0.00     0.017 A 
HETATM    4  C   UNL     1     -43.672  57.714 -52.678  1.00  0.00     0.033 A 
HETATM    5  C   UNL     1     -44.914  58.058 -52.131  1.00  0.00     0.017 A 
HETATM    6  C   UNL     1     -45.208  59.393 -51.834  1.00  0.00     0.010 A 
ENDROOT
BRANCH   4   7
HETATM    7  C   UNL     1     -43.310  56.310 -53.032  1.00  0.00     0.271 C 
HETATM    8  N   UNL     1     -42.315  55.720 -52.264  1.00  0.00    -0.243 N 
HETATM    9  H   UNL     1     -41.795  56.248 -51.576  1.00  0.00     0.192 HD
HETATM   10  O   UNL     1     -43.877  55.758 -53.972  1.00  0.00    -0.266 OA
BRANCH   8  11
HETATM   11  N   UNL     1     -41.973  54.426 -52.512  1.00  0.00    -0.183 NA
HETATM   12  C   UNL     1     -40.812  54.047 -52.083  1.00  0.00     0.153 C 
BRANCH  12  13
HETATM   13  C   UNL     1     -40.354  52.658 -52.290  1.00  0.00     0.016 A 
HETATM   14  C   UNL     1     -40.220  52.102 -53.571  1.00  0.00     0.080 A 
HETATM   15  C   UNL     1     -39.792  50.785 -53.725  1.00  0.00     0.074 A 
HETATM   16  C   UNL     1     -39.504  50.026 -52.596  1.00  0.00     0.068 A 
HETATM   17  C   UNL     1     -39.634  50.565 -51.319  1.00  0.00     0.037 A 
HETATM   18  C   UNL     1     -40.060  51.886 -51.161  1.00  0.00     0.018 A 
BRANCH  14  19
HETATM   19  O   UNL     1     -40.489  52.789 -54.723  1.00  0.00    -0.360 OA
HETATM   20  H   UNL     1     -41.430  52.634 -54.972  1.00  0.00     0.217 HD
ENDBRANCH  14  19
BRANCH  16  21
HETATM   21  O   UNL     1     -39.087  48.732 -52.698  1.00  0.00    -0.361 OA
HETATM   22  H   UNL     1     -39.855  48.177 -52.916  1.00  0.00     0.217 HD
ENDBRANCH  16  21
ENDBRANCH  12  13
ENDBRANCH   8  11
ENDBRANCH   4   7
BRANCH   1  23
HETATM   23  C   UNL     1     -44.598  61.855 -51.801  1.00  0.00     0.171 C 
BRANCH  23  24
HETATM   24  N   UNL     1     -45.089  62.058 -50.458  1.00  0.00    -0.309 N 
HETATM   25  C   UNL     1     -46.294  62.669 -50.101  1.00  0.00     0.050 A 
HETATM   26  C   UNL     1     -46.342  62.687 -48.726  1.00  0.00     0.017 A 
HETATM   27  C   UNL     1     -47.336  63.189 -50.853  1.00  0.00     0.031 A 
HETATM   28  C   UNL     1     -45.196  62.100 -48.222  1.00  0.00     0.045 A 
HETATM   29  C   UNL     1     -47.364  63.199 -47.983  1.00  0.00    -0.023 A 
HETATM   30  C   UNL     1     -45.024  62.004 -46.843  1.00  0.00     0.018 A 
HETATM   31  C   UNL     1     -44.346  61.672 -49.316  1.00  0.00     0.259 A 
HETATM   32  C   UNL     1     -46.057  62.523 -46.037  1.00  0.00     0.002 A 
HETATM   33  C   UNL     1     -47.214  63.114 -46.587  1.00  0.00     0.012 A 
HETATM   34  O   UNL     1     -43.260  61.106 -49.322  1.00  0.00    -0.267 OA
HETATM   35  C   UNL     1     -48.439  63.744 -48.712  1.00  0.00     0.012 A 
HETATM   36  C   UNL     1     -48.415  63.733 -50.124  1.00  0.00     0.003 A 
ENDBRANCH  23  24
ENDBRANCH   1  23
TORSDOF 7
ENDMDL
MODEL 9
REMARK VINA RESULT:      -8.2      6.982     11.666
REMARK  7 active torsions:
REMARK  status: ('A' for Active; 'I' for Inactive)
REMARK    1  A    between atoms: N_8  and  C_9 
REMARK    2  A    between atoms: C_9  and  C_10 
REMARK    3  A    between atoms: C_13  and  C_14 
REMARK       I    between atoms: C_14  and  N_15 
REMARK    4  A    between atoms: N_15  and  N_16 
REMARK    5  A    between atoms: C_17  and  C_18 
REMARK    6  A    between atoms: C_19  and  O_20 
REMARK    7  A    between atoms: C_22  and  O_23 
ROOT
HETATM    1  C   UNL     1     -43.855  57.924 -58.884  1.00  0.00    -0.040 A 
HETATM    2  C   UNL     1     -43.410  56.599 -58.992  1.00  0.00     0.010 A 
HETATM    3  C   UNL     1     -43.109  55.853 -57.850  1.00  0.00     0.017 A 
HETATM    4  C   UNL     1     -43.247  56.417 -56.576  1.00  0.00     0.033 A 
HETATM    5  C   UNL     1     -43.713  57.733 -56.460  1.00  0.00     0.017 A 
HETATM    6  C   UNL     1     -44.008  58.480 -57.605  1.00  0.00     0.010 A 
ENDROOT
BRANCH   4   7
HETATM    7  C   UNL     1     -42.935  55.567 -55.391  1.00  0.00     0.271 C 
HETATM    8  N   UNL     1     -42.193  54.419 -55.637  1.00  0.00    -0.243 N 
HETATM    9  H   UNL     1     -41.970  54.126 -56.579  1.00  0.00     0.192 HD
HETATM   10  O   UNL     1     -43.351  55.897 -54.283  1.00  0.00    -0.266 OA
BRANCH   8  11
HETATM   11  N   UNL     1     -41.840  53.626 -54.588  1.00  0.00    -0.183 NA
HETATM   12  C   UNL     1     -40.794  52.883 -54.756  1.00  0.00     0.153 C 
BRANCH  12  13
HETATM   13  C   UNL     1     -40.322  51.998 -53.673  1.00  0.00     0.016 A 
HETATM   14  C   UNL     1     -40.118  52.464 -52.366  1.00  0.00     0.080 A 
HETATM   15  C   UNL     1     -39.665  51.600 -51.372  1.00  0.00     0.074 A 
HETATM   16  C   UNL     1     -39.411  50.269 -51.691  1.00  0.00     0.068 A 
HETATM   17  C   UNL     1     -39.609  49.793 -52.984  1.00  0.00     0.037 A 
HETATM   18  C   UNL     1     -40.067  50.657 -53.981  1.00  0.00     0.018 A 
BRANCH  14  19
HETATM   19  O   UNL     1     -40.343  53.759 -51.984  1.00  0.00    -0.360 OA
HETATM   20  H   UNL     1     -40.063  53.866 -51.045  1.00  0.00     0.217 HD
ENDBRANCH  14  19
BRANCH  16  21
HETATM   21  O   UNL     1     -38.962  49.388 -50.753  1.00  0.00    -0.361 OA
HETATM   22  H   UNL     1     -39.510  48.586 -50.797  1.00  0.00     0.217 HD
ENDBRANCH  16  21
ENDBRANCH  12  13
ENDBRANCH   8  11
ENDBRANCH   4   7
BRANCH   1  23
HETATM   23  C   UNL     1     -44.203  58.716 -60.124  1.00  0.00     0.171 C 
BRANCH  23  24
HETATM   24  N   UNL     1     -43.456  59.947 -60.225  1.00  0.00    -0.309 N 
HETATM   25  C   UNL     1     -43.894  61.215 -59.835  1.00  0.00     0.050 A 
HETATM   26  C   UNL     1     -42.886  62.101 -60.145  1.00  0.00     0.017 A 
HETATM   27  C   UNL     1     -45.064  61.656 -59.236  1.00  0.00     0.031 A 
HETATM   28  C   UNL     1     -41.833  61.410 -60.715  1.00  0.00     0.045 A 
HETATM   29  C   UNL     1     -42.925  63.444 -59.916  1.00  0.00    -0.023 A 
HETATM   30  C   UNL     1     -40.693  62.105 -61.111  1.00  0.00     0.018 A 
HETATM   31  C   UNL     1     -42.157  59.999 -60.788  1.00  0.00     0.259 A 
HETATM   32  C   UNL     1     -40.690  63.497 -60.895  1.00  0.00     0.002 A 
HETATM   33  C   UNL     1     -41.784  64.168 -60.307  1.00  0.00     0.012 A 
HETATM   34  O   UNL     1     -41.516  59.042 -61.206  1.00  0.00    -0.267 OA
HETATM   35  C   UNL     1     -44.101  63.931 -59.316  1.00  0.00     0.012 A 
HETATM   36  C   UNL     1     -45.148  63.042 -58.984  1.00  0.00     0.003 A 
ENDBRANCH  23  24
ENDBRANCH   1  23
TORSDOF 7
ENDMDL
MODEL 10
REMARK VINA RESULT:      -8.2     18.081     21.560
REMARK  7 active torsions:
REMARK  status: ('A' for Active; 'I' for Inactive)
REMARK    1  A    between atoms: N_8  and  C_9 
REMARK    2  A    between atoms: C_9  and  C_10 
REMARK    3  A    between atoms: C_13  and  C_14 
REMARK       I    between atoms: C_14  and  N_15 
REMARK    4  A    between atoms: N_15  and  N_16 
REMARK    5  A    between atoms: C_17  and  C_18 
REMARK    6  A    between atoms: C_19  and  O_20 
REMARK    7  A    between atoms: C_22  and  O_23 
ROOT
HETATM    1  C   UNL     1     -35.872  41.185 -52.056  1.00  0.00    -0.040 A 
HETATM    2  C   UNL     1     -34.780  41.904 -51.548  1.00  0.00     0.010 A 
HETATM    3  C   UNL     1     -33.821  41.273 -50.752  1.00  0.00     0.017 A 
HETATM    4  C   UNL     1     -33.934  39.911 -50.450  1.00  0.00     0.033 A 
HETATM    5  C   UNL     1     -35.008  39.182 -50.973  1.00  0.00     0.017 A 
HETATM    6  C   UNL     1     -35.971  39.817 -51.765  1.00  0.00     0.010 A 
ENDROOT
BRANCH   4   7
HETATM    7  C   UNL     1     -32.866  39.283 -49.616  1.00  0.00     0.271 C 
HETATM    8  N   UNL     1     -31.866  40.132 -49.160  1.00  0.00    -0.243 N 
HETATM    9  H   UNL     1     -31.810  41.094 -49.464  1.00  0.00     0.192 HD
HETATM   10  O   UNL     1     -32.906  38.076 -49.391  1.00  0.00    -0.266 OA
BRANCH   8  11
HETATM   11  N   UNL     1     -30.889  39.625 -48.358  1.00  0.00    -0.183 NA
HETATM   12  C   UNL     1     -30.830  40.098 -47.155  1.00  0.00     0.153 C 
BRANCH  12  13
HETATM   13  C   UNL     1     -29.814  39.604 -46.205  1.00  0.00     0.016 A 
HETATM   14  C   UNL     1     -28.466  39.459 -46.565  1.00  0.00     0.080 A 
HETATM   15  C   UNL     1     -27.538  38.981 -45.642  1.00  0.00     0.074 A 
HETATM   16  C   UNL     1     -27.964  38.644 -44.361  1.00  0.00     0.068 A 
HETATM   17  C   UNL     1     -29.298  38.783 -43.990  1.00  0.00     0.037 A 
HETATM   18  C   UNL     1     -30.230  39.264 -44.913  1.00  0.00     0.018 A 
BRANCH  14  19
HETATM   19  O   UNL     1     -27.980  39.766 -47.807  1.00  0.00    -0.360 OA
HETATM   20  H   UNL     1     -27.100  40.197 -47.704  1.00  0.00     0.217 HD
ENDBRANCH  14  19
BRANCH  16  21
HETATM   21  O   UNL     1     -27.093  38.169 -43.426  1.00  0.00    -0.361 OA
HETATM   22  H   UNL     1     -26.188  38.373 -43.716  1.00  0.00     0.217 HD
ENDBRANCH  16  21
ENDBRANCH  12  13
ENDBRANCH   8  11
ENDBRANCH   4   7
BRANCH   1  23
HETATM   23  C   UNL     1     -36.892  41.870 -52.938  1.00  0.00     0.171 C 
BRANCH  23  24
HETATM   24  N   UNL     1     -36.884  41.366 -54.291  1.00  0.00    -0.309 N 
HETATM   25  C   UNL     1     -35.752  41.090 -55.064  1.00  0.00     0.050 A 
HETATM   26  C   UNL     1     -36.201  40.670 -56.296  1.00  0.00     0.017 A 
HETATM   27  C   UNL     1     -34.395  41.159 -54.792  1.00  0.00     0.031 A 
HETATM   28  C   UNL     1     -37.584  40.677 -56.303  1.00  0.00     0.045 A 
HETATM   29  C   UNL     1     -35.403  40.301 -57.338  1.00  0.00    -0.023 A 
HETATM   30  C   UNL     1     -38.265  40.285 -57.453  1.00  0.00     0.018 A 
HETATM   31  C   UNL     1     -38.076  41.124 -55.015  1.00  0.00     0.259 A 
HETATM   32  C   UNL     1     -37.479  39.897 -58.556  1.00  0.00     0.002 A 
HETATM   33  C   UNL     1     -36.068  39.900 -58.511  1.00  0.00     0.012 A 
HETATM   34  O   UNL     1     -39.217  41.267 -54.590  1.00  0.00    -0.267 OA
HETATM   35  C   UNL     1     -34.017  40.365 -57.102  1.00  0.00     0.012 A 
HETATM   36  C   UNL     1     -33.531  40.789 -55.845  1.00  0.00     0.003 A 
ENDBRANCH  23  24
ENDBRANCH   1  23
TORSDOF 7
ENDMDL
