MODEL 1
REMARK VINA RESULT:      -8.3      0.000      0.000
REMARK  4 active torsions:
REMARK  status: ('A' for Active; 'I' for Inactive)
REMARK    1  A    between atoms: C_3  and  C_4 
REMARK    2  A    between atoms: C_4  and  N_5 
REMARK    3  A    between atoms: N_8  and  C_10 
REMARK    4  A    between atoms: C_10  and  C_11 
ROOT
HETATM    1  N   UNL     1     -42.918  57.771 -55.154  1.00  0.00    -0.405 N 
HETATM    2  C   UNL     1     -41.887  56.856 -54.656  1.00  0.00     0.150 C 
HETATM    3  C   UNL     1     -41.158  57.137 -53.317  1.00  0.00     0.206 C 
HETATM    4  N   UNL     1     -42.042  56.961 -52.081  1.00  0.00    -0.061 N 
HETATM    5  H   UNL     1     -41.369  56.986 -51.303  1.00  0.00     0.280 HD
HETATM    6  C   UNL     1     -42.992  58.095 -51.814  1.00  0.00     0.242 C 
HETATM    7  C   UNL     1     -43.003  59.114 -52.942  1.00  0.00     0.029 C 
HETATM    8  C   UNL     1     -43.696  58.542 -54.192  1.00  0.00     0.123 C 
HETATM    9  C   UNL     1     -40.545  58.541 -53.272  1.00  0.00     0.035 C 
HETATM   10  C   UNL     1     -41.592  59.653 -53.187  1.00  0.00     0.010 C 
ENDROOT
BRANCH   4  11
HETATM   11  C   UNL     1     -42.702  55.606 -51.922  1.00  0.00     0.274 C 
BRANCH  11  12
HETATM   12  C   UNL     1     -41.735  54.457 -51.989  1.00  0.00    -0.032 A 
HETATM   13  C   UNL     1     -41.713  53.638 -53.137  1.00  0.00     0.022 A 
HETATM   14  C   UNL     1     -40.793  52.576 -53.222  1.00  0.00    -0.008 A 
HETATM   15  C   UNL     1     -39.928  52.351 -52.155  1.00  0.00     0.042 A 
HETATM   16  C   UNL     1     -40.498  51.607 -54.218  1.00  0.00     0.030 A 
HETATM   17  N   UNL     1     -39.132  51.279 -52.498  1.00  0.00    -0.365 N 
HETATM   18  C   UNL     1     -39.936  53.136 -50.998  1.00  0.00     0.031 A 
HETATM   19  H   UNL     1     -38.396  50.895 -51.919  1.00  0.00     0.165 HD
HETATM   20  C   UNL     1     -39.470  50.823 -53.746  1.00  0.00     0.089 A 
HETATM   21  C   UNL     1     -40.851  54.193 -50.935  1.00  0.00     0.011 A 
ENDBRANCH  11  12
ENDBRANCH   4  11
BRANCH   1  22
HETATM   22  C   UNL     1     -42.496  58.579 -56.322  1.00  0.00     0.176 C 
BRANCH  22  23
HETATM   23  C   UNL     1     -42.551  57.856 -57.656  1.00  0.00     0.051 A 
HETATM   24  C   UNL     1     -41.819  58.319 -58.748  1.00  0.00     0.029 A 
HETATM   25  C   UNL     1     -41.870  57.603 -59.941  1.00  0.00     0.003 A 
HETATM   26  C   UNL     1     -42.638  56.448 -60.010  1.00  0.00     0.019 A 
HETATM   27  C   UNL     1     -43.342  56.061 -58.882  1.00  0.00     0.117 A 
HETATM   28  N   UNL     1     -43.329  56.745 -57.716  1.00  0.00    -0.264 NA
ENDBRANCH  22  23
ENDBRANCH   1  22
TORSDOF 4
ENDMDL
MODEL 2
REMARK VINA RESULT:      -8.2      2.017      7.395
REMARK  4 active torsions:
REMARK  status: ('A' for Active; 'I' for Inactive)
REMARK    1  A    between atoms: C_3  and  C_4 
REMARK    2  A    between atoms: C_4  and  N_5 
REMARK    3  A    between atoms: N_8  and  C_10 
REMARK    4  A    between atoms: C_10  and  C_11 
ROOT
HETATM    1  N   UNL     1     -41.531  55.381 -54.172  1.00  0.00    -0.405 N 
HETATM    2  C   UNL     1     -42.643  55.310 -55.123  1.00  0.00     0.150 C 
HETATM    3  C   UNL     1     -43.649  56.482 -55.257  1.00  0.00     0.206 C 
HETATM    4  N   UNL     1     -43.056  57.737 -55.902  1.00  0.00    -0.061 N 
HETATM    5  H   UNL     1     -43.882  58.319 -56.092  1.00  0.00     0.280 HD
HETATM    6  C   UNL     1     -42.191  58.567 -54.996  1.00  0.00     0.242 C 
HETATM    7  C   UNL     1     -41.936  57.887 -53.661  1.00  0.00     0.029 C 
HETATM    8  C   UNL     1     -40.985  56.688 -53.827  1.00  0.00     0.123 C 
HETATM    9  C   UNL     1     -44.261  56.880 -53.910  1.00  0.00     0.035 C 
HETATM   10  C   UNL     1     -43.261  57.557 -52.970  1.00  0.00     0.010 C 
ENDROOT
BRANCH   4  11
HETATM   11  C   UNL     1     -42.443  57.552 -57.276  1.00  0.00     0.274 C 
BRANCH  11  12
HETATM   12  C   UNL     1     -43.407  57.016 -58.296  1.00  0.00    -0.032 A 
HETATM   13  C   UNL     1     -44.646  57.663 -58.484  1.00  0.00     0.022 A 
HETATM   14  C   UNL     1     -45.546  57.186 -59.455  1.00  0.00    -0.008 A 
HETATM   15  C   UNL     1     -45.192  56.068 -60.206  1.00  0.00     0.042 A 
HETATM   16  C   UNL     1     -46.826  57.609 -59.904  1.00  0.00     0.030 A 
HETATM   17  N   UNL     1     -46.226  55.826 -61.084  1.00  0.00    -0.365 N 
HETATM   18  C   UNL     1     -43.977  55.396 -60.033  1.00  0.00     0.031 A 
HETATM   19  H   UNL     1     -46.243  55.080 -61.768  1.00  0.00     0.165 HD
HETATM   20  C   UNL     1     -47.219  56.754 -60.908  1.00  0.00     0.089 A 
HETATM   21  C   UNL     1     -43.092  55.890 -59.068  1.00  0.00     0.011 A 
ENDBRANCH  11  12
ENDBRANCH   4  11
BRANCH   1  22
HETATM   22  C   UNL     1     -41.689  54.502 -52.990  1.00  0.00     0.176 C 
BRANCH  22  23
HETATM   23  C   UNL     1     -40.929  53.190 -53.059  1.00  0.00     0.051 A 
HETATM   24  C   UNL     1     -40.951  52.413 -54.215  1.00  0.00     0.029 A 
HETATM   25  C   UNL     1     -40.208  51.235 -54.245  1.00  0.00     0.003 A 
HETATM   26  C   UNL     1     -39.462  50.872 -53.131  1.00  0.00     0.019 A 
HETATM   27  C   UNL     1     -39.501  51.696 -52.019  1.00  0.00     0.117 A 
HETATM   28  N   UNL     1     -40.227  52.834 -51.952  1.00  0.00    -0.264 NA
ENDBRANCH  22  23
ENDBRANCH   1  22
TORSDOF 4
ENDMDL
MODEL 3
REMARK VINA RESULT:      -7.8      1.457      6.599
REMARK  4 active torsions:
REMARK  status: ('A' for Active; 'I' for Inactive)
REMARK    1  A    between atoms: C_3  and  C_4 
REMARK    2  A    between atoms: C_4  and  N_5 
REMARK    3  A    between atoms: N_8  and  C_10 
REMARK    4  A    between atoms: C_10  and  C_11 
ROOT
HETATM    1  N   UNL     1     -41.505  54.757 -53.086  1.00  0.00    -0.405 N 
HETATM    2  C   UNL     1     -42.876  54.860 -52.579  1.00  0.00     0.150 C 
HETATM    3  C   UNL     1     -43.412  56.198 -52.008  1.00  0.00     0.206 C 
HETATM    4  N   UNL     1     -43.625  57.283 -53.066  1.00  0.00    -0.061 N 
HETATM    5  H   UNL     1     -44.155  58.005 -52.562  1.00  0.00     0.280 HD
HETATM    6  C   UNL     1     -42.371  57.970 -53.530  1.00  0.00     0.242 C 
HETATM    7  C   UNL     1     -41.116  57.315 -52.976  1.00  0.00     0.029 C 
HETATM    8  C   UNL     1     -40.870  55.947 -53.639  1.00  0.00     0.123 C 
HETATM    9  C   UNL     1     -42.504  56.769 -50.913  1.00  0.00     0.035 C 
HETATM   10  C   UNL     1     -41.165  57.280 -51.447  1.00  0.00     0.010 C 
ENDROOT
BRANCH   4  11
HETATM   11  C   UNL     1     -44.543  56.920 -54.216  1.00  0.00     0.274 C 
BRANCH  11  12
HETATM   12  C   UNL     1     -43.866  56.953 -55.557  1.00  0.00    -0.032 A 
HETATM   13  C   UNL     1     -43.767  58.177 -56.251  1.00  0.00     0.022 A 
HETATM   14  C   UNL     1     -43.111  58.227 -57.496  1.00  0.00    -0.008 A 
HETATM   15  C   UNL     1     -42.580  57.051 -58.021  1.00  0.00     0.042 A 
HETATM   16  C   UNL     1     -42.821  59.270 -58.416  1.00  0.00     0.030 A 
HETATM   17  N   UNL     1     -41.985  57.377 -59.220  1.00  0.00    -0.365 N 
HETATM   18  C   UNL     1     -42.674  55.820 -57.363  1.00  0.00     0.031 A 
HETATM   19  H   UNL     1     -41.502  56.723 -59.824  1.00  0.00     0.165 HD
HETATM   20  C   UNL     1     -42.126  58.717 -59.467  1.00  0.00     0.089 A 
HETATM   21  C   UNL     1     -43.323  55.793 -56.123  1.00  0.00     0.011 A 
ENDBRANCH  11  12
ENDBRANCH   4  11
BRANCH   1  22
HETATM   22  C   UNL     1     -40.594  53.981 -52.214  1.00  0.00     0.176 C 
BRANCH  22  23
HETATM   23  C   UNL     1     -40.308  52.565 -52.682  1.00  0.00     0.051 A 
HETATM   24  C   UNL     1     -40.543  52.189 -54.003  1.00  0.00     0.029 A 
HETATM   25  C   UNL     1     -40.231  50.890 -54.395  1.00  0.00     0.003 A 
HETATM   26  C   UNL     1     -39.688  50.010 -53.468  1.00  0.00     0.019 A 
HETATM   27  C   UNL     1     -39.494  50.460 -52.173  1.00  0.00     0.117 A 
HETATM   28  N   UNL     1     -39.805  51.708 -51.756  1.00  0.00    -0.264 NA
ENDBRANCH  22  23
ENDBRANCH   1  22
TORSDOF 4
ENDMDL
MODEL 4
REMARK VINA RESULT:      -7.8      2.340      5.215
REMARK  4 active torsions:
REMARK  status: ('A' for Active; 'I' for Inactive)
REMARK    1  A    between atoms: C_3  and  C_4 
REMARK    2  A    between atoms: C_4  and  N_5 
REMARK    3  A    between atoms: N_8  and  C_10 
REMARK    4  A    between atoms: C_10  and  C_11 
ROOT
HETATM    1  N   UNL     1     -42.373  56.888 -52.808  1.00  0.00    -0.405 N 
HETATM    2  C   UNL     1     -42.302  55.442 -52.585  1.00  0.00     0.150 C 
HETATM    3  C   UNL     1     -42.675  54.447 -53.714  1.00  0.00     0.206 C 
HETATM    4  N   UNL     1     -41.669  54.411 -54.867  1.00  0.00    -0.061 N 
HETATM    5  H   UNL     1     -41.954  53.583 -55.405  1.00  0.00     0.280 HD
HETATM    6  C   UNL     1     -41.770  55.560 -55.831  1.00  0.00     0.242 C 
HETATM    7  C   UNL     1     -42.745  56.626 -55.357  1.00  0.00     0.029 C 
HETATM    8  C   UNL     1     -42.171  57.402 -54.157  1.00  0.00     0.123 C 
HETATM    9  C   UNL     1     -44.063  54.723 -54.299  1.00  0.00     0.035 C 
HETATM   10  C   UNL     1     -44.126  56.014 -55.117  1.00  0.00     0.010 C 
ENDROOT
BRANCH   4  11
HETATM   11  C   UNL     1     -40.234  54.099 -54.489  1.00  0.00     0.274 C 
BRANCH  11  12
HETATM   12  C   UNL     1     -40.052  52.723 -53.914  1.00  0.00    -0.032 A 
HETATM   13  C   UNL     1     -39.973  52.563 -52.515  1.00  0.00     0.022 A 
HETATM   14  C   UNL     1     -39.830  51.276 -51.963  1.00  0.00    -0.008 A 
HETATM   15  C   UNL     1     -39.757  50.183 -52.823  1.00  0.00     0.042 A 
HETATM   16  C   UNL     1     -39.749  50.777 -50.636  1.00  0.00     0.030 A 
HETATM   17  N   UNL     1     -39.638  49.057 -52.036  1.00  0.00    -0.365 N 
HETATM   18  C   UNL     1     -39.817  50.311 -54.214  1.00  0.00     0.031 A 
HETATM   19  H   UNL     1     -39.579  48.109 -52.387  1.00  0.00     0.165 HD
HETATM   20  C   UNL     1     -39.634  49.408 -50.711  1.00  0.00     0.089 A 
HETATM   21  C   UNL     1     -39.969  51.598 -54.744  1.00  0.00     0.011 A 
ENDBRANCH  11  12
ENDBRANCH   4  11
BRANCH   1  22
HETATM   22  C   UNL     1     -43.499  57.553 -52.110  1.00  0.00     0.176 C 
BRANCH  22  23
HETATM   23  C   UNL     1     -43.171  58.905 -51.505  1.00  0.00     0.051 A 
HETATM   24  C   UNL     1     -41.947  59.127 -50.875  1.00  0.00     0.029 A 
HETATM   25  C   UNL     1     -41.676  60.394 -50.366  1.00  0.00     0.003 A 
HETATM   26  C   UNL     1     -42.622  61.402 -50.507  1.00  0.00     0.019 A 
HETATM   27  C   UNL     1     -43.815  61.097 -51.138  1.00  0.00     0.117 A 
HETATM   28  N   UNL     1     -44.117  59.872 -51.624  1.00  0.00    -0.264 NA
ENDBRANCH  22  23
ENDBRANCH   1  22
TORSDOF 4
ENDMDL
MODEL 5
REMARK VINA RESULT:      -7.7      1.778      2.021
REMARK  4 active torsions:
REMARK  status: ('A' for Active; 'I' for Inactive)
REMARK    1  A    between atoms: C_3  and  C_4 
REMARK    2  A    between atoms: C_4  and  N_5 
REMARK    3  A    between atoms: N_8  and  C_10 
REMARK    4  A    between atoms: C_10  and  C_11 
ROOT
HETATM    1  N   UNL     1     -43.082  58.880 -54.293  1.00  0.00    -0.405 N 
HETATM    2  C   UNL     1     -42.034  57.909 -54.619  1.00  0.00     0.150 C 
HETATM    3  C   UNL     1     -40.997  57.474 -53.552  1.00  0.00     0.206 C 
HETATM    4  N   UNL     1     -41.582  56.606 -52.436  1.00  0.00    -0.061 N 
HETATM    5  H   UNL     1     -40.749  56.253 -51.949  1.00  0.00     0.280 HD
HETATM    6  C   UNL     1     -42.360  57.356 -51.391  1.00  0.00     0.242 C 
HETATM    7  C   UNL     1     -42.556  58.818 -51.758  1.00  0.00     0.029 C 
HETATM    8  C   UNL     1     -43.559  58.963 -52.918  1.00  0.00     0.123 C 
HETATM    9  C   UNL     1     -40.289  58.670 -52.906  1.00  0.00     0.035 C 
HETATM   10  C   UNL     1     -41.204  59.493 -51.998  1.00  0.00     0.010 C 
ENDROOT
BRANCH   4  11
HETATM   11  C   UNL     1     -42.285  55.338 -52.879  1.00  0.00     0.274 C 
BRANCH  11  12
HETATM   12  C   UNL     1     -41.451  54.100 -52.708  1.00  0.00    -0.032 A 
HETATM   13  C   UNL     1     -41.395  53.154 -53.753  1.00  0.00     0.022 A 
HETATM   14  C   UNL     1     -40.596  52.004 -53.615  1.00  0.00    -0.008 A 
HETATM   15  C   UNL     1     -39.882  51.821 -52.434  1.00  0.00     0.042 A 
HETATM   16  C   UNL     1     -40.304  50.900 -54.461  1.00  0.00     0.030 A 
HETATM   17  N   UNL     1     -39.179  50.643 -52.565  1.00  0.00    -0.365 N 
HETATM   18  C   UNL     1     -39.929  52.733 -51.374  1.00  0.00     0.031 A 
HETATM   19  H   UNL     1     -38.557  50.259 -51.864  1.00  0.00     0.165 HD
HETATM   20  C   UNL     1     -39.427  50.080 -53.789  1.00  0.00     0.089 A 
HETATM   21  C   UNL     1     -40.722  53.875 -51.533  1.00  0.00     0.011 A 
ENDBRANCH  11  12
ENDBRANCH   4  11
BRANCH   1  22
HETATM   22  C   UNL     1     -42.884  60.213 -54.907  1.00  0.00     0.176 C 
BRANCH  22  23
HETATM   23  C   UNL     1     -42.762  60.212 -56.421  1.00  0.00     0.051 A 
HETATM   24  C   UNL     1     -43.850  59.873 -57.223  1.00  0.00     0.029 A 
HETATM   25  C   UNL     1     -43.702  59.921 -58.607  1.00  0.00     0.003 A 
HETATM   26  C   UNL     1     -42.484  60.313 -59.149  1.00  0.00     0.019 A 
HETATM   27  C   UNL     1     -41.451  60.625 -58.282  1.00  0.00     0.117 A 
HETATM   28  N   UNL     1     -41.557  60.569 -56.935  1.00  0.00    -0.264 NA
ENDBRANCH  22  23
ENDBRANCH   1  22
TORSDOF 4
ENDMDL
MODEL 6
REMARK VINA RESULT:      -7.6     15.413     18.398
REMARK  4 active torsions:
REMARK  status: ('A' for Active; 'I' for Inactive)
REMARK    1  A    between atoms: C_3  and  C_4 
REMARK    2  A    between atoms: C_4  and  N_5 
REMARK    3  A    between atoms: N_8  and  C_10 
REMARK    4  A    between atoms: C_10  and  C_11 
ROOT
HETATM    1  N   UNL     1     -37.296  40.541 -55.382  1.00  0.00    -0.405 N 
HETATM    2  C   UNL     1     -38.251  40.780 -56.467  1.00  0.00     0.150 C 
HETATM    3  C   UNL     1     -37.758  41.060 -57.910  1.00  0.00     0.206 C 
HETATM    4  N   UNL     1     -37.138  39.843 -58.600  1.00  0.00    -0.061 N 
HETATM    5  H   UNL     1     -37.056  40.142 -59.580  1.00  0.00     0.280 HD
HETATM    6  C   UNL     1     -35.734  39.517 -58.171  1.00  0.00     0.242 C 
HETATM    7  C   UNL     1     -35.279  40.369 -56.997  1.00  0.00     0.029 C 
HETATM    8  C   UNL     1     -36.002  39.952 -55.702  1.00  0.00     0.123 C 
HETATM    9  C   UNL     1     -36.746  42.209 -57.967  1.00  0.00     0.035 C 
HETATM   10  C   UNL     1     -35.397  41.855 -57.340  1.00  0.00     0.010 C 
ENDROOT
BRANCH   4  11
HETATM   11  C   UNL     1     -38.014  38.609 -58.688  1.00  0.00     0.274 C 
BRANCH  11  12
HETATM   12  C   UNL     1     -38.580  38.373 -60.060  1.00  0.00    -0.032 A 
HETATM   13  C   UNL     1     -39.966  38.158 -60.209  1.00  0.00     0.022 A 
HETATM   14  C   UNL     1     -40.512  37.962 -61.492  1.00  0.00    -0.008 A 
HETATM   15  C   UNL     1     -39.658  37.975 -62.592  1.00  0.00     0.042 A 
HETATM   16  C   UNL     1     -41.829  37.753 -61.980  1.00  0.00     0.030 A 
HETATM   17  N   UNL     1     -40.439  37.782 -63.711  1.00  0.00    -0.365 N 
HETATM   18  C   UNL     1     -38.278  38.171 -62.475  1.00  0.00     0.031 A 
HETATM   19  H   UNL     1     -40.092  37.758 -64.662  1.00  0.00     0.165 HD
HETATM   20  C   UNL     1     -41.754  37.647 -63.350  1.00  0.00     0.089 A 
HETATM   21  C   UNL     1     -37.756  38.372 -61.193  1.00  0.00     0.011 A 
ENDBRANCH  11  12
ENDBRANCH   4  11
BRANCH   1  22
HETATM   22  C   UNL     1     -37.188  41.658 -54.415  1.00  0.00     0.176 C 
BRANCH  22  23
HETATM   23  C   UNL     1     -36.593  41.288 -53.069  1.00  0.00     0.051 A 
HETATM   24  C   UNL     1     -35.434  41.907 -52.606  1.00  0.00     0.029 A 
HETATM   25  C   UNL     1     -34.945  41.561 -51.349  1.00  0.00     0.003 A 
HETATM   26  C   UNL     1     -35.627  40.620 -50.588  1.00  0.00     0.019 A 
HETATM   27  C   UNL     1     -36.767  40.045 -51.124  1.00  0.00     0.117 A 
HETATM   28  N   UNL     1     -37.255  40.345 -52.349  1.00  0.00    -0.264 NA
ENDBRANCH  22  23
ENDBRANCH   1  22
TORSDOF 4
ENDMDL
MODEL 7
REMARK VINA RESULT:      -7.5      2.596      7.749
REMARK  4 active torsions:
REMARK  status: ('A' for Active; 'I' for Inactive)
REMARK    1  A    between atoms: C_3  and  C_4 
REMARK    2  A    between atoms: C_4  and  N_5 
REMARK    3  A    between atoms: N_8  and  C_10 
REMARK    4  A    between atoms: C_10  and  C_11 
ROOT
HETATM    1  N   UNL     1     -41.064  54.470 -53.589  1.00  0.00    -0.405 N 
HETATM    2  C   UNL     1     -40.775  55.869 -53.915  1.00  0.00     0.150 C 
HETATM    3  C   UNL     1     -41.780  56.714 -54.740  1.00  0.00     0.206 C 
HETATM    4  N   UNL     1     -43.065  57.060 -53.985  1.00  0.00    -0.061 N 
HETATM    5  H   UNL     1     -43.509  57.767 -54.585  1.00  0.00     0.280 HD
HETATM    6  C   UNL     1     -44.065  55.941 -53.891  1.00  0.00     0.242 C 
HETATM    7  C   UNL     1     -43.511  54.628 -54.419  1.00  0.00     0.029 C 
HETATM    8  C   UNL     1     -42.454  54.052 -53.458  1.00  0.00     0.123 C 
HETATM    9  C   UNL     1     -42.166  56.036 -56.058  1.00  0.00     0.035 C 
HETATM   10  C   UNL     1     -43.036  54.792 -55.864  1.00  0.00     0.010 C 
ENDROOT
BRANCH   4  11
HETATM   11  C   UNL     1     -42.888  57.787 -52.667  1.00  0.00     0.274 C 
BRANCH  11  12
HETATM   12  C   UNL     1     -43.907  58.867 -52.437  1.00  0.00    -0.032 A 
HETATM   13  C   UNL     1     -44.122  59.348 -51.129  1.00  0.00     0.022 A 
HETATM   14  C   UNL     1     -45.054  60.378 -50.904  1.00  0.00    -0.008 A 
HETATM   15  C   UNL     1     -45.756  60.895 -51.990  1.00  0.00     0.042 A 
HETATM   16  C   UNL     1     -45.478  61.088 -49.750  1.00  0.00     0.030 A 
HETATM   17  N   UNL     1     -46.578  61.889 -51.505  1.00  0.00    -0.365 N 
HETATM   18  C   UNL     1     -45.576  60.429 -53.297  1.00  0.00     0.031 A 
HETATM   19  H   UNL     1     -47.199  62.455 -52.070  1.00  0.00     0.165 HD
HETATM   20  C   UNL     1     -46.415  62.013 -50.150  1.00  0.00     0.089 A 
HETATM   21  C   UNL     1     -44.638  59.410 -53.501  1.00  0.00     0.011 A 
ENDBRANCH  11  12
ENDBRANCH   4  11
BRANCH   1  22
HETATM   22  C   UNL     1     -40.244  53.492 -54.341  1.00  0.00     0.176 C 
BRANCH  22  23
HETATM   23  C   UNL     1     -40.029  52.161 -53.643  1.00  0.00     0.051 A 
HETATM   24  C   UNL     1     -40.089  50.965 -54.354  1.00  0.00     0.029 A 
HETATM   25  C   UNL     1     -39.849  49.771 -53.678  1.00  0.00     0.003 A 
HETATM   26  C   UNL     1     -39.549  49.804 -52.323  1.00  0.00     0.019 A 
HETATM   27  C   UNL     1     -39.517  51.034 -51.688  1.00  0.00     0.117 A 
HETATM   28  N   UNL     1     -39.765  52.208 -52.311  1.00  0.00    -0.264 NA
ENDBRANCH  22  23
ENDBRANCH   1  22
TORSDOF 4
ENDMDL
MODEL 8
REMARK VINA RESULT:      -7.5     15.201     18.690
REMARK  4 active torsions:
REMARK  status: ('A' for Active; 'I' for Inactive)
REMARK    1  A    between atoms: C_3  and  C_4 
REMARK    2  A    between atoms: C_4  and  N_5 
REMARK    3  A    between atoms: N_8  and  C_10 
REMARK    4  A    between atoms: C_10  and  C_11 
ROOT
HETATM    1  N   UNL     1     -35.422  40.347 -55.380  1.00  0.00    -0.405 N 
HETATM    2  C   UNL     1     -36.436  39.403 -55.855  1.00  0.00     0.150 C 
HETATM    3  C   UNL     1     -37.583  39.874 -56.786  1.00  0.00     0.206 C 
HETATM    4  N   UNL     1     -37.125  40.236 -58.200  1.00  0.00    -0.061 N 
HETATM    5  H   UNL     1     -38.008  40.326 -58.719  1.00  0.00     0.280 HD
HETATM    6  C   UNL     1     -36.457  41.577 -58.326  1.00  0.00     0.242 C 
HETATM    7  C   UNL     1     -36.213  42.228 -56.974  1.00  0.00     0.029 C 
HETATM    8  C   UNL     1     -35.092  41.500 -56.208  1.00  0.00     0.123 C 
HETATM    9  C   UNL     1     -38.347  41.070 -56.209  1.00  0.00     0.035 C 
HETATM   10  C   UNL     1     -37.528  42.362 -56.202  1.00  0.00     0.010 C 
ENDROOT
BRANCH   4  11
HETATM   11  C   UNL     1     -36.388  39.151 -58.959  1.00  0.00     0.274 C 
BRANCH  11  12
HETATM   12  C   UNL     1     -37.052  38.767 -60.251  1.00  0.00    -0.032 A 
HETATM   13  C   UNL     1     -38.439  38.510 -60.266  1.00  0.00     0.022 A 
HETATM   14  C   UNL     1     -39.077  38.176 -61.476  1.00  0.00    -0.008 A 
HETATM   15  C   UNL     1     -38.313  38.095 -62.637  1.00  0.00     0.042 A 
HETATM   16  C   UNL     1     -40.422  37.892 -61.834  1.00  0.00     0.030 A 
HETATM   17  N   UNL     1     -39.172  37.775 -63.665  1.00  0.00    -0.365 N 
HETATM   18  C   UNL     1     -36.934  38.330 -62.651  1.00  0.00     0.031 A 
HETATM   19  H   UNL     1     -38.900  37.662 -64.634  1.00  0.00     0.165 HD
HETATM   20  C   UNL     1     -40.451  37.651 -63.188  1.00  0.00     0.089 A 
HETATM   21  C   UNL     1     -36.319  38.669 -61.441  1.00  0.00     0.011 A 
ENDBRANCH  11  12
ENDBRANCH   4  11
BRANCH   1  22
HETATM   22  C   UNL     1     -35.545  40.695 -53.945  1.00  0.00     0.176 C 
BRANCH  22  23
HETATM   23  C   UNL     1     -34.262  40.577 -53.142  1.00  0.00     0.051 A 
HETATM   24  C   UNL     1     -34.206  41.010 -51.819  1.00  0.00     0.029 A 
HETATM   25  C   UNL     1     -33.019  40.847 -51.110  1.00  0.00     0.003 A 
HETATM   26  C   UNL     1     -31.929  40.252 -51.734  1.00  0.00     0.019 A 
HETATM   27  C   UNL     1     -32.065  39.857 -53.054  1.00  0.00     0.117 A 
HETATM   28  N   UNL     1     -33.198  40.019 -53.774  1.00  0.00    -0.264 NA
ENDBRANCH  22  23
ENDBRANCH   1  22
TORSDOF 4
ENDMDL
MODEL 9
REMARK VINA RESULT:      -7.4      2.427      3.057
REMARK  4 active torsions:
REMARK  status: ('A' for Active; 'I' for Inactive)
REMARK    1  A    between atoms: C_3  and  C_4 
REMARK    2  A    between atoms: C_4  and  N_5 
REMARK    3  A    between atoms: N_8  and  C_10 
REMARK    4  A    between atoms: C_10  and  C_11 
ROOT
HETATM    1  N   UNL     1     -44.815  57.539 -57.229  1.00  0.00    -0.405 N 
HETATM    2  C   UNL     1     -43.599  56.752 -57.014  1.00  0.00     0.150 C 
HETATM    3  C   UNL     1     -42.618  57.106 -55.867  1.00  0.00     0.206 C 
HETATM    4  N   UNL     1     -43.166  56.811 -54.469  1.00  0.00    -0.061 N 
HETATM    5  H   UNL     1     -42.340  56.909 -53.865  1.00  0.00     0.280 HD
HETATM    6  C   UNL     1     -44.154  57.818 -53.950  1.00  0.00     0.242 C 
HETATM    7  C   UNL     1     -44.544  58.839 -55.006  1.00  0.00     0.029 C 
HETATM    8  C   UNL     1     -45.435  58.200 -56.087  1.00  0.00     0.123 C 
HETATM    9  C   UNL     1     -42.179  58.574 -55.908  1.00  0.00     0.035 C 
HETATM   10  C   UNL     1     -43.300  59.549 -55.545  1.00  0.00     0.010 C 
ENDROOT
BRANCH   4  11
HETATM   11  C   UNL     1     -43.610  55.384 -54.216  1.00  0.00     0.274 C 
BRANCH  11  12
HETATM   12  C   UNL     1     -42.534  54.518 -53.622  1.00  0.00    -0.032 A 
HETATM   13  C   UNL     1     -42.009  53.451 -54.379  1.00  0.00     0.022 A 
HETATM   14  C   UNL     1     -40.982  52.650 -53.844  1.00  0.00    -0.008 A 
HETATM   15  C   UNL     1     -40.514  52.928 -52.562  1.00  0.00     0.042 A 
HETATM   16  C   UNL     1     -40.235  51.547 -54.337  1.00  0.00     0.030 A 
HETATM   17  N   UNL     1     -39.513  52.021 -52.291  1.00  0.00    -0.365 N 
HETATM   18  C   UNL     1     -41.026  53.970 -51.781  1.00  0.00     0.031 A 
HETATM   19  H   UNL     1     -38.976  51.989 -51.433  1.00  0.00     0.165 HD
HETATM   20  C   UNL     1     -39.337  51.182 -53.361  1.00  0.00     0.089 A 
HETATM   21  C   UNL     1     -42.040  54.760 -52.334  1.00  0.00     0.011 A 
ENDBRANCH  11  12
ENDBRANCH   4  11
BRANCH   1  22
HETATM   22  C   UNL     1     -44.771  58.405 -58.431  1.00  0.00     0.176 C 
BRANCH  22  23
HETATM   23  C   UNL     1     -45.803  58.078 -59.496  1.00  0.00     0.051 A 
HETATM   24  C   UNL     1     -46.151  56.757 -59.770  1.00  0.00     0.029 A 
HETATM   25  C   UNL     1     -47.128  56.507 -60.730  1.00  0.00     0.003 A 
HETATM   26  C   UNL     1     -47.735  57.575 -61.379  1.00  0.00     0.019 A 
HETATM   27  C   UNL     1     -47.326  58.857 -61.054  1.00  0.00     0.117 A 
HETATM   28  N   UNL     1     -46.366  59.131 -60.142  1.00  0.00    -0.264 NA
ENDBRANCH  22  23
ENDBRANCH   1  22
TORSDOF 4
ENDMDL
MODEL 10
REMARK VINA RESULT:      -7.4      1.200      1.736
REMARK  4 active torsions:
REMARK  status: ('A' for Active; 'I' for Inactive)
REMARK    1  A    between atoms: C_3  and  C_4 
REMARK    2  A    between atoms: C_4  and  N_5 
REMARK    3  A    between atoms: N_8  and  C_10 
REMARK    4  A    between atoms: C_10  and  C_11 
ROOT
HETATM    1  N   UNL     1     -43.173  58.540 -55.532  1.00  0.00    -0.405 N 
HETATM    2  C   UNL     1     -42.208  57.491 -55.193  1.00  0.00     0.150 C 
HETATM    3  C   UNL     1     -41.511  57.473 -53.809  1.00  0.00     0.206 C 
HETATM    4  N   UNL     1     -42.443  57.119 -52.649  1.00  0.00    -0.061 N 
HETATM    5  H   UNL     1     -41.797  56.959 -51.865  1.00  0.00     0.280 HD
HETATM    6  C   UNL     1     -43.342  58.235 -52.194  1.00  0.00     0.242 C 
HETATM    7  C   UNL     1     -43.262  59.447 -53.108  1.00  0.00     0.029 C 
HETATM    8  C   UNL     1     -43.942  59.161 -54.460  1.00  0.00     0.123 C 
HETATM    9  C   UNL     1     -40.828  58.806 -53.484  1.00  0.00     0.035 C 
HETATM   10  C   UNL     1     -41.818  59.940 -53.215  1.00  0.00     0.010 C 
ENDROOT
BRANCH   4  11
HETATM   11  C   UNL     1     -43.178  55.798 -52.765  1.00  0.00     0.274 C 
BRANCH  11  12
HETATM   12  C   UNL     1     -42.266  54.620 -52.964  1.00  0.00    -0.032 A 
HETATM   13  C   UNL     1     -41.474  54.169 -51.888  1.00  0.00     0.022 A 
HETATM   14  C   UNL     1     -40.636  53.051 -52.055  1.00  0.00    -0.008 A 
HETATM   15  C   UNL     1     -40.602  52.418 -53.295  1.00  0.00     0.042 A 
HETATM   16  C   UNL     1     -39.756  52.342 -51.194  1.00  0.00     0.030 A 
HETATM   17  N   UNL     1     -39.729  51.357 -53.184  1.00  0.00    -0.365 N 
HETATM   18  C   UNL     1     -41.364  52.850 -54.385  1.00  0.00     0.031 A 
HETATM   19  H   UNL     1     -39.512  50.705 -53.927  1.00  0.00     0.165 HD
HETATM   20  C   UNL     1     -39.213  51.304 -51.916  1.00  0.00     0.089 A 
HETATM   21  C   UNL     1     -42.198  53.959 -54.197  1.00  0.00     0.011 A 
ENDBRANCH  11  12
ENDBRANCH   4  11
BRANCH   1  22
HETATM   22  C   UNL     1     -42.671  59.527 -56.516  1.00  0.00     0.176 C 
BRANCH  22  23
HETATM   23  C   UNL     1     -42.863  59.139 -57.971  1.00  0.00     0.051 A 
HETATM   24  C   UNL     1     -41.824  58.560 -58.698  1.00  0.00     0.029 A 
HETATM   25  C   UNL     1     -42.058  58.186 -60.019  1.00  0.00     0.003 A 
HETATM   26  C   UNL     1     -43.315  58.390 -60.573  1.00  0.00     0.019 A 
HETATM   27  C   UNL     1     -44.290  58.978 -59.786  1.00  0.00     0.117 A 
HETATM   28  N   UNL     1     -44.089  59.370 -58.507  1.00  0.00    -0.264 NA
ENDBRANCH  22  23
ENDBRANCH   1  22
TORSDOF 4
ENDMDL
