MODEL 1
REMARK VINA RESULT:      -8.8      0.000      0.000
REMARK  7 active torsions:
REMARK  status: ('A' for Active; 'I' for Inactive)
REMARK    1  A    between atoms: C_2  and  C_3 
REMARK    2  A    between atoms: C_6  and  C_7 
REMARK    3  A    between atoms: C_7  and  N_8 
REMARK    4  A    between atoms: C_7  and  C_25 
REMARK    5  A    between atoms: N_8  and  C_11 
REMARK    6  A    between atoms: C_11  and  C_12 
REMARK       I    between atoms: C_12  and  N_13 
REMARK    7  A    between atoms: N_13  and  C_14 
ROOT
HETATM    1  N   UNL     1     -43.402  56.176 -54.529  1.00  0.00    -0.054 N 
HETATM    2  H   UNL     1     -42.781  56.761 -55.114  1.00  0.00     0.278 HD
HETATM    3  H   UNL     1     -43.521  55.334 -55.101  1.00  0.00     0.278 HD
ENDROOT
BRANCH   1   4
HETATM    4  C   UNL     1     -42.684  55.853 -53.263  1.00  0.00     0.259 C 
BRANCH   4   5
HETATM    5  C   UNL     1     -41.903  54.549 -53.309  1.00  0.00    -0.023 A 
HETATM    6  C   UNL     1     -41.887  53.710 -54.438  1.00  0.00     0.010 A 
HETATM    7  C   UNL     1     -41.107  52.550 -54.453  1.00  0.00     0.007 A 
HETATM    8  C   UNL     1     -40.317  52.208 -53.350  1.00  0.00    -0.059 A 
HETATM    9  C   UNL     1     -40.319  53.042 -52.229  1.00  0.00     0.007 A 
HETATM   10  C   UNL     1     -41.103  54.199 -52.208  1.00  0.00     0.010 A 
BRANCH   8  11
HETATM   11  C   UNL     1     -39.426  50.990 -53.396  1.00  0.00     0.034 C 
HETATM   12  C   UNL     1     -39.900  49.988 -54.438  1.00  0.00     0.010 C 
ENDBRANCH   8  11
ENDBRANCH   4   5
BRANCH   4  13
HETATM   13  C   UNL     1     -41.834  57.037 -52.864  1.00  0.00     0.017 A 
HETATM   14  S   UNL     1     -42.115  57.780 -51.337  1.00  0.00    -0.104 SA
HETATM   15  C   UNL     1     -40.892  58.941 -51.596  1.00  0.00     0.050 A 
HETATM   16  C   UNL     1     -40.284  58.785 -52.820  1.00  0.00     0.008 A 
HETATM   17  C   UNL     1     -40.828  57.691 -53.554  1.00  0.00     0.017 A 
ENDBRANCH   4  13
ENDBRANCH   1   4
BRANCH   1  18
HETATM   18  C   UNL     1     -44.709  56.924 -54.416  1.00  0.00     0.336 C 
BRANCH  18  19
HETATM   19  C   UNL     1     -44.502  58.344 -54.925  1.00  0.00     0.248 C 
HETATM   20  N   UNL     1     -44.604  58.698 -56.230  1.00  0.00    -0.326 N 
HETATM   21  H   UNL     1     -44.349  59.675 -56.361  1.00  0.00     0.169 HD
HETATM   22  O   UNL     1     -44.191  59.205 -54.091  1.00  0.00    -0.271 OA
BRANCH  20  23
HETATM   23  C   UNL     1     -44.975  58.014 -57.404  1.00  0.00     0.037 A 
HETATM   24  C   UNL     1     -44.139  57.178 -58.153  1.00  0.00     0.061 A 
HETATM   25  C   UNL     1     -44.685  56.586 -59.274  1.00  0.00     0.065 A 
HETATM   26  C   UNL     1     -46.005  56.786 -59.666  1.00  0.00     0.063 A 
HETATM   27  N   UNL     1     -44.097  55.718 -60.188  1.00  0.00    -0.306 N 
HETATM   28  N   UNL     1     -46.230  56.048 -60.821  1.00  0.00    -0.307 N 
HETATM   29  C   UNL     1     -46.856  57.588 -58.955  1.00  0.00     0.034 A 
HETATM   30  C   UNL     1     -45.050  55.373 -61.160  1.00  0.00     0.325 A 
HETATM   31  H   UNL     1     -47.085  55.975 -61.351  1.00  0.00     0.170 HD
HETATM   32  O   UNL     1     -44.875  54.632 -62.108  1.00  0.00    -0.247 OA
HETATM   33  C   UNL     1     -46.327  58.200 -57.812  1.00  0.00     0.032 A 
HETATM   34  H   UNL     1     -43.157  55.357 -60.202  1.00  0.00     0.170 HD
ENDBRANCH  20  23
ENDBRANCH  18  19
ENDBRANCH   1  18
TORSDOF 7
ENDMDL
MODEL 2
REMARK VINA RESULT:      -8.4      3.063      6.626
REMARK  7 active torsions:
REMARK  status: ('A' for Active; 'I' for Inactive)
REMARK    1  A    between atoms: C_2  and  C_3 
REMARK    2  A    between atoms: C_6  and  C_7 
REMARK    3  A    between atoms: C_7  and  N_8 
REMARK    4  A    between atoms: C_7  and  C_25 
REMARK    5  A    between atoms: N_8  and  C_11 
REMARK    6  A    between atoms: C_11  and  C_12 
REMARK       I    between atoms: C_12  and  N_13 
REMARK    7  A    between atoms: N_13  and  C_14 
ROOT
HETATM    1  N   UNL     1     -44.739  57.182 -56.062  1.00  0.00    -0.054 N 
HETATM    2  H   UNL     1     -45.085  57.900 -56.721  1.00  0.00     0.278 HD
HETATM    3  H   UNL     1     -45.177  56.325 -56.415  1.00  0.00     0.278 HD
ENDROOT
BRANCH   1   4
HETATM    4  C   UNL     1     -43.257  57.103 -56.191  1.00  0.00     0.259 C 
BRANCH   4   5
HETATM    5  C   UNL     1     -42.609  56.074 -55.278  1.00  0.00    -0.023 A 
HETATM    6  C   UNL     1     -43.284  54.928 -54.822  1.00  0.00     0.010 A 
HETATM    7  C   UNL     1     -42.628  53.981 -54.030  1.00  0.00     0.007 A 
HETATM    8  C   UNL     1     -41.282  54.148 -53.687  1.00  0.00    -0.059 A 
HETATM    9  C   UNL     1     -40.601  55.279 -54.145  1.00  0.00     0.007 A 
HETATM   10  C   UNL     1     -41.256  56.231 -54.931  1.00  0.00     0.010 A 
BRANCH   8  11
HETATM   11  C   UNL     1     -40.559  53.092 -52.887  1.00  0.00     0.034 C 
HETATM   12  C   UNL     1     -40.028  51.979 -53.779  1.00  0.00     0.010 C 
ENDBRANCH   8  11
ENDBRANCH   4   5
BRANCH   4  13
HETATM   13  C   UNL     1     -42.899  56.908 -57.647  1.00  0.00     0.017 A 
HETATM   14  S   UNL     1     -42.160  58.209 -58.499  1.00  0.00    -0.104 SA
HETATM   15  C   UNL     1     -42.087  57.312 -59.948  1.00  0.00     0.050 A 
HETATM   16  C   UNL     1     -42.621  56.053 -59.803  1.00  0.00     0.008 A 
HETATM   17  C   UNL     1     -43.093  55.820 -58.479  1.00  0.00     0.017 A 
ENDBRANCH   4  13
ENDBRANCH   1   4
BRANCH   1  18
HETATM   18  C   UNL     1     -45.301  57.542 -54.708  1.00  0.00     0.336 C 
BRANCH  18  19
HETATM   19  C   UNL     1     -44.796  58.925 -54.323  1.00  0.00     0.248 C 
HETATM   20  N   UNL     1     -43.896  59.149 -53.333  1.00  0.00    -0.326 N 
HETATM   21  H   UNL     1     -43.758  60.148 -53.189  1.00  0.00     0.169 HD
HETATM   22  O   UNL     1     -45.269  59.892 -54.937  1.00  0.00    -0.271 OA
BRANCH  20  23
HETATM   23  C   UNL     1     -43.140  58.313 -52.490  1.00  0.00     0.037 A 
HETATM   24  C   UNL     1     -43.616  57.163 -51.851  1.00  0.00     0.061 A 
HETATM   25  C   UNL     1     -42.721  56.464 -51.066  1.00  0.00     0.065 A 
HETATM   26  C   UNL     1     -41.396  56.856 -50.902  1.00  0.00     0.063 A 
HETATM   27  N   UNL     1     -42.914  55.301 -50.328  1.00  0.00    -0.306 N 
HETATM   28  N   UNL     1     -40.775  55.940 -50.062  1.00  0.00    -0.307 N 
HETATM   29  C   UNL     1     -40.890  57.968 -51.518  1.00  0.00     0.034 A 
HETATM   30  C   UNL     1     -41.708  54.960 -49.696  1.00  0.00     0.325 A 
HETATM   31  H   UNL     1     -39.815  55.938 -49.752  1.00  0.00     0.170 HD
HETATM   32  O   UNL     1     -41.519  54.001 -48.974  1.00  0.00    -0.247 OA
HETATM   33  C   UNL     1     -41.778  58.694 -52.321  1.00  0.00     0.032 A 
HETATM   34  H   UNL     1     -43.750  54.747 -50.230  1.00  0.00     0.170 HD
ENDBRANCH  20  23
ENDBRANCH  18  19
ENDBRANCH   1  18
TORSDOF 7
ENDMDL
MODEL 3
REMARK VINA RESULT:      -8.1      1.571      2.152
REMARK  7 active torsions:
REMARK  status: ('A' for Active; 'I' for Inactive)
REMARK    1  A    between atoms: C_2  and  C_3 
REMARK    2  A    between atoms: C_6  and  C_7 
REMARK    3  A    between atoms: C_7  and  N_8 
REMARK    4  A    between atoms: C_7  and  C_25 
REMARK    5  A    between atoms: N_8  and  C_11 
REMARK    6  A    between atoms: C_11  and  C_12 
REMARK       I    between atoms: C_12  and  N_13 
REMARK    7  A    between atoms: N_13  and  C_14 
ROOT
HETATM    1  N   UNL     1     -41.740  57.064 -55.124  1.00  0.00    -0.054 N 
HETATM    2  H   UNL     1     -40.997  57.782 -55.089  1.00  0.00     0.278 HD
HETATM    3  H   UNL     1     -41.364  56.385 -55.794  1.00  0.00     0.278 HD
ENDROOT
BRANCH   1   4
HETATM    4  C   UNL     1     -41.863  56.452 -53.772  1.00  0.00     0.259 C 
BRANCH   4   5
HETATM    5  C   UNL     1     -41.198  55.090 -53.644  1.00  0.00    -0.023 A 
HETATM    6  C   UNL     1     -41.038  54.432 -52.411  1.00  0.00     0.010 A 
HETATM    7  C   UNL     1     -40.472  53.156 -52.352  1.00  0.00     0.007 A 
HETATM    8  C   UNL     1     -40.063  52.502 -53.520  1.00  0.00    -0.059 A 
HETATM    9  C   UNL     1     -40.228  53.145 -54.749  1.00  0.00     0.007 A 
HETATM   10  C   UNL     1     -40.787  54.424 -54.812  1.00  0.00     0.010 A 
BRANCH   8  11
HETATM   11  C   UNL     1     -39.512  51.098 -53.457  1.00  0.00     0.034 C 
HETATM   12  C   UNL     1     -40.236  50.168 -54.420  1.00  0.00     0.010 C 
ENDBRANCH   8  11
ENDBRANCH   4   5
BRANCH   4  13
HETATM   13  C   UNL     1     -41.382  57.443 -52.737  1.00  0.00     0.017 A 
HETATM   14  S   UNL     1     -42.288  57.629 -51.285  1.00  0.00    -0.104 SA
HETATM   15  C   UNL     1     -41.224  58.823 -50.690  1.00  0.00     0.050 A 
HETATM   16  C   UNL     1     -40.205  59.091 -51.573  1.00  0.00     0.008 A 
HETATM   17  C   UNL     1     -40.296  58.300 -52.755  1.00  0.00     0.017 A 
ENDBRANCH   4  13
ENDBRANCH   1   4
BRANCH   1  18
HETATM   18  C   UNL     1     -42.961  57.745 -55.694  1.00  0.00     0.336 C 
BRANCH  18  19
HETATM   19  C   UNL     1     -42.507  58.844 -56.643  1.00  0.00     0.248 C 
HETATM   20  N   UNL     1     -42.843  58.892 -57.956  1.00  0.00    -0.326 N 
HETATM   21  H   UNL     1     -42.369  59.663 -58.423  1.00  0.00     0.169 HD
HETATM   22  O   UNL     1     -41.761  59.719 -56.181  1.00  0.00    -0.271 OA
BRANCH  20  23
HETATM   23  C   UNL     1     -43.684  58.119 -58.780  1.00  0.00     0.037 A 
HETATM   24  C   UNL     1     -45.016  58.418 -59.085  1.00  0.00     0.061 A 
HETATM   25  C   UNL     1     -45.681  57.543 -59.921  1.00  0.00     0.065 A 
HETATM   26  C   UNL     1     -45.079  56.409 -60.458  1.00  0.00     0.063 A 
HETATM   27  N   UNL     1     -46.989  57.591 -60.389  1.00  0.00    -0.306 N 
HETATM   28  N   UNL     1     -46.015  55.758 -61.252  1.00  0.00    -0.307 N 
HETATM   29  C   UNL     1     -43.775  56.088 -60.192  1.00  0.00     0.034 A 
HETATM   30  C   UNL     1     -47.213  56.484 -61.222  1.00  0.00     0.325 A 
HETATM   31  H   UNL     1     -45.890  54.910 -61.783  1.00  0.00     0.170 HD
HETATM   32  O   UNL     1     -48.248  56.214 -61.800  1.00  0.00    -0.247 OA
HETATM   33  C   UNL     1     -43.078  56.961 -59.347  1.00  0.00     0.032 A 
HETATM   34  H   UNL     1     -47.701  58.280 -60.204  1.00  0.00     0.170 HD
ENDBRANCH  20  23
ENDBRANCH  18  19
ENDBRANCH   1  18
TORSDOF 7
ENDMDL
MODEL 4
REMARK VINA RESULT:      -8.0      4.192      6.766
REMARK  7 active torsions:
REMARK  status: ('A' for Active; 'I' for Inactive)
REMARK    1  A    between atoms: C_2  and  C_3 
REMARK    2  A    between atoms: C_6  and  C_7 
REMARK    3  A    between atoms: C_7  and  N_8 
REMARK    4  A    between atoms: C_7  and  C_25 
REMARK    5  A    between atoms: N_8  and  C_11 
REMARK    6  A    between atoms: C_11  and  C_12 
REMARK       I    between atoms: C_12  and  N_13 
REMARK    7  A    between atoms: N_13  and  C_14 
ROOT
HETATM    1  N   UNL     1     -41.443  56.879 -51.758  1.00  0.00    -0.054 N 
HETATM    2  H   UNL     1     -42.387  57.292 -51.669  1.00  0.00     0.278 HD
HETATM    3  H   UNL     1     -41.481  56.093 -51.100  1.00  0.00     0.278 HD
ENDROOT
BRANCH   1   4
HETATM    4  C   UNL     1     -41.277  56.386 -53.154  1.00  0.00     0.259 C 
BRANCH   4   5
HETATM    5  C   UNL     1     -40.908  54.914 -53.252  1.00  0.00    -0.023 A 
HETATM    6  C   UNL     1     -40.597  54.287 -54.472  1.00  0.00     0.010 A 
HETATM    7  C   UNL     1     -40.207  52.945 -54.504  1.00  0.00     0.007 A 
HETATM    8  C   UNL     1     -40.106  52.203 -53.322  1.00  0.00    -0.059 A 
HETATM    9  C   UNL     1     -40.404  52.822 -52.106  1.00  0.00     0.007 A 
HETATM   10  C   UNL     1     -40.801  54.161 -52.070  1.00  0.00     0.010 A 
BRANCH   8  11
HETATM   11  C   UNL     1     -39.623  50.773 -53.355  1.00  0.00     0.034 C 
HETATM   12  C   UNL     1     -40.149  50.031 -54.575  1.00  0.00     0.010 C 
ENDBRANCH   8  11
ENDBRANCH   4   5
BRANCH   4  13
HETATM   13  C   UNL     1     -42.512  56.740 -53.951  1.00  0.00     0.017 A 
HETATM   14  S   UNL     1     -44.036  56.759 -53.150  1.00  0.00    -0.104 SA
HETATM   15  C   UNL     1     -44.862  57.187 -54.580  1.00  0.00     0.050 A 
HETATM   16  C   UNL     1     -44.009  57.304 -55.653  1.00  0.00     0.008 A 
HETATM   17  C   UNL     1     -42.655  57.042 -55.293  1.00  0.00     0.017 A 
ENDBRANCH   4  13
ENDBRANCH   1   4
BRANCH   1  18
HETATM   18  C   UNL     1     -40.473  57.928 -51.269  1.00  0.00     0.336 C 
BRANCH  18  19
HETATM   19  C   UNL     1     -40.360  59.016 -52.327  1.00  0.00     0.248 C 
HETATM   20  N   UNL     1     -41.316  59.951 -52.550  1.00  0.00    -0.326 N 
HETATM   21  H   UNL     1     -41.076  60.530 -53.353  1.00  0.00     0.169 HD
HETATM   22  O   UNL     1     -39.345  59.012 -53.038  1.00  0.00    -0.271 OA
BRANCH  20  23
HETATM   23  C   UNL     1     -42.535  60.275 -51.923  1.00  0.00     0.037 A 
HETATM   24  C   UNL     1     -42.715  60.453 -50.547  1.00  0.00     0.061 A 
HETATM   25  C   UNL     1     -43.986  60.776 -50.116  1.00  0.00     0.065 A 
HETATM   26  C   UNL     1     -45.060  60.931 -50.987  1.00  0.00     0.063 A 
HETATM   27  N   UNL     1     -44.448  61.013 -48.826  1.00  0.00    -0.306 N 
HETATM   28  N   UNL     1     -46.182  61.258 -50.235  1.00  0.00    -0.307 N 
HETATM   29  C   UNL     1     -44.923  60.776 -52.340  1.00  0.00     0.034 A 
HETATM   30  C   UNL     1     -45.817  61.315 -48.884  1.00  0.00     0.325 A 
HETATM   31  H   UNL     1     -47.116  61.440 -50.568  1.00  0.00     0.170 HD
HETATM   32  O   UNL     1     -46.538  61.574 -47.940  1.00  0.00    -0.247 OA
HETATM   33  C   UNL     1     -43.642  60.448 -52.802  1.00  0.00     0.032 A 
HETATM   34  H   UNL     1     -43.936  60.992 -47.959  1.00  0.00     0.170 HD
ENDBRANCH  20  23
ENDBRANCH  18  19
ENDBRANCH   1  18
TORSDOF 7
ENDMDL
MODEL 5
REMARK VINA RESULT:      -7.8      3.682      6.652
REMARK  7 active torsions:
REMARK  status: ('A' for Active; 'I' for Inactive)
REMARK    1  A    between atoms: C_2  and  C_3 
REMARK    2  A    between atoms: C_6  and  C_7 
REMARK    3  A    between atoms: C_7  and  N_8 
REMARK    4  A    between atoms: C_7  and  C_25 
REMARK    5  A    between atoms: N_8  and  C_11 
REMARK    6  A    between atoms: C_11  and  C_12 
REMARK       I    between atoms: C_12  and  N_13 
REMARK    7  A    between atoms: N_13  and  C_14 
ROOT
HETATM    1  N   UNL     1     -42.617  58.285 -53.977  1.00  0.00    -0.054 N 
HETATM    2  H   UNL     1     -43.438  58.858 -54.234  1.00  0.00     0.278 HD
HETATM    3  H   UNL     1     -43.013  57.608 -53.317  1.00  0.00     0.278 HD
ENDROOT
BRANCH   1   4
HETATM    4  C   UNL     1     -42.124  57.596 -55.202  1.00  0.00     0.259 C 
BRANCH   4   5
HETATM    5  C   UNL     1     -41.801  56.123 -54.998  1.00  0.00    -0.023 A 
HETATM    6  C   UNL     1     -40.511  55.665 -54.675  1.00  0.00     0.010 A 
HETATM    7  C   UNL     1     -40.276  54.307 -54.440  1.00  0.00     0.007 A 
HETATM    8  C   UNL     1     -41.321  53.379 -54.509  1.00  0.00    -0.059 A 
HETATM    9  C   UNL     1     -42.607  53.829 -54.820  1.00  0.00     0.007 A 
HETATM   10  C   UNL     1     -42.845  55.184 -55.062  1.00  0.00     0.010 A 
BRANCH   8  11
HETATM   11  C   UNL     1     -41.075  51.924 -54.191  1.00  0.00     0.034 C 
HETATM   12  C   UNL     1     -39.598  51.642 -53.962  1.00  0.00     0.010 C 
ENDBRANCH   8  11
ENDBRANCH   4   5
BRANCH   4  13
HETATM   13  C   UNL     1     -43.104  57.834 -56.328  1.00  0.00     0.017 A 
HETATM   14  S   UNL     1     -44.459  58.856 -56.044  1.00  0.00    -0.104 SA
HETATM   15  C   UNL     1     -45.048  58.636 -57.630  1.00  0.00     0.050 A 
HETATM   16  C   UNL     1     -44.246  57.796 -58.366  1.00  0.00     0.008 A 
HETATM   17  C   UNL     1     -43.127  57.330 -57.617  1.00  0.00     0.017 A 
ENDBRANCH   4  13
ENDBRANCH   1   4
BRANCH   1  18
HETATM   18  C   UNL     1     -41.658  59.212 -53.267  1.00  0.00     0.336 C 
BRANCH  18  19
HETATM   19  C   UNL     1     -42.177  59.462 -51.858  1.00  0.00     0.248 C 
HETATM   20  N   UNL     1     -42.432  58.475 -50.964  1.00  0.00    -0.326 N 
HETATM   21  H   UNL     1     -42.847  58.855 -50.114  1.00  0.00     0.169 HD
HETATM   22  O   UNL     1     -42.407  60.637 -51.539  1.00  0.00    -0.271 OA
BRANCH  20  23
HETATM   23  C   UNL     1     -42.249  57.079 -50.967  1.00  0.00     0.037 A 
HETATM   24  C   UNL     1     -41.064  56.416 -50.632  1.00  0.00     0.061 A 
HETATM   25  C   UNL     1     -41.078  55.037 -50.687  1.00  0.00     0.065 A 
HETATM   26  C   UNL     1     -42.206  54.308 -51.049  1.00  0.00     0.063 A 
HETATM   27  N   UNL     1     -40.060  54.132 -50.407  1.00  0.00    -0.306 N 
HETATM   28  N   UNL     1     -41.884  52.958 -50.997  1.00  0.00    -0.307 N 
HETATM   29  C   UNL     1     -43.388  54.918 -51.374  1.00  0.00     0.034 A 
HETATM   30  C   UNL     1     -40.548  52.829 -50.595  1.00  0.00     0.325 A 
HETATM   31  H   UNL     1     -42.484  52.172 -51.197  1.00  0.00     0.170 HD
HETATM   32  O   UNL     1     -39.925  51.797 -50.439  1.00  0.00    -0.247 OA
HETATM   33  C   UNL     1     -43.400  56.318 -51.325  1.00  0.00     0.032 A 
HETATM   34  H   UNL     1     -39.115  54.316 -50.109  1.00  0.00     0.170 HD
ENDBRANCH  20  23
ENDBRANCH  18  19
ENDBRANCH   1  18
TORSDOF 7
ENDMDL
MODEL 6
REMARK VINA RESULT:      -7.7     16.106     19.140
REMARK  7 active torsions:
REMARK  status: ('A' for Active; 'I' for Inactive)
REMARK    1  A    between atoms: C_2  and  C_3 
REMARK    2  A    between atoms: C_6  and  C_7 
REMARK    3  A    between atoms: C_7  and  N_8 
REMARK    4  A    between atoms: C_7  and  C_25 
REMARK    5  A    between atoms: N_8  and  C_11 
REMARK    6  A    between atoms: C_11  and  C_12 
REMARK       I    between atoms: C_12  and  N_13 
REMARK    7  A    between atoms: N_13  and  C_14 
ROOT
HETATM    1  N   UNL     1     -32.127  39.567 -53.330  1.00  0.00    -0.054 N 
HETATM    2  H   UNL     1     -31.114  39.670 -53.508  1.00  0.00     0.278 HD
HETATM    3  H   UNL     1     -32.431  40.536 -53.197  1.00  0.00     0.278 HD
ENDROOT
BRANCH   1   4
HETATM    4  C   UNL     1     -32.758  38.982 -54.547  1.00  0.00     0.259 C 
BRANCH   4   5
HETATM    5  C   UNL     1     -33.911  39.805 -55.103  1.00  0.00    -0.023 A 
HETATM    6  C   UNL     1     -33.720  41.023 -55.779  1.00  0.00     0.010 A 
HETATM    7  C   UNL     1     -34.806  41.714 -56.323  1.00  0.00     0.007 A 
HETATM    8  C   UNL     1     -36.103  41.201 -56.217  1.00  0.00    -0.059 A 
HETATM    9  C   UNL     1     -36.299  39.987 -55.555  1.00  0.00     0.007 A 
HETATM   10  C   UNL     1     -35.217  39.296 -55.004  1.00  0.00     0.010 A 
BRANCH   8  11
HETATM   11  C   UNL     1     -37.264  41.918 -56.862  1.00  0.00     0.034 C 
HETATM   12  C   UNL     1     -37.049  42.103 -58.357  1.00  0.00     0.010 C 
ENDBRANCH   8  11
ENDBRANCH   4   5
BRANCH   4  13
HETATM   13  C   UNL     1     -31.684  38.702 -55.572  1.00  0.00     0.017 A 
HETATM   14  S   UNL     1     -31.931  37.427 -56.702  1.00  0.00    -0.104 SA
HETATM   15  C   UNL     1     -30.418  37.695 -57.443  1.00  0.00     0.050 A 
HETATM   16  C   UNL     1     -29.725  38.722 -56.845  1.00  0.00     0.008 A 
HETATM   17  C   UNL     1     -30.451  39.301 -55.764  1.00  0.00     0.017 A 
ENDBRANCH   4  13
ENDBRANCH   1   4
BRANCH   1  18
HETATM   18  C   UNL     1     -32.256  38.793 -52.039  1.00  0.00     0.336 C 
BRANCH  18  19
HETATM   19  C   UNL     1     -32.230  39.776 -50.878  1.00  0.00     0.248 C 
HETATM   20  N   UNL     1     -33.218  40.670 -50.626  1.00  0.00    -0.326 N 
HETATM   21  H   UNL     1     -32.963  41.283 -49.854  1.00  0.00     0.169 HD
HETATM   22  O   UNL     1     -31.226  39.769 -50.152  1.00  0.00    -0.271 OA
BRANCH  20  23
HETATM   23  C   UNL     1     -34.482  40.919 -51.195  1.00  0.00     0.037 A 
HETATM   24  C   UNL     1     -35.653  40.210 -50.908  1.00  0.00     0.061 A 
HETATM   25  C   UNL     1     -36.803  40.605 -51.561  1.00  0.00     0.065 A 
HETATM   26  C   UNL     1     -36.831  41.662 -52.467  1.00  0.00     0.063 A 
HETATM   27  N   UNL     1     -38.092  40.092 -51.468  1.00  0.00    -0.306 N 
HETATM   28  N   UNL     1     -38.132  41.797 -52.933  1.00  0.00    -0.307 N 
HETATM   29  C   UNL     1     -35.709  42.386 -52.767  1.00  0.00     0.034 A 
HETATM   30  C   UNL     1     -38.934  40.826 -52.318  1.00  0.00     0.325 A 
HETATM   31  H   UNL     1     -38.483  42.472 -53.595  1.00  0.00     0.170 HD
HETATM   32  O   UNL     1     -40.125  40.647 -52.483  1.00  0.00    -0.247 OA
HETATM   33  C   UNL     1     -34.529  42.005 -52.116  1.00  0.00     0.032 A 
HETATM   34  H   UNL     1     -38.429  39.331 -50.901  1.00  0.00     0.170 HD
ENDBRANCH  20  23
ENDBRANCH  18  19
ENDBRANCH   1  18
TORSDOF 7
ENDMDL
MODEL 7
REMARK VINA RESULT:      -7.7      2.870      5.665
REMARK  7 active torsions:
REMARK  status: ('A' for Active; 'I' for Inactive)
REMARK    1  A    between atoms: C_2  and  C_3 
REMARK    2  A    between atoms: C_6  and  C_7 
REMARK    3  A    between atoms: C_7  and  N_8 
REMARK    4  A    between atoms: C_7  and  C_25 
REMARK    5  A    between atoms: N_8  and  C_11 
REMARK    6  A    between atoms: C_11  and  C_12 
REMARK       I    between atoms: C_12  and  N_13 
REMARK    7  A    between atoms: N_13  and  C_14 
ROOT
HETATM    1  N   UNL     1     -42.242  56.968 -55.125  1.00  0.00    -0.054 N 
HETATM    2  H   UNL     1     -41.885  57.937 -55.085  1.00  0.00     0.278 HD
HETATM    3  H   UNL     1     -41.597  56.519 -55.784  1.00  0.00     0.278 HD
ENDROOT
BRANCH   1   4
HETATM    4  C   UNL     1     -42.111  56.363 -53.770  1.00  0.00     0.259 C 
BRANCH   4   5
HETATM    5  C   UNL     1     -41.384  55.028 -53.754  1.00  0.00    -0.023 A 
HETATM    6  C   UNL     1     -41.371  54.181 -52.631  1.00  0.00     0.010 A 
HETATM    7  C   UNL     1     -40.737  52.936 -52.684  1.00  0.00     0.007 A 
HETATM    8  C   UNL     1     -40.112  52.503 -53.859  1.00  0.00    -0.059 A 
HETATM    9  C   UNL     1     -40.129  53.335 -54.981  1.00  0.00     0.007 A 
HETATM   10  C   UNL     1     -40.756  54.583 -54.930  1.00  0.00     0.010 A 
BRANCH   8  11
HETATM   11  C   UNL     1     -39.485  51.132 -53.931  1.00  0.00     0.034 C 
HETATM   12  C   UNL     1     -39.704  50.347 -52.646  1.00  0.00     0.010 C 
ENDBRANCH   8  11
ENDBRANCH   4   5
BRANCH   4  13
HETATM   13  C   UNL     1     -41.498  57.381 -52.835  1.00  0.00     0.017 A 
HETATM   14  S   UNL     1     -42.115  57.510 -51.233  1.00  0.00    -0.104 SA
HETATM   15  C   UNL     1     -41.029  58.765 -50.839  1.00  0.00     0.050 A 
HETATM   16  C   UNL     1     -40.217  59.095 -51.899  1.00  0.00     0.008 A 
HETATM   17  C   UNL     1     -40.488  58.302 -53.051  1.00  0.00     0.017 A 
ENDBRANCH   4  13
ENDBRANCH   1   4
BRANCH   1  18
HETATM   18  C   UNL     1     -43.627  57.049 -55.721  1.00  0.00     0.336 C 
BRANCH  18  19
HETATM   19  C   UNL     1     -43.789  58.405 -56.392  1.00  0.00     0.248 C 
HETATM   20  N   UNL     1     -44.055  59.552 -55.719  1.00  0.00    -0.326 N 
HETATM   21  H   UNL     1     -44.203  60.325 -56.366  1.00  0.00     0.169 HD
HETATM   22  O   UNL     1     -43.703  58.439 -57.628  1.00  0.00    -0.271 OA
BRANCH  20  23
HETATM   23  C   UNL     1     -44.168  59.883 -54.355  1.00  0.00     0.037 A 
HETATM   24  C   UNL     1     -45.121  59.365 -53.472  1.00  0.00     0.061 A 
HETATM   25  C   UNL     1     -45.070  59.803 -52.164  1.00  0.00     0.065 A 
HETATM   26  C   UNL     1     -44.121  60.715 -51.711  1.00  0.00     0.063 A 
HETATM   27  N   UNL     1     -45.876  59.459 -51.085  1.00  0.00    -0.306 N 
HETATM   28  N   UNL     1     -44.345  60.936 -50.358  1.00  0.00    -0.307 N 
HETATM   29  C   UNL     1     -43.166  61.237 -52.541  1.00  0.00     0.034 A 
HETATM   30  C   UNL     1     -45.436  60.158 -49.950  1.00  0.00     0.325 A 
HETATM   31  H   UNL     1     -43.827  61.538 -49.737  1.00  0.00     0.170 HD
HETATM   32  O   UNL     1     -45.915  60.094 -48.834  1.00  0.00    -0.247 OA
HETATM   33  C   UNL     1     -43.196  60.807 -53.874  1.00  0.00     0.032 A 
HETATM   34  H   UNL     1     -46.655  58.820 -51.057  1.00  0.00     0.170 HD
ENDBRANCH  20  23
ENDBRANCH  18  19
ENDBRANCH   1  18
TORSDOF 7
ENDMDL
MODEL 8
REMARK VINA RESULT:      -7.6      3.106      4.308
REMARK  7 active torsions:
REMARK  status: ('A' for Active; 'I' for Inactive)
REMARK    1  A    between atoms: C_2  and  C_3 
REMARK    2  A    between atoms: C_6  and  C_7 
REMARK    3  A    between atoms: C_7  and  N_8 
REMARK    4  A    between atoms: C_7  and  C_25 
REMARK    5  A    between atoms: N_8  and  C_11 
REMARK    6  A    between atoms: C_11  and  C_12 
REMARK       I    between atoms: C_12  and  N_13 
REMARK    7  A    between atoms: N_13  and  C_14 
ROOT
HETATM    1  N   UNL     1     -43.795  55.919 -55.063  1.00  0.00    -0.054 N 
HETATM    2  H   UNL     1     -43.630  55.006 -55.520  1.00  0.00     0.278 HD
HETATM    3  H   UNL     1     -44.811  55.918 -54.923  1.00  0.00     0.278 HD
ENDROOT
BRANCH   1   4
HETATM    4  C   UNL     1     -43.085  55.922 -53.754  1.00  0.00     0.259 C 
BRANCH   4   5
HETATM    5  C   UNL     1     -42.106  54.772 -53.576  1.00  0.00    -0.023 A 
HETATM    6  C   UNL     1     -41.414  54.539 -52.374  1.00  0.00     0.010 A 
HETATM    7  C   UNL     1     -40.568  53.434 -52.241  1.00  0.00     0.007 A 
HETATM    8  C   UNL     1     -40.403  52.531 -53.296  1.00  0.00    -0.059 A 
HETATM    9  C   UNL     1     -41.095  52.751 -54.490  1.00  0.00     0.007 A 
HETATM   10  C   UNL     1     -41.936  53.857 -54.630  1.00  0.00     0.010 A 
BRANCH   8  11
HETATM   11  C   UNL     1     -39.539  51.305 -53.126  1.00  0.00     0.034 C 
HETATM   12  C   UNL     1     -39.814  50.271 -54.207  1.00  0.00     0.010 C 
ENDBRANCH   8  11
ENDBRANCH   4   5
BRANCH   4  13
HETATM   13  C   UNL     1     -42.449  57.277 -53.543  1.00  0.00     0.017 A 
HETATM   14  S   UNL     1     -43.381  58.524 -52.809  1.00  0.00    -0.104 SA
HETATM   15  C   UNL     1     -42.100  59.645 -52.921  1.00  0.00     0.050 A 
HETATM   16  C   UNL     1     -40.986  59.098 -53.514  1.00  0.00     0.008 A 
HETATM   17  C   UNL     1     -41.186  57.734 -53.876  1.00  0.00     0.017 A 
ENDBRANCH   4  13
ENDBRANCH   1   4
BRANCH   1  18
HETATM   18  C   UNL     1     -43.404  56.975 -56.070  1.00  0.00     0.336 C 
BRANCH  18  19
HETATM   19  C   UNL     1     -42.950  56.284 -57.348  1.00  0.00     0.248 C 
HETATM   20  N   UNL     1     -42.485  56.946 -58.436  1.00  0.00    -0.326 N 
HETATM   21  H   UNL     1     -42.313  56.300 -59.206  1.00  0.00     0.169 HD
HETATM   22  O   UNL     1     -43.049  55.050 -57.391  1.00  0.00    -0.271 OA
BRANCH  20  23
HETATM   23  C   UNL     1     -42.202  58.297 -58.714  1.00  0.00     0.037 A 
HETATM   24  C   UNL     1     -41.860  59.265 -57.764  1.00  0.00     0.061 A 
HETATM   25  C   UNL     1     -41.609  60.540 -58.228  1.00  0.00     0.065 A 
HETATM   26  C   UNL     1     -41.677  60.879 -59.576  1.00  0.00     0.063 A 
HETATM   27  N   UNL     1     -41.249  61.682 -57.521  1.00  0.00    -0.306 N 
HETATM   28  N   UNL     1     -41.365  62.227 -59.699  1.00  0.00    -0.307 N 
HETATM   29  C   UNL     1     -41.998  59.959 -60.537  1.00  0.00     0.034 A 
HETATM   30  C   UNL     1     -41.093  62.744 -58.426  1.00  0.00     0.325 A 
HETATM   31  H   UNL     1     -41.322  62.776 -60.544  1.00  0.00     0.170 HD
HETATM   32  O   UNL     1     -40.782  63.886 -58.149  1.00  0.00    -0.247 OA
HETATM   33  C   UNL     1     -42.257  58.657 -60.091  1.00  0.00     0.032 A 
HETATM   34  H   UNL     1     -41.103  61.792 -56.530  1.00  0.00     0.170 HD
ENDBRANCH  20  23
ENDBRANCH  18  19
ENDBRANCH   1  18
TORSDOF 7
ENDMDL
MODEL 9
REMARK VINA RESULT:      -7.6      3.626      7.899
REMARK  7 active torsions:
REMARK  status: ('A' for Active; 'I' for Inactive)
REMARK    1  A    between atoms: C_2  and  C_3 
REMARK    2  A    between atoms: C_6  and  C_7 
REMARK    3  A    between atoms: C_7  and  N_8 
REMARK    4  A    between atoms: C_7  and  C_25 
REMARK    5  A    between atoms: N_8  and  C_11 
REMARK    6  A    between atoms: C_11  and  C_12 
REMARK       I    between atoms: C_12  and  N_13 
REMARK    7  A    between atoms: N_13  and  C_14 
ROOT
HETATM    1  N   UNL     1     -41.665  56.032 -55.956  1.00  0.00    -0.054 N 
HETATM    2  H   UNL     1     -41.037  55.926 -56.771  1.00  0.00     0.278 HD
HETATM    3  H   UNL     1     -41.082  56.546 -55.289  1.00  0.00     0.278 HD
ENDROOT
BRANCH   1   4
HETATM    4  C   UNL     1     -42.836  56.855 -56.372  1.00  0.00     0.259 C 
BRANCH   4   5
HETATM    5  C   UNL     1     -43.070  58.082 -55.505  1.00  0.00    -0.023 A 
HETATM    6  C   UNL     1     -42.035  58.955 -55.125  1.00  0.00     0.010 A 
HETATM    7  C   UNL     1     -42.309  60.102 -54.374  1.00  0.00     0.007 A 
HETATM    8  C   UNL     1     -43.620  60.411 -53.997  1.00  0.00    -0.059 A 
HETATM    9  C   UNL     1     -44.655  59.554 -54.380  1.00  0.00     0.007 A 
HETATM   10  C   UNL     1     -44.384  58.403 -55.124  1.00  0.00     0.010 A 
BRANCH   8  11
HETATM   11  C   UNL     1     -43.920  61.684 -53.243  1.00  0.00     0.034 C 
HETATM   12  C   UNL     1     -45.371  61.739 -52.789  1.00  0.00     0.010 C 
ENDBRANCH   8  11
ENDBRANCH   4   5
BRANCH   4  13
HETATM   13  C   UNL     1     -42.707  57.186 -57.841  1.00  0.00     0.017 A 
HETATM   14  S   UNL     1     -43.344  56.081 -58.997  1.00  0.00    -0.104 SA
HETATM   15  C   UNL     1     -42.844  57.053 -60.307  1.00  0.00     0.050 A 
HETATM   16  C   UNL     1     -42.196  58.191 -59.887  1.00  0.00     0.008 A 
HETATM   17  C   UNL     1     -42.112  58.268 -58.466  1.00  0.00     0.017 A 
ENDBRANCH   4  13
ENDBRANCH   1   4
BRANCH   1  18
HETATM   18  C   UNL     1     -41.941  54.637 -55.448  1.00  0.00     0.336 C 
BRANCH  18  19
HETATM   19  C   UNL     1     -40.954  54.322 -54.333  1.00  0.00     0.248 C 
HETATM   20  N   UNL     1     -40.929  54.973 -53.144  1.00  0.00    -0.326 N 
HETATM   21  H   UNL     1     -40.143  54.661 -52.577  1.00  0.00     0.169 HD
HETATM   22  O   UNL     1     -40.112  53.440 -54.553  1.00  0.00    -0.271 OA
BRANCH  20  23
HETATM   23  C   UNL     1     -41.738  55.962 -52.552  1.00  0.00     0.037 A 
HETATM   24  C   UNL     1     -43.129  55.894 -52.414  1.00  0.00     0.061 A 
HETATM   25  C   UNL     1     -43.752  56.960 -51.796  1.00  0.00     0.065 A 
HETATM   26  C   UNL     1     -43.055  58.065 -51.316  1.00  0.00     0.063 A 
HETATM   27  N   UNL     1     -45.101  57.158 -51.524  1.00  0.00    -0.306 N 
HETATM   28  N   UNL     1     -43.973  58.944 -50.753  1.00  0.00    -0.307 N 
HETATM   29  C   UNL     1     -41.694  58.164 -51.423  1.00  0.00     0.034 A 
HETATM   30  C   UNL     1     -45.255  58.392 -50.873  1.00  0.00     0.325 A 
HETATM   31  H   UNL     1     -43.787  59.833 -50.315  1.00  0.00     0.170 HD
HETATM   32  O   UNL     1     -46.301  58.879 -50.490  1.00  0.00    -0.247 OA
HETATM   33  C   UNL     1     -41.039  57.094 -52.045  1.00  0.00     0.032 A 
HETATM   34  H   UNL     1     -45.881  56.554 -51.728  1.00  0.00     0.170 HD
ENDBRANCH  20  23
ENDBRANCH  18  19
ENDBRANCH   1  18
TORSDOF 7
ENDMDL
MODEL 10
REMARK VINA RESULT:      -7.5      2.342      4.305
REMARK  7 active torsions:
REMARK  status: ('A' for Active; 'I' for Inactive)
REMARK    1  A    between atoms: C_2  and  C_3 
REMARK    2  A    between atoms: C_6  and  C_7 
REMARK    3  A    between atoms: C_7  and  N_8 
REMARK    4  A    between atoms: C_7  and  C_25 
REMARK    5  A    between atoms: N_8  and  C_11 
REMARK    6  A    between atoms: C_11  and  C_12 
REMARK       I    between atoms: C_12  and  N_13 
REMARK    7  A    between atoms: N_13  and  C_14 
ROOT
HETATM    1  N   UNL     1     -42.479  56.101 -57.094  1.00  0.00    -0.054 N 
HETATM    2  H   UNL     1     -42.437  57.133 -57.152  1.00  0.00     0.278 HD
HETATM    3  H   UNL     1     -41.489  55.838 -57.072  1.00  0.00     0.278 HD
ENDROOT
BRANCH   1   4
HETATM    4  C   UNL     1     -43.147  55.731 -55.814  1.00  0.00     0.259 C 
BRANCH   4   5
HETATM    5  C   UNL     1     -42.315  54.826 -54.919  1.00  0.00    -0.023 A 
HETATM    6  C   UNL     1     -41.039  54.360 -55.283  1.00  0.00     0.010 A 
HETATM    7  C   UNL     1     -40.288  53.577 -54.402  1.00  0.00     0.007 A 
HETATM    8  C   UNL     1     -40.785  53.252 -53.135  1.00  0.00    -0.059 A 
HETATM    9  C   UNL     1     -42.048  53.721 -52.762  1.00  0.00     0.007 A 
HETATM   10  C   UNL     1     -42.804  54.498 -53.643  1.00  0.00     0.010 A 
BRANCH   8  11
HETATM   11  C   UNL     1     -39.944  52.462 -52.162  1.00  0.00     0.034 C 
HETATM   12  C   UNL     1     -39.556  51.105 -52.730  1.00  0.00     0.010 C 
ENDBRANCH   8  11
ENDBRANCH   4   5
BRANCH   4  13
HETATM   13  C   UNL     1     -43.606  56.992 -55.117  1.00  0.00     0.017 A 
HETATM   14  S   UNL     1     -42.433  58.182 -54.703  1.00  0.00    -0.104 SA
HETATM   15  C   UNL     1     -43.609  59.198 -53.998  1.00  0.00     0.050 A 
HETATM   16  C   UNL     1     -44.869  58.649 -54.060  1.00  0.00     0.008 A 
HETATM   17  C   UNL     1     -44.869  57.375 -54.700  1.00  0.00     0.017 A 
ENDBRANCH   4  13
ENDBRANCH   1   4
BRANCH   1  18
HETATM   18  C   UNL     1     -43.122  55.629 -58.376  1.00  0.00     0.336 C 
BRANCH  18  19
HETATM   19  C   UNL     1     -42.806  56.632 -59.476  1.00  0.00     0.248 C 
HETATM   20  N   UNL     1     -43.390  57.852 -59.573  1.00  0.00    -0.326 N 
HETATM   21  H   UNL     1     -43.096  58.327 -60.424  1.00  0.00     0.169 HD
HETATM   22  O   UNL     1     -41.992  56.284 -60.344  1.00  0.00    -0.271 OA
BRANCH  20  23
HETATM   23  C   UNL     1     -44.292  58.572 -58.766  1.00  0.00     0.037 A 
HETATM   24  C   UNL     1     -43.980  59.720 -58.030  1.00  0.00     0.061 A 
HETATM   25  C   UNL     1     -45.002  60.296 -57.302  1.00  0.00     0.065 A 
HETATM   26  C   UNL     1     -46.296  59.786 -57.284  1.00  0.00     0.063 A 
HETATM   27  N   UNL     1     -44.981  61.428 -56.494  1.00  0.00    -0.306 N 
HETATM   28  N   UNL     1     -47.070  60.598 -56.465  1.00  0.00    -0.307 N 
HETATM   29  C   UNL     1     -46.644  58.671 -57.999  1.00  0.00     0.034 A 
HETATM   30  C   UNL     1     -46.266  61.630 -55.964  1.00  0.00     0.325 A 
HETATM   31  H   UNL     1     -48.051  60.501 -56.249  1.00  0.00     0.170 HD
HETATM   32  O   UNL     1     -46.604  62.527 -55.218  1.00  0.00    -0.247 OA
HETATM   33  C   UNL     1     -45.624  58.069 -58.748  1.00  0.00     0.032 A 
HETATM   34  H   UNL     1     -44.210  62.043 -56.289  1.00  0.00     0.170 HD
ENDBRANCH  20  23
ENDBRANCH  18  19
ENDBRANCH   1  18
TORSDOF 7
ENDMDL
