MODEL 1
REMARK VINA RESULT:      -8.2      0.000      0.000
REMARK  3 active torsions:
REMARK  status: ('A' for Active; 'I' for Inactive)
REMARK    1  A    between atoms: C_10  and  C_11 
REMARK       I    between atoms: C_11  and  N_12 
REMARK    2  A    between atoms: C_14  and  O_15 
REMARK    3  A    between atoms: O_15  and  C_16 
ROOT
HETATM    1  C   UNL     1     -42.561  56.755 -52.339  1.00  0.00     0.255 C 
HETATM    2  N   UNL     1     -41.663  56.056 -51.553  1.00  0.00    -0.345 N 
HETATM    3  C   UNL     1     -40.939  54.920 -52.110  1.00  0.00     0.158 C 
HETATM    4  C   UNL     1     -40.618  54.029 -50.902  1.00  0.00     0.148 C 
HETATM    5  C   UNL     1     -40.431  55.074 -49.802  1.00  0.00     0.054 C 
HETATM    6  C   UNL     1     -41.529  56.082 -50.102  1.00  0.00     0.129 C 
HETATM    7  O   UNL     1     -42.709  56.535 -53.539  1.00  0.00    -0.267 OA
ENDROOT
BRANCH   1   8
HETATM    8  C   UNL     1     -43.438  57.760 -51.714  1.00  0.00     0.050 A 
HETATM    9  C   UNL     1     -44.728  57.367 -51.363  1.00  0.00     0.136 A 
HETATM   10  N   UNL     1     -45.659  58.150 -50.760  1.00  0.00    -0.240 NA
HETATM   11  C   UNL     1     -45.212  59.401 -50.542  1.00  0.00     0.155 A 
HETATM   12  N   UNL     1     -45.906  60.416 -49.954  1.00  0.00    -0.260 N 
HETATM   13  C   UNL     1     -43.970  59.928 -50.868  1.00  0.00     0.038 A 
HETATM   14  N   UNL     1     -45.209  61.567 -49.852  1.00  0.00    -0.177 NA
HETATM   15  H   UNL     1     -46.854  60.377 -49.600  1.00  0.00     0.191 HD
HETATM   16  C   UNL     1     -44.028  61.274 -50.417  1.00  0.00     0.065 A 
HETATM   17  C   UNL     1     -42.960  62.301 -50.491  1.00  0.00     0.073 C 
HETATM   18  C   UNL     1     -43.044  59.085 -51.502  1.00  0.00     0.036 A 
ENDBRANCH   1   8
BRANCH   4  19
HETATM   19  O   UNL     1     -39.432  53.283 -51.144  1.00  0.00    -0.344 OA
BRANCH  19  20
HETATM   20  C   UNL     1     -39.565  52.003 -51.608  1.00  0.00     0.070 A 
HETATM   21  C   UNL     1     -39.549  51.609 -52.946  1.00  0.00     0.060 A 
HETATM   22  C   UNL     1     -39.717  50.262 -53.274  1.00  0.00     0.036 A 
HETATM   23 CL   UNL     1     -39.704  49.784 -54.929  1.00  0.00    -0.084 Cl
HETATM   24  C   UNL     1     -39.900  49.301 -52.282  1.00  0.00     0.024 A 
HETATM   25  C   UNL     1     -39.922  49.693 -50.945  1.00  0.00     0.004 A 
HETATM   26  C   UNL     1     -39.762  51.040 -50.614  1.00  0.00     0.037 A 
ENDBRANCH  19  20
ENDBRANCH   4  19
TORSDOF 3
ENDMDL
MODEL 2
REMARK VINA RESULT:      -8.1      6.084      7.107
REMARK  3 active torsions:
REMARK  status: ('A' for Active; 'I' for Inactive)
REMARK    1  A    between atoms: C_10  and  C_11 
REMARK       I    between atoms: C_11  and  N_12 
REMARK    2  A    between atoms: C_14  and  O_15 
REMARK    3  A    between atoms: O_15  and  C_16 
ROOT
HETATM    1  C   UNL     1     -42.731  56.900 -57.564  1.00  0.00     0.255 C 
HETATM    2  N   UNL     1     -42.679  55.996 -56.519  1.00  0.00    -0.345 N 
HETATM    3  C   UNL     1     -41.572  56.043 -55.571  1.00  0.00     0.158 C 
HETATM    4  C   UNL     1     -41.453  54.609 -55.037  1.00  0.00     0.148 C 
HETATM    5  C   UNL     1     -42.913  54.157 -55.065  1.00  0.00     0.054 C 
HETATM    6  C   UNL     1     -43.427  54.756 -56.365  1.00  0.00     0.129 C 
HETATM    7  O   UNL     1     -41.937  57.830 -57.683  1.00  0.00    -0.267 OA
ENDROOT
BRANCH   1   8
HETATM    8  C   UNL     1     -43.731  56.714 -58.631  1.00  0.00     0.050 A 
HETATM    9  C   UNL     1     -43.527  55.674 -59.537  1.00  0.00     0.136 A 
HETATM   10  N   UNL     1     -44.353  55.343 -60.563  1.00  0.00    -0.240 NA
HETATM   11  C   UNL     1     -45.422  56.158 -60.643  1.00  0.00     0.155 A 
HETATM   12  N   UNL     1     -46.428  56.083 -61.558  1.00  0.00    -0.260 N 
HETATM   13  C   UNL     1     -45.727  57.242 -59.830  1.00  0.00     0.038 A 
HETATM   14  N   UNL     1     -47.383  57.023 -61.400  1.00  0.00    -0.177 NA
HETATM   15  H   UNL     1     -46.516  55.409 -62.308  1.00  0.00     0.191 HD
HETATM   16  C   UNL     1     -46.953  57.738 -60.349  1.00  0.00     0.065 A 
HETATM   17  C   UNL     1     -47.751  58.882 -59.846  1.00  0.00     0.073 C 
HETATM   18  C   UNL     1     -44.837  57.554 -58.790  1.00  0.00     0.036 A 
ENDBRANCH   1   8
BRANCH   4  19
HETATM   19  O   UNL     1     -40.917  54.620 -53.719  1.00  0.00    -0.344 OA
BRANCH  19  20
HETATM   20  C   UNL     1     -40.443  53.442 -53.213  1.00  0.00     0.070 A 
HETATM   21  C   UNL     1     -40.130  52.299 -53.949  1.00  0.00     0.060 A 
HETATM   22  C   UNL     1     -39.670  51.155 -53.293  1.00  0.00     0.036 A 
HETATM   23 CL   UNL     1     -39.294  49.745 -54.208  1.00  0.00    -0.084 Cl
HETATM   24  C   UNL     1     -39.518  51.138 -51.908  1.00  0.00     0.024 A 
HETATM   25  C   UNL     1     -39.835  52.276 -51.170  1.00  0.00     0.004 A 
HETATM   26  C   UNL     1     -40.301  53.419 -51.823  1.00  0.00     0.037 A 
ENDBRANCH  19  20
ENDBRANCH   4  19
TORSDOF 3
ENDMDL
MODEL 3
REMARK VINA RESULT:      -7.9      5.383      6.509
REMARK  3 active torsions:
REMARK  status: ('A' for Active; 'I' for Inactive)
REMARK    1  A    between atoms: C_10  and  C_11 
REMARK       I    between atoms: C_11  and  N_12 
REMARK    2  A    between atoms: C_14  and  O_15 
REMARK    3  A    between atoms: O_15  and  C_16 
ROOT
HETATM    1  C   UNL     1     -42.897  57.419 -56.442  1.00  0.00     0.255 C 
HETATM    2  N   UNL     1     -42.749  56.386 -55.534  1.00  0.00    -0.345 N 
HETATM    3  C   UNL     1     -41.534  56.289 -54.734  1.00  0.00     0.158 C 
HETATM    4  C   UNL     1     -41.399  54.797 -54.404  1.00  0.00     0.148 C 
HETATM    5  C   UNL     1     -42.866  54.379 -54.306  1.00  0.00     0.054 C 
HETATM    6  C   UNL     1     -43.515  55.150 -55.446  1.00  0.00     0.129 C 
HETATM    7  O   UNL     1     -42.092  58.341 -56.541  1.00  0.00    -0.267 OA
ENDROOT
BRANCH   1   8
HETATM    8  C   UNL     1     -44.026  57.390 -57.389  1.00  0.00     0.050 A 
HETATM    9  C   UNL     1     -45.102  58.241 -57.141  1.00  0.00     0.136 A 
HETATM   10  N   UNL     1     -46.210  58.364 -57.917  1.00  0.00    -0.240 NA
HETATM   11  C   UNL     1     -46.184  57.539 -58.981  1.00  0.00     0.155 A 
HETATM   12  N   UNL     1     -47.144  57.430 -59.942  1.00  0.00    -0.260 N 
HETATM   13  C   UNL     1     -45.196  56.627 -59.325  1.00  0.00     0.038 A 
HETATM   14  N   UNL     1     -46.855  56.529 -60.903  1.00  0.00    -0.177 NA
HETATM   15  H   UNL     1     -48.012  57.949 -59.993  1.00  0.00     0.191 HD
HETATM   16  C   UNL     1     -45.669  56.030 -60.525  1.00  0.00     0.065 A 
HETATM   17  C   UNL     1     -44.996  54.995 -61.347  1.00  0.00     0.073 C 
HETATM   18  C   UNL     1     -44.074  56.525 -58.487  1.00  0.00     0.036 A 
ENDBRANCH   1   8
BRANCH   4  19
HETATM   19  O   UNL     1     -40.707  54.627 -53.174  1.00  0.00    -0.344 OA
BRANCH  19  20
HETATM   20  C   UNL     1     -40.321  53.361 -52.827  1.00  0.00     0.070 A 
HETATM   21  C   UNL     1     -40.069  52.310 -53.708  1.00  0.00     0.060 A 
HETATM   22  C   UNL     1     -39.699  51.059 -53.208  1.00  0.00     0.036 A 
HETATM   23 CL   UNL     1     -39.396  49.763 -54.302  1.00  0.00    -0.084 Cl
HETATM   24  C   UNL     1     -39.577  50.845 -51.837  1.00  0.00     0.024 A 
HETATM   25  C   UNL     1     -39.834  51.892 -50.955  1.00  0.00     0.004 A 
HETATM   26  C   UNL     1     -40.211  53.141 -51.451  1.00  0.00     0.037 A 
ENDBRANCH  19  20
ENDBRANCH   4  19
TORSDOF 3
ENDMDL
MODEL 4
REMARK VINA RESULT:      -7.8      4.986      8.989
REMARK  3 active torsions:
REMARK  status: ('A' for Active; 'I' for Inactive)
REMARK    1  A    between atoms: C_10  and  C_11 
REMARK       I    between atoms: C_11  and  N_12 
REMARK    2  A    between atoms: C_14  and  O_15 
REMARK    3  A    between atoms: O_15  and  C_16 
ROOT
HETATM    1  C   UNL     1     -41.008  55.617 -53.520  1.00  0.00     0.255 C 
HETATM    2  N   UNL     1     -41.664  55.620 -54.738  1.00  0.00    -0.345 N 
HETATM    3  C   UNL     1     -42.195  56.867 -55.275  1.00  0.00     0.158 C 
HETATM    4  C   UNL     1     -43.362  56.440 -56.176  1.00  0.00     0.148 C 
HETATM    5  C   UNL     1     -42.859  55.094 -56.699  1.00  0.00     0.054 C 
HETATM    6  C   UNL     1     -42.196  54.481 -55.475  1.00  0.00     0.129 C 
HETATM    7  O   UNL     1     -40.748  56.645 -52.900  1.00  0.00    -0.267 OA
ENDROOT
BRANCH   1   8
HETATM    8  C   UNL     1     -40.662  54.331 -52.890  1.00  0.00     0.050 A 
HETATM    9  C   UNL     1     -40.635  54.278 -51.497  1.00  0.00     0.136 A 
HETATM   10  N   UNL     1     -40.361  53.177 -50.751  1.00  0.00    -0.240 NA
HETATM   11  C   UNL     1     -40.085  52.100 -51.510  1.00  0.00     0.155 A 
HETATM   12  N   UNL     1     -39.776  50.851 -51.059  1.00  0.00    -0.260 N 
HETATM   13  C   UNL     1     -40.047  52.024 -52.895  1.00  0.00     0.038 A 
HETATM   14  N   UNL     1     -39.555  49.955 -52.042  1.00  0.00    -0.177 NA
HETATM   15  H   UNL     1     -39.707  50.556 -50.093  1.00  0.00     0.191 HD
HETATM   16  C   UNL     1     -39.712  50.670 -53.166  1.00  0.00     0.065 A 
HETATM   17  C   UNL     1     -39.558  50.023 -54.492  1.00  0.00     0.073 C 
HETATM   18  C   UNL     1     -40.325  53.191 -53.626  1.00  0.00     0.036 A 
ENDBRANCH   1   8
BRANCH   4  19
HETATM   19  O   UNL     1     -43.549  57.388 -57.219  1.00  0.00    -0.344 OA
BRANCH  19  20
HETATM   20  C   UNL     1     -44.485  57.109 -58.176  1.00  0.00     0.070 A 
HETATM   21  C   UNL     1     -44.309  56.270 -59.276  1.00  0.00     0.060 A 
HETATM   22  C   UNL     1     -45.353  56.093 -60.188  1.00  0.00     0.036 A 
HETATM   23 CL   UNL     1     -45.125  55.061 -61.548  1.00  0.00    -0.084 Cl
HETATM   24  C   UNL     1     -46.572  56.743 -60.013  1.00  0.00     0.024 A 
HETATM   25  C   UNL     1     -46.749  57.586 -58.918  1.00  0.00     0.004 A 
HETATM   26  C   UNL     1     -45.705  57.771 -58.010  1.00  0.00     0.037 A 
ENDBRANCH  19  20
ENDBRANCH   4  19
TORSDOF 3
ENDMDL
MODEL 5
REMARK VINA RESULT:      -7.8      3.849      9.269
REMARK  3 active torsions:
REMARK  status: ('A' for Active; 'I' for Inactive)
REMARK    1  A    between atoms: C_10  and  C_11 
REMARK       I    between atoms: C_11  and  N_12 
REMARK    2  A    between atoms: C_14  and  O_15 
REMARK    3  A    between atoms: O_15  and  C_16 
ROOT
HETATM    1  C   UNL     1     -41.150  55.330 -53.117  1.00  0.00     0.255 C 
HETATM    2  N   UNL     1     -42.236  55.915 -52.491  1.00  0.00    -0.345 N 
HETATM    3  C   UNL     1     -42.589  57.298 -52.791  1.00  0.00     0.158 C 
HETATM    4  C   UNL     1     -43.306  57.801 -51.530  1.00  0.00     0.148 C 
HETATM    5  C   UNL     1     -43.997  56.524 -51.050  1.00  0.00     0.054 C 
HETATM    6  C   UNL     1     -42.947  55.454 -51.307  1.00  0.00     0.129 C 
HETATM    7  O   UNL     1     -40.514  55.885 -54.009  1.00  0.00    -0.267 OA
ENDROOT
BRANCH   1   8
HETATM    8  C   UNL     1     -40.676  54.012 -52.656  1.00  0.00     0.050 A 
HETATM    9  C   UNL     1     -40.375  53.868 -51.303  1.00  0.00     0.136 A 
HETATM   10  N   UNL     1     -39.950  52.727 -50.702  1.00  0.00    -0.240 NA
HETATM   11  C   UNL     1     -39.819  51.708 -51.574  1.00  0.00     0.155 A 
HETATM   12  N   UNL     1     -39.416  50.440 -51.279  1.00  0.00    -0.260 N 
HETATM   13  C   UNL     1     -40.053  51.725 -52.942  1.00  0.00     0.038 A 
HETATM   14  N   UNL     1     -39.384  49.616 -52.346  1.00  0.00    -0.177 NA
HETATM   15  H   UNL     1     -39.157  50.083 -50.368  1.00  0.00     0.191 HD
HETATM   16  C   UNL     1     -39.766  50.400 -53.365  1.00  0.00     0.065 A 
HETATM   17  C   UNL     1     -39.868  49.846 -54.737  1.00  0.00     0.073 C 
HETATM   18  C   UNL     1     -40.479  52.931 -53.521  1.00  0.00     0.036 A 
ENDBRANCH   1   8
BRANCH   4  19
HETATM   19  O   UNL     1     -44.235  58.822 -51.869  1.00  0.00    -0.344 OA
BRANCH  19  20
HETATM   20  C   UNL     1     -44.315  59.912 -51.047  1.00  0.00     0.070 A 
HETATM   21  C   UNL     1     -43.459  61.014 -51.059  1.00  0.00     0.060 A 
HETATM   22  C   UNL     1     -43.650  62.051 -50.144  1.00  0.00     0.036 A 
HETATM   23 CL   UNL     1     -42.585  63.404 -50.160  1.00  0.00    -0.084 Cl
HETATM   24  C   UNL     1     -44.688  62.003 -49.216  1.00  0.00     0.024 A 
HETATM   25  C   UNL     1     -45.541  60.901 -49.197  1.00  0.00     0.004 A 
HETATM   26  C   UNL     1     -45.348  59.860 -50.107  1.00  0.00     0.037 A 
ENDBRANCH  19  20
ENDBRANCH   4  19
TORSDOF 3
ENDMDL
MODEL 6
REMARK VINA RESULT:      -7.7      4.685      8.791
REMARK  3 active torsions:
REMARK  status: ('A' for Active; 'I' for Inactive)
REMARK    1  A    between atoms: C_10  and  C_11 
REMARK       I    between atoms: C_11  and  N_12 
REMARK    2  A    between atoms: C_14  and  O_15 
REMARK    3  A    between atoms: O_15  and  C_16 
ROOT
HETATM    1  C   UNL     1     -41.192  55.208 -52.707  1.00  0.00     0.255 C 
HETATM    2  N   UNL     1     -41.669  55.412 -53.989  1.00  0.00    -0.345 N 
HETATM    3  C   UNL     1     -42.311  56.675 -54.333  1.00  0.00     0.158 C 
HETATM    4  C   UNL     1     -43.264  56.329 -55.485  1.00  0.00     0.148 C 
HETATM    5  C   UNL     1     -42.492  55.212 -56.187  1.00  0.00     0.054 C 
HETATM    6  C   UNL     1     -41.914  54.419 -55.025  1.00  0.00     0.129 C 
HETATM    7  O   UNL     1     -41.181  56.089 -51.850  1.00  0.00    -0.267 OA
ENDROOT
BRANCH   1   8
HETATM    8  C   UNL     1     -40.739  53.863 -52.311  1.00  0.00     0.050 A 
HETATM    9  C   UNL     1     -40.584  53.606 -50.949  1.00  0.00     0.136 A 
HETATM   10  N   UNL     1     -40.199  52.422 -50.405  1.00  0.00    -0.240 NA
HETATM   11  C   UNL     1     -39.949  51.486 -51.341  1.00  0.00     0.155 A 
HETATM   12  N   UNL     1     -39.550  50.203 -51.113  1.00  0.00    -0.260 N 
HETATM   13  C   UNL     1     -40.033  51.619 -52.719  1.00  0.00     0.038 A 
HETATM   14  N   UNL     1     -39.383  49.475 -52.236  1.00  0.00    -0.177 NA
HETATM   15  H   UNL     1     -39.383  49.771 -50.212  1.00  0.00     0.191 HD
HETATM   16  C   UNL     1     -39.669  50.340 -53.220  1.00  0.00     0.065 A 
HETATM   17  C   UNL     1     -39.608  49.907 -54.638  1.00  0.00     0.073 C 
HETATM   18  C   UNL     1     -40.423  52.865 -53.237  1.00  0.00     0.036 A 
ENDBRANCH   1   8
BRANCH   4  19
HETATM   19  O   UNL     1     -43.453  57.463 -56.323  1.00  0.00    -0.344 OA
BRANCH  19  20
HETATM   20  C   UNL     1     -43.272  57.301 -57.668  1.00  0.00     0.070 A 
HETATM   21  C   UNL     1     -44.041  56.496 -58.509  1.00  0.00     0.060 A 
HETATM   22  C   UNL     1     -43.726  56.412 -59.868  1.00  0.00     0.036 A 
HETATM   23 CL   UNL     1     -44.676  55.411 -60.898  1.00  0.00    -0.084 Cl
HETATM   24  C   UNL     1     -42.651  57.122 -60.398  1.00  0.00     0.024 A 
HETATM   25  C   UNL     1     -41.878  57.921 -59.559  1.00  0.00     0.004 A 
HETATM   26  C   UNL     1     -42.186  58.002 -58.199  1.00  0.00     0.037 A 
ENDBRANCH  19  20
ENDBRANCH   4  19
TORSDOF 3
ENDMDL
MODEL 7
REMARK VINA RESULT:      -7.7      1.748      2.226
REMARK  3 active torsions:
REMARK  status: ('A' for Active; 'I' for Inactive)
REMARK    1  A    between atoms: C_10  and  C_11 
REMARK       I    between atoms: C_11  and  N_12 
REMARK    2  A    between atoms: C_14  and  O_15 
REMARK    3  A    between atoms: O_15  and  C_16 
ROOT
HETATM    1  C   UNL     1     -43.957  58.002 -52.746  1.00  0.00     0.255 C 
HETATM    2  N   UNL     1     -42.795  57.274 -52.560  1.00  0.00    -0.345 N 
HETATM    3  C   UNL     1     -42.438  56.221 -53.503  1.00  0.00     0.158 C 
HETATM    4  C   UNL     1     -41.578  55.243 -52.691  1.00  0.00     0.148 C 
HETATM    5  C   UNL     1     -40.876  56.195 -51.723  1.00  0.00     0.054 C 
HETATM    6  C   UNL     1     -41.976  57.180 -51.359  1.00  0.00     0.129 C 
HETATM    7  O   UNL     1     -44.668  57.881 -53.741  1.00  0.00    -0.267 OA
ENDROOT
BRANCH   1   8
HETATM    8  C   UNL     1     -44.416  58.913 -51.683  1.00  0.00     0.050 A 
HETATM    9  C   UNL     1     -45.492  58.503 -50.897  1.00  0.00     0.136 A 
HETATM   10  N   UNL     1     -46.030  59.200 -49.864  1.00  0.00    -0.240 NA
HETATM   11  C   UNL     1     -45.417  60.384 -49.671  1.00  0.00     0.155 A 
HETATM   12  N   UNL     1     -45.723  61.306 -48.715  1.00  0.00    -0.260 N 
HETATM   13  C   UNL     1     -44.363  60.923 -50.396  1.00  0.00     0.038 A 
HETATM   14  N   UNL     1     -44.939  62.403 -48.743  1.00  0.00    -0.177 NA
HETATM   15  H   UNL     1     -46.452  61.235 -48.017  1.00  0.00     0.191 HD
HETATM   16  C   UNL     1     -44.112  62.176 -49.775  1.00  0.00     0.065 A 
HETATM   17  C   UNL     1     -43.070  63.170 -50.130  1.00  0.00     0.073 C 
HETATM   18  C   UNL     1     -43.848  60.172 -51.464  1.00  0.00     0.036 A 
ENDBRANCH   1   8
BRANCH   4  19
HETATM   19  O   UNL     1     -40.662  54.569 -53.544  1.00  0.00    -0.344 OA
BRANCH  19  20
HETATM   20  C   UNL     1     -40.406  53.249 -53.293  1.00  0.00     0.070 A 
HETATM   21  C   UNL     1     -40.312  52.657 -52.033  1.00  0.00     0.060 A 
HETATM   22  C   UNL     1     -40.025  51.294 -51.927  1.00  0.00     0.036 A 
HETATM   23 CL   UNL     1     -39.903  50.572 -50.368  1.00  0.00    -0.084 Cl
HETATM   24  C   UNL     1     -39.833  50.514 -53.064  1.00  0.00     0.024 A 
HETATM   25  C   UNL     1     -39.920  51.103 -54.323  1.00  0.00     0.004 A 
HETATM   26  C   UNL     1     -40.200  52.467 -54.433  1.00  0.00     0.037 A 
ENDBRANCH  19  20
ENDBRANCH   4  19
TORSDOF 3
ENDMDL
MODEL 8
REMARK VINA RESULT:      -7.6      5.205      6.090
REMARK  3 active torsions:
REMARK  status: ('A' for Active; 'I' for Inactive)
REMARK    1  A    between atoms: C_10  and  C_11 
REMARK       I    between atoms: C_11  and  N_12 
REMARK    2  A    between atoms: C_14  and  O_15 
REMARK    3  A    between atoms: O_15  and  C_16 
ROOT
HETATM    1  C   UNL     1     -42.493  57.734 -56.028  1.00  0.00     0.255 C 
HETATM    2  N   UNL     1     -42.411  56.529 -55.355  1.00  0.00    -0.345 N 
HETATM    3  C   UNL     1     -41.471  56.375 -54.251  1.00  0.00     0.158 C 
HETATM    4  C   UNL     1     -41.153  54.874 -54.213  1.00  0.00     0.148 C 
HETATM    5  C   UNL     1     -42.482  54.275 -54.673  1.00  0.00     0.054 C 
HETATM    6  C   UNL     1     -42.921  55.230 -55.772  1.00  0.00     0.129 C 
HETATM    7  O   UNL     1     -41.882  58.739 -55.674  1.00  0.00    -0.267 OA
ENDROOT
BRANCH   1   8
HETATM    8  C   UNL     1     -43.286  57.816 -57.268  1.00  0.00     0.050 A 
HETATM    9  C   UNL     1     -42.668  57.437 -58.458  1.00  0.00     0.136 A 
HETATM   10  N   UNL     1     -43.251  57.426 -59.685  1.00  0.00    -0.240 NA
HETATM   11  C   UNL     1     -44.528  57.854 -59.649  1.00  0.00     0.155 A 
HETATM   12  N   UNL     1     -45.376  57.955 -60.711  1.00  0.00    -0.260 N 
HETATM   13  C   UNL     1     -45.248  58.286 -58.544  1.00  0.00     0.038 A 
HETATM   14  N   UNL     1     -46.606  58.404 -60.387  1.00  0.00    -0.177 NA
HETATM   15  H   UNL     1     -45.169  57.726 -61.675  1.00  0.00     0.191 HD
HETATM   16  C   UNL     1     -46.528  58.615 -59.064  1.00  0.00     0.065 A 
HETATM   17  C   UNL     1     -47.709  59.113 -58.316  1.00  0.00     0.073 C 
HETATM   18  C   UNL     1     -44.600  58.293 -57.298  1.00  0.00     0.036 A 
ENDBRANCH   1   8
BRANCH   4  19
HETATM   19  O   UNL     1     -40.811  54.478 -52.890  1.00  0.00    -0.344 OA
BRANCH  19  20
HETATM   20  C   UNL     1     -40.405  53.188 -52.694  1.00  0.00     0.070 A 
HETATM   21  C   UNL     1     -40.165  52.242 -53.692  1.00  0.00     0.060 A 
HETATM   22  C   UNL     1     -39.771  50.949 -53.342  1.00  0.00     0.036 A 
HETATM   23 CL   UNL     1     -39.484  49.785 -54.579  1.00  0.00    -0.084 Cl
HETATM   24  C   UNL     1     -39.610  50.587 -52.006  1.00  0.00     0.024 A 
HETATM   25  C   UNL     1     -39.854  51.528 -51.008  1.00  0.00     0.004 A 
HETATM   26  C   UNL     1     -40.256  52.819 -51.354  1.00  0.00     0.037 A 
ENDBRANCH  19  20
ENDBRANCH   4  19
TORSDOF 3
ENDMDL
MODEL 9
REMARK VINA RESULT:      -7.4     16.252     18.811
REMARK  3 active torsions:
REMARK  status: ('A' for Active; 'I' for Inactive)
REMARK    1  A    between atoms: C_10  and  C_11 
REMARK       I    between atoms: C_11  and  N_12 
REMARK    2  A    between atoms: C_14  and  O_15 
REMARK    3  A    between atoms: O_15  and  C_16 
ROOT
HETATM    1  C   UNL     1     -34.452  39.040 -52.829  1.00  0.00     0.255 C 
HETATM    2  N   UNL     1     -35.470  39.951 -53.048  1.00  0.00    -0.345 N 
HETATM    3  C   UNL     1     -36.222  39.915 -54.296  1.00  0.00     0.158 C 
HETATM    4  C   UNL     1     -36.722  41.352 -54.494  1.00  0.00     0.148 C 
HETATM    5  C   UNL     1     -36.933  41.797 -53.047  1.00  0.00     0.054 C 
HETATM    6  C   UNL     1     -35.739  41.189 -52.328  1.00  0.00     0.129 C 
HETATM    7  O   UNL     1     -34.209  38.114 -53.598  1.00  0.00    -0.267 OA
ENDROOT
BRANCH   1   8
HETATM    8  C   UNL     1     -33.565  39.215 -51.665  1.00  0.00     0.050 A 
HETATM    9  C   UNL     1     -32.407  39.970 -51.841  1.00  0.00     0.136 A 
HETATM   10  N   UNL     1     -31.491  40.253 -50.878  1.00  0.00    -0.240 NA
HETATM   11  C   UNL     1     -31.806  39.696 -49.693  1.00  0.00     0.155 A 
HETATM   12  N   UNL     1     -31.091  39.798 -48.538  1.00  0.00    -0.260 N 
HETATM   13  C   UNL     1     -32.904  38.902 -49.393  1.00  0.00     0.038 A 
HETATM   14  N   UNL     1     -31.644  39.147 -47.494  1.00  0.00    -0.177 NA
HETATM   15  H   UNL     1     -30.224  40.303 -48.405  1.00  0.00     0.191 HD
HETATM   16  C   UNL     1     -32.749  38.592 -48.015  1.00  0.00     0.065 A 
HETATM   17  C   UNL     1     -33.653  37.784 -47.161  1.00  0.00     0.073 C 
HETATM   18  C   UNL     1     -33.818  38.626 -50.423  1.00  0.00     0.036 A 
ENDBRANCH   1   8
BRANCH   4  19
HETATM   19  O   UNL     1     -37.933  41.352 -55.241  1.00  0.00    -0.344 OA
BRANCH  19  20
HETATM   20  C   UNL     1     -37.847  41.203 -56.597  1.00  0.00     0.070 A 
HETATM   21  C   UNL     1     -38.397  40.161 -57.344  1.00  0.00     0.060 A 
HETATM   22  C   UNL     1     -38.213  40.127 -58.729  1.00  0.00     0.036 A 
HETATM   23 CL   UNL     1     -38.889  38.834 -59.643  1.00  0.00    -0.084 Cl
HETATM   24  C   UNL     1     -37.486  41.123 -59.377  1.00  0.00     0.024 A 
HETATM   25  C   UNL     1     -36.931  42.161 -58.633  1.00  0.00     0.004 A 
HETATM   26  C   UNL     1     -37.107  42.194 -57.248  1.00  0.00     0.037 A 
ENDBRANCH  19  20
ENDBRANCH   4  19
TORSDOF 3
ENDMDL
MODEL 10
REMARK VINA RESULT:      -7.3      2.044      3.108
REMARK  3 active torsions:
REMARK  status: ('A' for Active; 'I' for Inactive)
REMARK    1  A    between atoms: C_10  and  C_11 
REMARK       I    between atoms: C_11  and  N_12 
REMARK    2  A    between atoms: C_14  and  O_15 
REMARK    3  A    between atoms: O_15  and  C_16 
ROOT
HETATM    1  C   UNL     1     -44.444  57.564 -51.570  1.00  0.00     0.255 C 
HETATM    2  N   UNL     1     -43.721  57.036 -52.624  1.00  0.00    -0.345 N 
HETATM    3  C   UNL     1     -43.382  55.617 -52.636  1.00  0.00     0.158 C 
HETATM    4  C   UNL     1     -42.103  55.527 -53.478  1.00  0.00     0.148 C 
HETATM    5  C   UNL     1     -42.327  56.655 -54.485  1.00  0.00     0.054 C 
HETATM    6  C   UNL     1     -42.950  57.750 -53.633  1.00  0.00     0.129 C 
HETATM    7  O   UNL     1     -44.919  56.871 -50.674  1.00  0.00    -0.267 OA
ENDROOT
BRANCH   1   8
HETATM    8  C   UNL     1     -44.599  59.025 -51.461  1.00  0.00     0.050 A 
HETATM    9  C   UNL     1     -43.553  59.747 -50.889  1.00  0.00     0.136 A 
HETATM   10  N   UNL     1     -43.515  61.096 -50.731  1.00  0.00    -0.240 NA
HETATM   11  C   UNL     1     -44.635  61.696 -51.176  1.00  0.00     0.155 A 
HETATM   12  N   UNL     1     -44.897  63.033 -51.158  1.00  0.00    -0.260 N 
HETATM   13  C   UNL     1     -45.755  61.096 -51.734  1.00  0.00     0.038 A 
HETATM   14  N   UNL     1     -46.096  63.362 -51.679  1.00  0.00    -0.177 NA
HETATM   15  H   UNL     1     -44.291  63.764 -50.808  1.00  0.00     0.191 HD
HETATM   16  C   UNL     1     -46.627  62.179 -52.025  1.00  0.00     0.065 A 
HETATM   17  C   UNL     1     -47.968  62.117 -52.656  1.00  0.00     0.073 C 
HETATM   18  C   UNL     1     -45.756  59.698 -51.866  1.00  0.00     0.036 A 
ENDBRANCH   1   8
BRANCH   4  19
HETATM   19  O   UNL     1     -42.017  54.254 -54.106  1.00  0.00    -0.344 OA
BRANCH  19  20
HETATM   20  C   UNL     1     -41.172  53.328 -53.560  1.00  0.00     0.070 A 
HETATM   21  C   UNL     1     -40.699  52.176 -54.190  1.00  0.00     0.060 A 
HETATM   22  C   UNL     1     -39.851  51.306 -53.501  1.00  0.00     0.036 A 
HETATM   23 CL   UNL     1     -39.278  49.882 -54.282  1.00  0.00    -0.084 Cl
HETATM   24  C   UNL     1     -39.467  51.574 -52.189  1.00  0.00     0.024 A 
HETATM   25  C   UNL     1     -39.941  52.720 -51.555  1.00  0.00     0.004 A 
HETATM   26  C   UNL     1     -40.795  53.587 -52.240  1.00  0.00     0.037 A 
ENDBRANCH  19  20
ENDBRANCH   4  19
TORSDOF 3
ENDMDL
