MODEL 1
REMARK VINA RESULT:      -9.0      0.000      0.000
REMARK  4 active torsions:
REMARK  status: ('A' for Active; 'I' for Inactive)
REMARK    1  A    between atoms: C_6  and  C_7 
REMARK    2  A    between atoms: C_7  and  N_8 
REMARK    3  A    between atoms: C_11  and  C_12 
REMARK    4  A    between atoms: C_12  and  C_13 
ROOT
HETATM    1  N   UNL     1     -42.321  55.823 -54.915  1.00  0.00    -0.064 N 
HETATM    2  H   UNL     1     -41.951  55.040 -55.488  1.00  0.00     0.280 HD
HETATM    3  C   UNL     1     -41.259  56.061 -53.861  1.00  0.00     0.247 C 
HETATM    4  C   UNL     1     -40.973  54.758 -53.101  1.00  0.00     0.086 C 
HETATM    5  C   UNL     1     -42.264  54.159 -52.533  1.00  0.00     0.016 C 
HETATM    6  C   UNL     1     -43.384  54.052 -53.571  1.00  0.00     0.029 C 
HETATM    7  C   UNL     1     -43.620  55.364 -54.312  1.00  0.00     0.235 C 
ENDROOT
BRANCH   1   8
HETATM    8  C   UNL     1     -42.478  56.978 -55.881  1.00  0.00     0.313 C 
BRANCH   8   9
HETATM    9  C   UNL     1     -43.241  56.677 -57.130  1.00  0.00     0.131 A 
HETATM   10  N   UNL     1     -42.942  55.765 -58.035  1.00  0.00    -0.232 NA
HETATM   11  C   UNL     1     -43.944  55.823 -58.974  1.00  0.00     0.085 A 
HETATM   12  C   UNL     1     -44.872  56.801 -58.639  1.00  0.00     0.062 A 
HETATM   13  C   UNL     1     -44.131  55.064 -60.136  1.00  0.00     0.034 A 
HETATM   14  C   UNL     1     -46.002  57.078 -59.411  1.00  0.00     0.032 A 
HETATM   15  N   UNL     1     -44.398  57.339 -57.469  1.00  0.00    -0.341 N 
HETATM   16  C   UNL     1     -46.175  56.308 -60.567  1.00  0.00     0.002 A 
HETATM   17  C   UNL     1     -45.258  55.319 -60.927  1.00  0.00     0.002 A 
HETATM   18  H   UNL     1     -44.849  58.084 -56.954  1.00  0.00     0.167 HD
ENDBRANCH   8   9
ENDBRANCH   1   8
BRANCH   4  19
HETATM   19  C   UNL     1     -40.287  53.778 -54.049  1.00  0.00     0.165 C 
HETATM   20  O   UNL     1     -39.894  54.182 -55.148  1.00  0.00    -0.292 OA
BRANCH  19  21
HETATM   21  C   UNL     1     -40.107  52.345 -53.666  1.00  0.00     0.012 A 
HETATM   22  C   UNL     1     -39.875  51.940 -52.347  1.00  0.00     0.039 A 
HETATM   23  C   UNL     1     -39.703  50.584 -52.058  1.00  0.00     0.035 A 
HETATM   24 CL   UNL     1     -39.413  50.097 -50.434  1.00  0.00    -0.084 Cl
HETATM   25  C   UNL     1     -39.763  49.626 -53.067  1.00  0.00     0.024 A 
HETATM   26  C   UNL     1     -40.001  50.024 -54.381  1.00  0.00     0.003 A 
HETATM   27  C   UNL     1     -40.173  51.378 -54.679  1.00  0.00     0.015 A 
ENDBRANCH  19  21
ENDBRANCH   4  19
TORSDOF 4
ENDMDL
MODEL 2
REMARK VINA RESULT:      -8.9      1.595      2.032
REMARK  4 active torsions:
REMARK  status: ('A' for Active; 'I' for Inactive)
REMARK    1  A    between atoms: C_6  and  C_7 
REMARK    2  A    between atoms: C_7  and  N_8 
REMARK    3  A    between atoms: C_11  and  C_12 
REMARK    4  A    between atoms: C_12  and  C_13 
ROOT
HETATM    1  N   UNL     1     -42.636  56.038 -53.314  1.00  0.00    -0.064 N 
HETATM    2  H   UNL     1     -42.703  55.282 -54.022  1.00  0.00     0.280 HD
HETATM    3  C   UNL     1     -41.191  56.010 -52.862  1.00  0.00     0.247 C 
HETATM    4  C   UNL     1     -40.822  54.603 -52.370  1.00  0.00     0.086 C 
HETATM    5  C   UNL     1     -41.801  54.124 -51.293  1.00  0.00     0.016 C 
HETATM    6  C   UNL     1     -43.268  54.287 -51.700  1.00  0.00     0.029 C 
HETATM    7  C   UNL     1     -43.582  55.693 -52.198  1.00  0.00     0.235 C 
ENDROOT
BRANCH   1   8
HETATM    8  C   UNL     1     -43.009  57.305 -54.054  1.00  0.00     0.313 C 
BRANCH   8   9
HETATM    9  C   UNL     1     -42.885  57.245 -55.542  1.00  0.00     0.131 A 
HETATM   10  N   UNL     1     -42.370  58.173 -56.326  1.00  0.00    -0.232 NA
HETATM   11  C   UNL     1     -42.430  57.664 -57.602  1.00  0.00     0.085 A 
HETATM   12  C   UNL     1     -43.004  56.399 -57.597  1.00  0.00     0.062 A 
HETATM   13  C   UNL     1     -42.005  58.223 -58.813  1.00  0.00     0.034 A 
HETATM   14  C   UNL     1     -43.187  55.638 -58.753  1.00  0.00     0.032 A 
HETATM   15  N   UNL     1     -43.296  56.158 -56.278  1.00  0.00    -0.341 N 
HETATM   16  C   UNL     1     -42.754  56.210 -59.955  1.00  0.00     0.002 A 
HETATM   17  C   UNL     1     -42.173  57.480 -59.988  1.00  0.00     0.002 A 
HETATM   18  H   UNL     1     -43.726  55.312 -55.928  1.00  0.00     0.167 HD
ENDBRANCH   8   9
ENDBRANCH   1   8
BRANCH   4  19
HETATM   19  C   UNL     1     -40.814  53.653 -53.564  1.00  0.00     0.165 C 
HETATM   20  O   UNL     1     -41.183  54.071 -54.666  1.00  0.00    -0.292 OA
BRANCH  19  21
HETATM   21  C   UNL     1     -40.385  52.230 -53.404  1.00  0.00     0.012 A 
HETATM   22  C   UNL     1     -40.002  51.692 -52.172  1.00  0.00     0.039 A 
HETATM   23  C   UNL     1     -39.599  50.356 -52.093  1.00  0.00     0.035 A 
HETATM   24 CL   UNL     1     -39.124  49.705 -50.573  1.00  0.00    -0.084 Cl
HETATM   25  C   UNL     1     -39.578  49.550 -53.228  1.00  0.00     0.024 A 
HETATM   26  C   UNL     1     -39.966  50.080 -54.457  1.00  0.00     0.003 A 
HETATM   27  C   UNL     1     -40.369  51.414 -54.545  1.00  0.00     0.015 A 
ENDBRANCH  19  21
ENDBRANCH   4  19
TORSDOF 4
ENDMDL
MODEL 3
REMARK VINA RESULT:      -8.7      1.970      2.658
REMARK  4 active torsions:
REMARK  status: ('A' for Active; 'I' for Inactive)
REMARK    1  A    between atoms: C_6  and  C_7 
REMARK    2  A    between atoms: C_7  and  N_8 
REMARK    3  A    between atoms: C_11  and  C_12 
REMARK    4  A    between atoms: C_12  and  C_13 
ROOT
HETATM    1  N   UNL     1     -43.111  57.055 -53.245  1.00  0.00    -0.064 N 
HETATM    2  H   UNL     1     -43.355  56.150 -53.690  1.00  0.00     0.280 HD
HETATM    3  C   UNL     1     -41.614  56.985 -53.029  1.00  0.00     0.247 C 
HETATM    4  C   UNL     1     -41.259  55.730 -52.219  1.00  0.00     0.086 C 
HETATM    5  C   UNL     1     -42.062  55.674 -50.914  1.00  0.00     0.016 C 
HETATM    6  C   UNL     1     -43.563  55.888 -51.123  1.00  0.00     0.029 C 
HETATM    7  C   UNL     1     -43.865  57.134 -51.947  1.00  0.00     0.235 C 
ENDROOT
BRANCH   1   8
HETATM    8  C   UNL     1     -43.524  58.111 -54.250  1.00  0.00     0.313 C 
BRANCH   8   9
HETATM    9  C   UNL     1     -43.283  57.768 -55.684  1.00  0.00     0.131 A 
HETATM   10  N   UNL     1     -42.643  58.505 -56.572  1.00  0.00    -0.232 NA
HETATM   11  C   UNL     1     -42.634  57.771 -57.734  1.00  0.00     0.085 A 
HETATM   12  C   UNL     1     -43.291  56.561 -57.553  1.00  0.00     0.062 A 
HETATM   13  C   UNL     1     -42.073  58.071 -58.982  1.00  0.00     0.034 A 
HETATM   14  C   UNL     1     -43.431  55.608 -58.564  1.00  0.00     0.032 A 
HETATM   15  N   UNL     1     -43.706  56.586 -56.245  1.00  0.00    -0.341 N 
HETATM   16  C   UNL     1     -42.863  55.923 -59.804  1.00  0.00     0.002 A 
HETATM   17  C   UNL     1     -42.196  57.132 -60.013  1.00  0.00     0.002 A 
HETATM   18  H   UNL     1     -44.220  55.844 -55.790  1.00  0.00     0.167 HD
ENDBRANCH   8   9
ENDBRANCH   1   8
BRANCH   4  19
HETATM   19  C   UNL     1     -41.528  54.500 -53.080  1.00  0.00     0.165 C 
HETATM   20  O   UNL     1     -42.361  54.573 -53.989  1.00  0.00    -0.292 OA
BRANCH  19  21
HETATM   21  C   UNL     1     -40.810  53.215 -52.820  1.00  0.00     0.012 A 
HETATM   22  C   UNL     1     -40.595  52.256 -53.816  1.00  0.00     0.039 A 
HETATM   23  C   UNL     1     -39.927  51.070 -53.504  1.00  0.00     0.035 A 
HETATM   24 CL   UNL     1     -39.673  49.895 -54.735  1.00  0.00    -0.084 Cl
HETATM   25  C   UNL     1     -39.466  50.829 -52.213  1.00  0.00     0.024 A 
HETATM   26  C   UNL     1     -39.671  51.784 -51.219  1.00  0.00     0.003 A 
HETATM   27  C   UNL     1     -40.339  52.972 -51.521  1.00  0.00     0.015 A 
ENDBRANCH  19  21
ENDBRANCH   4  19
TORSDOF 4
ENDMDL
MODEL 4
REMARK VINA RESULT:      -8.5      1.520      2.202
REMARK  4 active torsions:
REMARK  status: ('A' for Active; 'I' for Inactive)
REMARK    1  A    between atoms: C_6  and  C_7 
REMARK    2  A    between atoms: C_7  and  N_8 
REMARK    3  A    between atoms: C_11  and  C_12 
REMARK    4  A    between atoms: C_12  and  C_13 
ROOT
HETATM    1  N   UNL     1     -42.861  57.195 -54.687  1.00  0.00    -0.064 N 
HETATM    2  H   UNL     1     -43.126  56.237 -54.986  1.00  0.00     0.280 HD
HETATM    3  C   UNL     1     -41.426  57.068 -54.220  1.00  0.00     0.247 C 
HETATM    4  C   UNL     1     -41.320  55.981 -53.141  1.00  0.00     0.086 C 
HETATM    5  C   UNL     1     -42.306  56.245 -51.997  1.00  0.00     0.016 C 
HETATM    6  C   UNL     1     -43.732  56.515 -52.484  1.00  0.00     0.029 C 
HETATM    7  C   UNL     1     -43.785  57.587 -53.567  1.00  0.00     0.235 C 
ENDROOT
BRANCH   1   8
HETATM    8  C   UNL     1     -43.016  58.051 -55.926  1.00  0.00     0.313 C 
BRANCH   8   9
HETATM    9  C   UNL     1     -43.599  57.363 -57.118  1.00  0.00     0.131 A 
HETATM   10  N   UNL     1     -44.353  57.911 -58.052  1.00  0.00    -0.232 NA
HETATM   11  C   UNL     1     -44.613  56.912 -58.960  1.00  0.00     0.085 A 
HETATM   12  C   UNL     1     -44.011  55.724 -58.566  1.00  0.00     0.062 A 
HETATM   13  C   UNL     1     -45.350  56.950 -60.151  1.00  0.00     0.034 A 
HETATM   14  C   UNL     1     -44.101  54.541 -59.301  1.00  0.00     0.032 A 
HETATM   15  N   UNL     1     -43.381  56.031 -57.386  1.00  0.00    -0.341 N 
HETATM   16  C   UNL     1     -44.838  54.596 -60.489  1.00  0.00     0.002 A 
HETATM   17  C   UNL     1     -45.453  55.778 -60.909  1.00  0.00     0.002 A 
HETATM   18  H   UNL     1     -42.842  55.378 -56.833  1.00  0.00     0.167 HD
ENDBRANCH   8   9
ENDBRANCH   1   8
BRANCH   4  19
HETATM   19  C   UNL     1     -41.581  54.623 -53.785  1.00  0.00     0.165 C 
HETATM   20  O   UNL     1     -42.420  54.539 -54.688  1.00  0.00    -0.292 OA
BRANCH  19  21
HETATM   21  C   UNL     1     -40.849  53.405 -53.322  1.00  0.00     0.012 A 
HETATM   22  C   UNL     1     -40.596  52.314 -54.159  1.00  0.00     0.039 A 
HETATM   23  C   UNL     1     -39.917  51.200 -53.660  1.00  0.00     0.035 A 
HETATM   24 CL   UNL     1     -39.616  49.860 -54.697  1.00  0.00    -0.084 Cl
HETATM   25  C   UNL     1     -39.484  51.162 -52.337  1.00  0.00     0.024 A 
HETATM   26  C   UNL     1     -39.726  52.250 -51.501  1.00  0.00     0.003 A 
HETATM   27  C   UNL     1     -40.406  53.367 -51.992  1.00  0.00     0.015 A 
ENDBRANCH  19  21
ENDBRANCH   4  19
TORSDOF 4
ENDMDL
MODEL 5
REMARK VINA RESULT:      -8.4      3.948      7.945
REMARK  4 active torsions:
REMARK  status: ('A' for Active; 'I' for Inactive)
REMARK    1  A    between atoms: C_6  and  C_7 
REMARK    2  A    between atoms: C_7  and  N_8 
REMARK    3  A    between atoms: C_11  and  C_12 
REMARK    4  A    between atoms: C_12  and  C_13 
ROOT
HETATM    1  N   UNL     1     -41.389  55.809 -50.951  1.00  0.00    -0.064 N 
HETATM    2  H   UNL     1     -41.156  55.643 -51.949  1.00  0.00     0.280 HD
HETATM    3  C   UNL     1     -42.891  55.636 -50.874  1.00  0.00     0.247 C 
HETATM    4  C   UNL     1     -43.579  56.568 -51.881  1.00  0.00     0.086 C 
HETATM    5  C   UNL     1     -43.127  58.019 -51.683  1.00  0.00     0.016 C 
HETATM    6  C   UNL     1     -41.606  58.171 -51.619  1.00  0.00     0.029 C 
HETATM    7  C   UNL     1     -40.965  57.214 -50.620  1.00  0.00     0.235 C 
ENDROOT
BRANCH   1   8
HETATM    8  C   UNL     1     -40.621  54.751 -50.187  1.00  0.00     0.313 C 
BRANCH   8   9
HETATM    9  C   UNL     1     -40.327  53.495 -50.940  1.00  0.00     0.131 A 
HETATM   10  N   UNL     1     -40.043  52.315 -50.423  1.00  0.00    -0.232 NA
HETATM   11  C   UNL     1     -39.891  51.462 -51.490  1.00  0.00     0.085 A 
HETATM   12  C   UNL     1     -40.078  52.140 -52.688  1.00  0.00     0.062 A 
HETATM   13  C   UNL     1     -39.601  50.092 -51.511  1.00  0.00     0.034 A 
HETATM   14  C   UNL     1     -39.989  51.523 -53.938  1.00  0.00     0.032 A 
HETATM   15  N   UNL     1     -40.342  53.434 -52.315  1.00  0.00    -0.341 N 
HETATM   16  C   UNL     1     -39.702  50.153 -53.941  1.00  0.00     0.002 A 
HETATM   17  C   UNL     1     -39.510  49.447 -52.751  1.00  0.00     0.002 A 
HETATM   18  H   UNL     1     -40.529  54.192 -52.957  1.00  0.00     0.167 HD
ENDBRANCH   8   9
ENDBRANCH   1   8
BRANCH   4  19
HETATM   19  C   UNL     1     -43.262  56.084 -53.292  1.00  0.00     0.165 C 
HETATM   20  O   UNL     1     -42.638  55.028 -53.439  1.00  0.00    -0.292 OA
BRANCH  19  21
HETATM   21  C   UNL     1     -43.680  56.882 -54.485  1.00  0.00     0.012 A 
HETATM   22  C   UNL     1     -42.800  57.204 -55.524  1.00  0.00     0.039 A 
HETATM   23  C   UNL     1     -43.252  57.963 -56.605  1.00  0.00     0.035 A 
HETATM   24 CL   UNL     1     -42.160  58.358 -57.875  1.00  0.00    -0.084 Cl
HETATM   25  C   UNL     1     -44.572  58.404 -56.666  1.00  0.00     0.024 A 
HETATM   26  C   UNL     1     -45.454  58.080 -55.637  1.00  0.00     0.003 A 
HETATM   27  C   UNL     1     -45.011  57.322 -54.552  1.00  0.00     0.015 A 
ENDBRANCH  19  21
ENDBRANCH   4  19
TORSDOF 4
ENDMDL
MODEL 6
REMARK VINA RESULT:      -8.0      1.883      2.436
REMARK  4 active torsions:
REMARK  status: ('A' for Active; 'I' for Inactive)
REMARK    1  A    between atoms: C_6  and  C_7 
REMARK    2  A    between atoms: C_7  and  N_8 
REMARK    3  A    between atoms: C_11  and  C_12 
REMARK    4  A    between atoms: C_12  and  C_13 
ROOT
HETATM    1  N   UNL     1     -42.900  57.141 -53.136  1.00  0.00    -0.064 N 
HETATM    2  H   UNL     1     -43.411  56.239 -53.198  1.00  0.00     0.280 HD
HETATM    3  C   UNL     1     -41.456  56.781 -53.417  1.00  0.00     0.247 C 
HETATM    4  C   UNL     1     -40.990  55.686 -52.448  1.00  0.00     0.086 C 
HETATM    5  C   UNL     1     -41.238  56.098 -50.992  1.00  0.00     0.016 C 
HETATM    6  C   UNL     1     -42.664  56.596 -50.745  1.00  0.00     0.029 C 
HETATM    7  C   UNL     1     -43.089  57.669 -51.741  1.00  0.00     0.235 C 
ENDROOT
BRANCH   1   8
HETATM    8  C   UNL     1     -43.519  58.018 -54.204  1.00  0.00     0.313 C 
BRANCH   8   9
HETATM    9  C   UNL     1     -43.213  57.633 -55.615  1.00  0.00     0.131 A 
HETATM   10  N   UNL     1     -43.554  56.509 -56.216  1.00  0.00    -0.232 NA
HETATM   11  C   UNL     1     -43.097  56.619 -57.507  1.00  0.00     0.085 A 
HETATM   12  C   UNL     1     -42.454  57.835 -57.697  1.00  0.00     0.062 A 
HETATM   13  C   UNL     1     -43.204  55.721 -58.578  1.00  0.00     0.034 A 
HETATM   14  C   UNL     1     -41.894  58.222 -58.916  1.00  0.00     0.032 A 
HETATM   15  N   UNL     1     -42.529  58.459 -56.477  1.00  0.00    -0.341 N 
HETATM   16  C   UNL     1     -42.012  57.315 -59.975  1.00  0.00     0.002 A 
HETATM   17  C   UNL     1     -42.654  56.086 -59.812  1.00  0.00     0.002 A 
HETATM   18  H   UNL     1     -42.152  59.375 -56.274  1.00  0.00     0.167 HD
ENDBRANCH   8   9
ENDBRANCH   1   8
BRANCH   4  19
HETATM   19  C   UNL     1     -41.724  54.391 -52.782  1.00  0.00     0.165 C 
HETATM   20  O   UNL     1     -42.957  54.405 -52.868  1.00  0.00    -0.292 OA
BRANCH  19  21
HETATM   21  C   UNL     1     -40.971  53.116 -52.986  1.00  0.00     0.012 A 
HETATM   22  C   UNL     1     -40.517  52.330 -51.923  1.00  0.00     0.039 A 
HETATM   23  C   UNL     1     -39.808  51.155 -52.182  1.00  0.00     0.035 A 
HETATM   24 CL   UNL     1     -39.249  50.198 -50.866  1.00  0.00    -0.084 Cl
HETATM   25  C   UNL     1     -39.548  50.752 -53.489  1.00  0.00     0.024 A 
HETATM   26  C   UNL     1     -40.005  51.528 -54.553  1.00  0.00     0.003 A 
HETATM   27  C   UNL     1     -40.714  52.705 -54.302  1.00  0.00     0.015 A 
ENDBRANCH  19  21
ENDBRANCH   4  19
TORSDOF 4
ENDMDL
MODEL 7
REMARK VINA RESULT:      -7.9      3.664      5.694
REMARK  4 active torsions:
REMARK  status: ('A' for Active; 'I' for Inactive)
REMARK    1  A    between atoms: C_6  and  C_7 
REMARK    2  A    between atoms: C_7  and  N_8 
REMARK    3  A    between atoms: C_11  and  C_12 
REMARK    4  A    between atoms: C_12  and  C_13 
ROOT
HETATM    1  N   UNL     1     -42.289  56.638 -53.640  1.00  0.00    -0.064 N 
HETATM    2  H   UNL     1     -41.678  56.160 -54.330  1.00  0.00     0.280 HD
HETATM    3  C   UNL     1     -41.775  56.181 -52.291  1.00  0.00     0.247 C 
HETATM    4  C   UNL     1     -41.772  54.647 -52.224  1.00  0.00     0.086 C 
HETATM    5  C   UNL     1     -43.154  54.080 -52.569  1.00  0.00     0.016 C 
HETATM    6  C   UNL     1     -43.732  54.654 -53.864  1.00  0.00     0.029 C 
HETATM    7  C   UNL     1     -43.698  56.178 -53.893  1.00  0.00     0.235 C 
ENDROOT
BRANCH   1   8
HETATM    8  C   UNL     1     -42.081  58.117 -53.892  1.00  0.00     0.313 C 
BRANCH   8   9
HETATM    9  C   UNL     1     -42.727  59.037 -52.908  1.00  0.00     0.131 A 
HETATM   10  N   UNL     1     -43.987  59.010 -52.514  1.00  0.00    -0.232 NA
HETATM   11  C   UNL     1     -44.110  60.009 -51.578  1.00  0.00     0.085 A 
HETATM   12  C   UNL     1     -42.900  60.668 -51.403  1.00  0.00     0.062 A 
HETATM   13  C   UNL     1     -45.226  60.406 -50.830  1.00  0.00     0.034 A 
HETATM   14  C   UNL     1     -42.727  61.726 -50.507  1.00  0.00     0.032 A 
HETATM   15  N   UNL     1     -42.038  60.041 -52.267  1.00  0.00    -0.341 N 
HETATM   16  C   UNL     1     -43.851  62.107 -49.765  1.00  0.00     0.002 A 
HETATM   17  C   UNL     1     -45.080  61.462 -49.922  1.00  0.00     0.002 A 
HETATM   18  H   UNL     1     -41.063  60.282 -52.384  1.00  0.00     0.167 HD
ENDBRANCH   8   9
ENDBRANCH   1   8
BRANCH   4  19
HETATM   19  C   UNL     1     -40.709  54.117 -53.180  1.00  0.00     0.165 C 
HETATM   20  O   UNL     1     -40.157  54.901 -53.959  1.00  0.00    -0.292 OA
BRANCH  19  21
HETATM   21  C   UNL     1     -40.349  52.666 -53.194  1.00  0.00     0.012 A 
HETATM   22  C   UNL     1     -39.963  51.974 -52.041  1.00  0.00     0.039 A 
HETATM   23  C   UNL     1     -39.627  50.621 -52.124  1.00  0.00     0.035 A 
HETATM   24 CL   UNL     1     -39.149  49.781 -50.700  1.00  0.00    -0.084 Cl
HETATM   25  C   UNL     1     -39.674  49.948 -53.341  1.00  0.00     0.024 A 
HETATM   26  C   UNL     1     -40.065  50.631 -54.492  1.00  0.00     0.003 A 
HETATM   27  C   UNL     1     -40.401  51.984 -54.418  1.00  0.00     0.015 A 
ENDBRANCH  19  21
ENDBRANCH   4  19
TORSDOF 4
ENDMDL
MODEL 8
REMARK VINA RESULT:      -7.8     14.414     17.304
REMARK  4 active torsions:
REMARK  status: ('A' for Active; 'I' for Inactive)
REMARK    1  A    between atoms: C_6  and  C_7 
REMARK    2  A    between atoms: C_7  and  N_8 
REMARK    3  A    between atoms: C_11  and  C_12 
REMARK    4  A    between atoms: C_12  and  C_13 
ROOT
HETATM    1  N   UNL     1     -35.460  41.640 -54.367  1.00  0.00    -0.064 N 
HETATM    2  H   UNL     1     -36.380  41.195 -54.551  1.00  0.00     0.280 HD
HETATM    3  C   UNL     1     -35.326  42.700 -55.440  1.00  0.00     0.247 C 
HETATM    4  C   UNL     1     -35.492  42.065 -56.828  1.00  0.00     0.086 C 
HETATM    5  C   UNL     1     -34.525  40.891 -57.015  1.00  0.00     0.016 C 
HETATM    6  C   UNL     1     -34.562  39.893 -55.855  1.00  0.00     0.029 C 
HETATM    7  C   UNL     1     -34.411  40.570 -54.497  1.00  0.00     0.235 C 
ENDROOT
BRANCH   1   8
HETATM    8  C   UNL     1     -35.571  42.211 -52.969  1.00  0.00     0.313 C 
BRANCH   8   9
HETATM    9  C   UNL     1     -35.008  41.361 -51.877  1.00  0.00     0.131 A 
HETATM   10  N   UNL     1     -35.634  40.398 -51.227  1.00  0.00    -0.232 NA
HETATM   11  C   UNL     1     -34.713  39.875 -50.351  1.00  0.00     0.085 A 
HETATM   12  C   UNL     1     -33.498  40.540 -50.463  1.00  0.00     0.062 A 
HETATM   13  C   UNL     1     -34.841  38.823 -49.435  1.00  0.00     0.034 A 
HETATM   14  C   UNL     1     -32.376  40.216 -49.698  1.00  0.00     0.032 A 
HETATM   15  N   UNL     1     -33.713  41.489 -51.430  1.00  0.00    -0.341 N 
HETATM   16  C   UNL     1     -32.521  39.161 -48.790  1.00  0.00     0.002 A 
HETATM   17  C   UNL     1     -33.730  38.475 -48.657  1.00  0.00     0.002 A 
HETATM   18  H   UNL     1     -33.018  42.148 -51.755  1.00  0.00     0.167 HD
ENDBRANCH   8   9
ENDBRANCH   1   8
BRANCH   4  19
HETATM   19  C   UNL     1     -36.940  41.611 -56.989  1.00  0.00     0.165 C 
HETATM   20  O   UNL     1     -37.774  41.953 -56.144  1.00  0.00    -0.292 OA
BRANCH  19  21
HETATM   21  C   UNL     1     -37.346  40.749 -58.141  1.00  0.00     0.012 A 
HETATM   22  C   UNL     1     -37.955  39.502 -57.971  1.00  0.00     0.039 A 
HETATM   23  C   UNL     1     -38.299  38.740 -59.089  1.00  0.00     0.035 A 
HETATM   24 CL   UNL     1     -39.043  37.204 -58.869  1.00  0.00    -0.084 Cl
HETATM   25  C   UNL     1     -38.048  39.208 -60.377  1.00  0.00     0.024 A 
HETATM   26  C   UNL     1     -37.448  40.454 -60.551  1.00  0.00     0.003 A 
HETATM   27  C   UNL     1     -37.100  41.221 -59.438  1.00  0.00     0.015 A 
ENDBRANCH  19  21
ENDBRANCH   4  19
TORSDOF 4
ENDMDL
MODEL 9
REMARK VINA RESULT:      -7.8      4.438      5.704
REMARK  4 active torsions:
REMARK  status: ('A' for Active; 'I' for Inactive)
REMARK    1  A    between atoms: C_6  and  C_7 
REMARK    2  A    between atoms: C_7  and  N_8 
REMARK    3  A    between atoms: C_11  and  C_12 
REMARK    4  A    between atoms: C_12  and  C_13 
ROOT
HETATM    1  N   UNL     1     -41.387  56.348 -51.671  1.00  0.00    -0.064 N 
HETATM    2  H   UNL     1     -40.435  55.946 -51.763  1.00  0.00     0.280 HD
HETATM    3  C   UNL     1     -42.081  55.464 -50.656  1.00  0.00     0.247 C 
HETATM    4  C   UNL     1     -42.020  53.999 -51.108  1.00  0.00     0.086 C 
HETATM    5  C   UNL     1     -42.574  53.839 -52.529  1.00  0.00     0.016 C 
HETATM    6  C   UNL     1     -41.971  54.833 -53.524  1.00  0.00     0.029 C 
HETATM    7  C   UNL     1     -42.038  56.272 -53.024  1.00  0.00     0.235 C 
ENDROOT
BRANCH   1   8
HETATM    8  C   UNL     1     -41.170  57.766 -51.184  1.00  0.00     0.313 C 
BRANCH   8   9
HETATM    9  C   UNL     1     -42.326  58.695 -51.363  1.00  0.00     0.131 A 
HETATM   10  N   UNL     1     -42.374  59.748 -52.158  1.00  0.00    -0.232 NA
HETATM   11  C   UNL     1     -43.640  60.264 -52.022  1.00  0.00     0.085 A 
HETATM   12  C   UNL     1     -44.380  59.515 -51.116  1.00  0.00     0.062 A 
HETATM   13  C   UNL     1     -44.232  61.368 -52.649  1.00  0.00     0.034 A 
HETATM   14  C   UNL     1     -45.705  59.805 -50.786  1.00  0.00     0.032 A 
HETATM   15  N   UNL     1     -43.520  58.529 -50.701  1.00  0.00    -0.341 N 
HETATM   16  C   UNL     1     -46.282  60.909 -51.424  1.00  0.00     0.002 A 
HETATM   17  C   UNL     1     -45.561  61.680 -52.339  1.00  0.00     0.002 A 
HETATM   18  H   UNL     1     -43.752  57.806 -50.033  1.00  0.00     0.167 HD
ENDBRANCH   8   9
ENDBRANCH   1   8
BRANCH   4  19
HETATM   19  C   UNL     1     -40.573  53.521 -51.030  1.00  0.00     0.165 C 
HETATM   20  O   UNL     1     -39.700  54.310 -50.652  1.00  0.00    -0.292 OA
BRANCH  19  21
HETATM   21  C   UNL     1     -40.206  52.126 -51.421  1.00  0.00     0.012 A 
HETATM   22  C   UNL     1     -39.933  51.760 -52.743  1.00  0.00     0.039 A 
HETATM   23  C   UNL     1     -39.608  50.436 -53.043  1.00  0.00     0.035 A 
HETATM   24 CL   UNL     1     -39.278  49.995 -54.673  1.00  0.00    -0.084 Cl
HETATM   25  C   UNL     1     -39.549  49.471 -52.040  1.00  0.00     0.024 A 
HETATM   26  C   UNL     1     -39.814  49.832 -50.721  1.00  0.00     0.003 A 
HETATM   27  C   UNL     1     -40.141  51.154 -50.412  1.00  0.00     0.015 A 
ENDBRANCH  19  21
ENDBRANCH   4  19
TORSDOF 4
ENDMDL
MODEL 10
REMARK VINA RESULT:      -7.7      6.712      9.057
REMARK  4 active torsions:
REMARK  status: ('A' for Active; 'I' for Inactive)
REMARK    1  A    between atoms: C_6  and  C_7 
REMARK    2  A    between atoms: C_7  and  N_8 
REMARK    3  A    between atoms: C_11  and  C_12 
REMARK    4  A    between atoms: C_12  and  C_13 
ROOT
HETATM    1  N   UNL     1     -44.003  59.182 -50.894  1.00  0.00    -0.064 N 
HETATM    2  H   UNL     1     -43.966  58.460 -50.149  1.00  0.00     0.280 HD
HETATM    3  C   UNL     1     -44.096  58.395 -52.185  1.00  0.00     0.247 C 
HETATM    4  C   UNL     1     -42.929  57.402 -52.279  1.00  0.00     0.086 C 
HETATM    5  C   UNL     1     -41.585  58.117 -52.102  1.00  0.00     0.016 C 
HETATM    6  C   UNL     1     -41.545  59.024 -50.870  1.00  0.00     0.029 C 
HETATM    7  C   UNL     1     -42.731  59.980 -50.810  1.00  0.00     0.235 C 
ENDROOT
BRANCH   1   8
HETATM    8  C   UNL     1     -45.246  59.993 -50.594  1.00  0.00     0.313 C 
BRANCH   8   9
HETATM    9  C   UNL     1     -45.174  60.864 -49.383  1.00  0.00     0.131 A 
HETATM   10  N   UNL     1     -45.087  62.181 -49.364  1.00  0.00    -0.232 NA
HETATM   11  C   UNL     1     -45.090  62.539 -48.037  1.00  0.00     0.085 A 
HETATM   12  C   UNL     1     -45.171  61.414 -47.226  1.00  0.00     0.062 A 
HETATM   13  C   UNL     1     -45.035  63.809 -47.449  1.00  0.00     0.034 A 
HETATM   14  C   UNL     1     -45.198  61.477 -45.831  1.00  0.00     0.032 A 
HETATM   15  N   UNL     1     -45.211  60.359 -48.103  1.00  0.00    -0.341 N 
HETATM   16  C   UNL     1     -45.145  62.754 -45.261  1.00  0.00     0.002 A 
HETATM   17  C   UNL     1     -45.064  63.902 -46.052  1.00  0.00     0.002 A 
HETATM   18  H   UNL     1     -45.273  59.387 -47.833  1.00  0.00     0.167 HD
ENDBRANCH   8   9
ENDBRANCH   1   8
BRANCH   4  19
HETATM   19  C   UNL     1     -43.118  56.322 -51.218  1.00  0.00     0.165 C 
HETATM   20  O   UNL     1     -44.192  56.257 -50.612  1.00  0.00    -0.292 OA
BRANCH  19  21
HETATM   21  C   UNL     1     -42.015  55.365 -50.898  1.00  0.00     0.012 A 
HETATM   22  C   UNL     1     -41.570  54.398 -51.805  1.00  0.00     0.039 A 
HETATM   23  C   UNL     1     -40.543  53.525 -51.439  1.00  0.00     0.035 A 
HETATM   24 CL   UNL     1     -40.005  52.335 -52.560  1.00  0.00    -0.084 Cl
HETATM   25  C   UNL     1     -39.951  53.607 -50.181  1.00  0.00     0.024 A 
HETATM   26  C   UNL     1     -40.386  54.574 -49.277  1.00  0.00     0.003 A 
HETATM   27  C   UNL     1     -41.414  55.450 -49.634  1.00  0.00     0.015 A 
ENDBRANCH  19  21
ENDBRANCH   4  19
TORSDOF 4
ENDMDL
