MODEL 1
REMARK VINA RESULT:      -9.6      0.000      0.000
REMARK  5 active torsions:
REMARK  status: ('A' for Active; 'I' for Inactive)
REMARK    1  A    between atoms: C_6  and  S_7 
REMARK    2  A    between atoms: S_7  and  C_8 
REMARK    3  A    between atoms: C_8  and  C_9 
REMARK       I    between atoms: C_9  and  N_10 
REMARK    4  A    between atoms: N_10  and  C_11 
REMARK    5  A    between atoms: N_22  and  C_23 
ROOT
HETATM    1  C   UNL     1     -39.623  49.790 -50.955  1.00  0.00     0.001 A 
HETATM    2  C   UNL     1     -40.061  51.067 -50.605  1.00  0.00     0.019 A 
HETATM    3  C   UNL     1     -40.270  52.029 -51.602  1.00  0.00     0.061 A 
HETATM    4  C   UNL     1     -40.041  51.728 -52.939  1.00  0.00     0.075 A 
HETATM    5  N   UNL     1     -40.170  52.685 -53.948  1.00  0.00    -0.223 NA
HETATM    6  C   UNL     1     -40.641  53.853 -53.644  1.00  0.00     0.177 A 
HETATM    7  N   UNL     1     -41.025  54.233 -52.354  1.00  0.00    -0.256 N 
HETATM    8  C   UNL     1     -40.783  53.371 -51.275  1.00  0.00     0.267 A 
HETATM    9  O   UNL     1     -41.006  53.622 -50.092  1.00  0.00    -0.267 OA
HETATM   10  C   UNL     1     -39.616  50.441 -53.282  1.00  0.00     0.032 A 
HETATM   11  C   UNL     1     -39.408  49.475 -52.295  1.00  0.00     0.002 A 
ENDROOT
BRANCH   6  12
HETATM   12  S   UNL     1     -40.646  55.058 -54.930  1.00  0.00    -0.082 SA
BRANCH  12  13
HETATM   13  C   UNL     1     -42.248  54.778 -55.734  1.00  0.00     0.185 C 
BRANCH  13  14
HETATM   14  C   UNL     1     -42.756  56.026 -56.447  1.00  0.00     0.231 C 
HETATM   15  N   UNL     1     -42.448  56.056 -57.794  1.00  0.00    -0.326 N 
HETATM   16  H   UNL     1     -41.829  55.314 -58.116  1.00  0.00     0.169 HD
HETATM   17  O   UNL     1     -43.403  56.874 -55.839  1.00  0.00    -0.272 OA
BRANCH  15  18
HETATM   18  C   UNL     1     -42.843  57.005 -58.758  1.00  0.00     0.037 A 
HETATM   19  C   UNL     1     -42.003  58.018 -59.236  1.00  0.00     0.061 A 
HETATM   20  C   UNL     1     -42.541  58.900 -60.147  1.00  0.00     0.065 A 
HETATM   21  C   UNL     1     -43.857  58.805 -60.593  1.00  0.00     0.063 A 
HETATM   22  N   UNL     1     -41.960  59.999 -60.770  1.00  0.00    -0.306 N 
HETATM   23  N   UNL     1     -44.084  59.842 -61.489  1.00  0.00    -0.307 N 
HETATM   24  C   UNL     1     -44.706  57.820 -60.156  1.00  0.00     0.034 A 
HETATM   25  C   UNL     1     -42.909  60.598 -61.608  1.00  0.00     0.325 A 
HETATM   26  H   UNL     1     -44.935  60.051 -61.984  1.00  0.00     0.170 HD
HETATM   27  O   UNL     1     -42.750  61.586 -62.303  1.00  0.00    -0.247 OA
HETATM   28  C   UNL     1     -44.182  56.915 -59.225  1.00  0.00     0.032 A 
HETATM   29  H   UNL     1     -41.016  60.334 -60.654  1.00  0.00     0.170 HD
ENDBRANCH  15  18
ENDBRANCH  13  14
ENDBRANCH  12  13
ENDBRANCH   6  12
BRANCH   7  30
HETATM   30  C   UNL     1     -41.726  55.454 -52.070  1.00  0.00     0.046 A 
HETATM   31  C   UNL     1     -41.046  56.574 -51.567  1.00  0.00     0.055 A 
HETATM   32  C   UNL     1     -41.737  57.748 -51.243  1.00  0.00     0.058 A 
HETATM   33 CL   UNL     1     -40.815  59.084 -50.649  1.00  0.00    -0.082 Cl
HETATM   34  C   UNL     1     -43.123  57.811 -51.405  1.00  0.00     0.055 A 
HETATM   35 CL   UNL     1     -44.043  59.220 -51.017  1.00  0.00    -0.083 Cl
HETATM   36  C   UNL     1     -43.813  56.698 -51.888  1.00  0.00     0.028 A 
HETATM   37  C   UNL     1     -43.121  55.526 -52.215  1.00  0.00     0.032 A 
ENDBRANCH   7  30
TORSDOF 5
ENDMDL
MODEL 2
REMARK VINA RESULT:      -9.2      2.882      3.171
REMARK  5 active torsions:
REMARK  status: ('A' for Active; 'I' for Inactive)
REMARK    1  A    between atoms: C_6  and  S_7 
REMARK    2  A    between atoms: S_7  and  C_8 
REMARK    3  A    between atoms: C_8  and  C_9 
REMARK       I    between atoms: C_9  and  N_10 
REMARK    4  A    between atoms: N_10  and  C_11 
REMARK    5  A    between atoms: N_22  and  C_23 
ROOT
HETATM    1  C   UNL     1     -39.594  49.826 -51.099  1.00  0.00     0.001 A 
HETATM    2  C   UNL     1     -40.027  51.101 -50.738  1.00  0.00     0.019 A 
HETATM    3  C   UNL     1     -40.255  52.065 -51.729  1.00  0.00     0.061 A 
HETATM    4  C   UNL     1     -40.051  51.767 -53.070  1.00  0.00     0.075 A 
HETATM    5  N   UNL     1     -40.200  52.725 -54.076  1.00  0.00    -0.223 NA
HETATM    6  C   UNL     1     -40.667  53.892 -53.760  1.00  0.00     0.177 A 
HETATM    7  N   UNL     1     -41.027  54.269 -52.463  1.00  0.00    -0.256 N 
HETATM    8  C   UNL     1     -40.763  53.406 -51.389  1.00  0.00     0.267 A 
HETATM    9  O   UNL     1     -40.964  53.654 -50.202  1.00  0.00    -0.267 OA
HETATM   10  C   UNL     1     -39.632  50.481 -53.425  1.00  0.00     0.032 A 
HETATM   11  C   UNL     1     -39.403  49.513 -52.443  1.00  0.00     0.002 A 
ENDROOT
BRANCH   6  12
HETATM   12  S   UNL     1     -40.698  55.100 -55.043  1.00  0.00    -0.082 SA
BRANCH  12  13
HETATM   13  C   UNL     1     -42.349  54.877 -55.762  1.00  0.00     0.185 C 
BRANCH  13  14
HETATM   14  C   UNL     1     -43.000  56.208 -56.122  1.00  0.00     0.231 C 
HETATM   15  N   UNL     1     -42.985  57.126 -55.089  1.00  0.00    -0.326 N 
HETATM   16  H   UNL     1     -42.655  56.770 -54.194  1.00  0.00     0.169 HD
HETATM   17  O   UNL     1     -43.447  56.401 -57.249  1.00  0.00    -0.272 OA
BRANCH  15  18
HETATM   18  C   UNL     1     -43.411  58.469 -55.110  1.00  0.00     0.037 A 
HETATM   19  C   UNL     1     -42.592  59.535 -55.504  1.00  0.00     0.061 A 
HETATM   20  C   UNL     1     -43.134  60.799 -55.433  1.00  0.00     0.065 A 
HETATM   21  C   UNL     1     -44.437  61.033 -55.000  1.00  0.00     0.063 A 
HETATM   22  N   UNL     1     -42.560  62.029 -55.736  1.00  0.00    -0.306 N 
HETATM   23  N   UNL     1     -44.665  62.403 -55.037  1.00  0.00    -0.307 N 
HETATM   24  C   UNL     1     -45.271  60.014 -54.617  1.00  0.00     0.034 A 
HETATM   25  C   UNL     1     -43.500  63.039 -55.492  1.00  0.00     0.325 A 
HETATM   26  H   UNL     1     -45.506  62.893 -54.783  1.00  0.00     0.170 HD
HETATM   27  O   UNL     1     -43.341  64.237 -55.642  1.00  0.00    -0.247 OA
HETATM   28  C   UNL     1     -44.741  58.719 -54.676  1.00  0.00     0.032 A 
HETATM   29  H   UNL     1     -41.625  62.197 -56.073  1.00  0.00     0.170 HD
ENDBRANCH  15  18
ENDBRANCH  13  14
ENDBRANCH  12  13
ENDBRANCH   6  12
BRANCH   7  30
HETATM   30  C   UNL     1     -41.724  55.488 -52.163  1.00  0.00     0.046 A 
HETATM   31  C   UNL     1     -41.028  56.697 -52.011  1.00  0.00     0.055 A 
HETATM   32  C   UNL     1     -41.700  57.877 -51.669  1.00  0.00     0.058 A 
HETATM   33 CL   UNL     1     -40.764  59.322 -51.523  1.00  0.00    -0.082 Cl
HETATM   34  C   UNL     1     -43.082  57.859 -51.461  1.00  0.00     0.055 A 
HETATM   35 CL   UNL     1     -43.977  59.270 -51.029  1.00  0.00    -0.083 Cl
HETATM   36  C   UNL     1     -43.784  56.659 -51.593  1.00  0.00     0.028 A 
HETATM   37  C   UNL     1     -43.110  55.482 -51.937  1.00  0.00     0.032 A 
ENDBRANCH   7  30
TORSDOF 5
ENDMDL
MODEL 3
REMARK VINA RESULT:      -9.2      2.531      3.210
REMARK  5 active torsions:
REMARK  status: ('A' for Active; 'I' for Inactive)
REMARK    1  A    between atoms: C_6  and  S_7 
REMARK    2  A    between atoms: S_7  and  C_8 
REMARK    3  A    between atoms: C_8  and  C_9 
REMARK       I    between atoms: C_9  and  N_10 
REMARK    4  A    between atoms: N_10  and  C_11 
REMARK    5  A    between atoms: N_22  and  C_23 
ROOT
HETATM    1  C   UNL     1     -39.477  51.676 -52.287  1.00  0.00     0.001 A 
HETATM    2  C   UNL     1     -39.943  52.896 -51.798  1.00  0.00     0.019 A 
HETATM    3  C   UNL     1     -40.822  53.666 -52.572  1.00  0.00     0.061 A 
HETATM    4  C   UNL     1     -41.232  53.231 -53.826  1.00  0.00     0.075 A 
HETATM    5  N   UNL     1     -42.049  54.007 -54.651  1.00  0.00    -0.223 NA
HETATM    6  C   UNL     1     -42.543  55.110 -54.181  1.00  0.00     0.177 A 
HETATM    7  N   UNL     1     -42.303  55.589 -52.890  1.00  0.00    -0.256 N 
HETATM    8  C   UNL     1     -41.377  54.934 -52.066  1.00  0.00     0.267 A 
HETATM    9  O   UNL     1     -41.028  55.300 -50.945  1.00  0.00    -0.267 OA
HETATM   10  C   UNL     1     -40.772  52.000 -54.302  1.00  0.00     0.032 A 
HETATM   11  C   UNL     1     -39.897  51.225 -53.537  1.00  0.00     0.002 A 
ENDROOT
BRANCH   6  12
HETATM   12  S   UNL     1     -43.446  56.112 -55.314  1.00  0.00    -0.082 SA
BRANCH  12  13
HETATM   13  C   UNL     1     -42.428  56.039 -56.813  1.00  0.00     0.185 C 
BRANCH  13  14
HETATM   14  C   UNL     1     -43.263  56.198 -58.080  1.00  0.00     0.231 C 
HETATM   15  N   UNL     1     -44.414  56.940 -57.892  1.00  0.00    -0.326 N 
HETATM   16  H   UNL     1     -44.622  57.183 -56.925  1.00  0.00     0.169 HD
HETATM   17  O   UNL     1     -42.880  55.721 -59.145  1.00  0.00    -0.272 OA
BRANCH  15  18
HETATM   18  C   UNL     1     -45.351  57.354 -58.859  1.00  0.00     0.037 A 
HETATM   19  C   UNL     1     -46.115  56.467 -59.627  1.00  0.00     0.061 A 
HETATM   20  C   UNL     1     -46.960  57.018 -60.564  1.00  0.00     0.065 A 
HETATM   21  C   UNL     1     -47.074  58.393 -60.754  1.00  0.00     0.063 A 
HETATM   22  N   UNL     1     -47.812  56.393 -61.468  1.00  0.00    -0.306 N 
HETATM   23  N   UNL     1     -47.994  58.614 -61.771  1.00  0.00    -0.307 N 
HETATM   24  C   UNL     1     -46.351  59.293 -60.013  1.00  0.00     0.034 A 
HETATM   25  C   UNL     1     -48.462  57.374 -62.229  1.00  0.00     0.325 A 
HETATM   26  H   UNL     1     -48.294  59.498 -62.146  1.00  0.00     0.170 HD
HETATM   27  O   UNL     1     -49.273  57.189 -63.119  1.00  0.00    -0.247 OA
HETATM   28  C   UNL     1     -45.480  58.755 -59.057  1.00  0.00     0.032 A 
HETATM   29  H   UNL     1     -47.956  55.402 -61.582  1.00  0.00     0.170 HD
ENDBRANCH  15  18
ENDBRANCH  13  14
ENDBRANCH  12  13
ENDBRANCH   6  12
BRANCH   7  30
HETATM   30  C   UNL     1     -43.012  56.700 -52.319  1.00  0.00     0.046 A 
HETATM   31  C   UNL     1     -42.497  58.003 -52.407  1.00  0.00     0.055 A 
HETATM   32  C   UNL     1     -43.161  59.081 -51.809  1.00  0.00     0.058 A 
HETATM   33 CL   UNL     1     -42.465  60.653 -51.985  1.00  0.00    -0.082 Cl
HETATM   34  C   UNL     1     -44.347  58.865 -51.100  1.00  0.00     0.055 A 
HETATM   35 CL   UNL     1     -45.215  60.142 -50.328  1.00  0.00    -0.083 Cl
HETATM   36  C   UNL     1     -44.859  57.571 -50.991  1.00  0.00     0.028 A 
HETATM   37  C   UNL     1     -44.195  56.496 -51.593  1.00  0.00     0.032 A 
ENDBRANCH   7  30
TORSDOF 5
ENDMDL
MODEL 4
REMARK VINA RESULT:      -9.1      3.752     10.554
REMARK  5 active torsions:
REMARK  status: ('A' for Active; 'I' for Inactive)
REMARK    1  A    between atoms: C_6  and  S_7 
REMARK    2  A    between atoms: S_7  and  C_8 
REMARK    3  A    between atoms: C_8  and  C_9 
REMARK       I    between atoms: C_9  and  N_10 
REMARK    4  A    between atoms: N_10  and  C_11 
REMARK    5  A    between atoms: N_22  and  C_23 
ROOT
HETATM    1  C   UNL     1     -39.834  63.352 -61.002  1.00  0.00     0.001 A 
HETATM    2  C   UNL     1     -40.725  62.312 -61.265  1.00  0.00     0.019 A 
HETATM    3  C   UNL     1     -41.194  61.516 -60.211  1.00  0.00     0.061 A 
HETATM    4  C   UNL     1     -40.779  61.746 -58.906  1.00  0.00     0.075 A 
HETATM    5  N   UNL     1     -41.171  60.927 -57.845  1.00  0.00    -0.223 NA
HETATM    6  C   UNL     1     -42.051  60.001 -58.065  1.00  0.00     0.177 A 
HETATM    7  N   UNL     1     -42.636  59.753 -59.311  1.00  0.00    -0.256 N 
HETATM    8  C   UNL     1     -42.177  60.442 -60.443  1.00  0.00     0.267 A 
HETATM    9  O   UNL     1     -42.558  60.260 -61.598  1.00  0.00    -0.267 OA
HETATM   10  C   UNL     1     -39.897  62.801 -58.650  1.00  0.00     0.032 A 
HETATM   11  C   UNL     1     -39.426  63.601 -59.694  1.00  0.00     0.002 A 
ENDROOT
BRANCH   6  12
HETATM   12  S   UNL     1     -42.398  58.912 -56.724  1.00  0.00    -0.082 SA
BRANCH  12  13
HETATM   13  C   UNL     1     -42.058  59.945 -55.272  1.00  0.00     0.185 C 
BRANCH  13  14
HETATM   14  C   UNL     1     -41.494  59.133 -54.111  1.00  0.00     0.231 C 
HETATM   15  N   UNL     1     -42.176  57.953 -53.881  1.00  0.00    -0.326 N 
HETATM   16  H   UNL     1     -43.029  57.829 -54.425  1.00  0.00     0.169 HD
HETATM   17  O   UNL     1     -40.503  59.521 -53.499  1.00  0.00    -0.272 OA
BRANCH  15  18
HETATM   18  C   UNL     1     -41.867  56.933 -52.960  1.00  0.00     0.037 A 
HETATM   19  C   UNL     1     -41.933  57.097 -51.571  1.00  0.00     0.061 A 
HETATM   20  C   UNL     1     -41.560  56.023 -50.795  1.00  0.00     0.065 A 
HETATM   21  C   UNL     1     -41.138  54.813 -51.342  1.00  0.00     0.063 A 
HETATM   22  N   UNL     1     -41.507  55.903 -49.410  1.00  0.00    -0.306 N 
HETATM   23  N   UNL     1     -40.828  53.952 -50.297  1.00  0.00    -0.307 N 
HETATM   24  C   UNL     1     -41.071  54.612 -52.697  1.00  0.00     0.034 A 
HETATM   25  C   UNL     1     -41.050  54.619 -49.084  1.00  0.00     0.325 A 
HETATM   26  H   UNL     1     -40.492  53.006 -50.361  1.00  0.00     0.170 HD
HETATM   27  O   UNL     1     -40.875  54.168 -47.966  1.00  0.00    -0.247 OA
HETATM   28  C   UNL     1     -41.441  55.692 -53.507  1.00  0.00     0.032 A 
HETATM   29  H   UNL     1     -41.746  56.607 -48.730  1.00  0.00     0.170 HD
ENDBRANCH  15  18
ENDBRANCH  13  14
ENDBRANCH  12  13
ENDBRANCH   6  12
BRANCH   7  30
HETATM   30  C   UNL     1     -43.747  58.863 -59.495  1.00  0.00     0.046 A 
HETATM   31  C   UNL     1     -43.541  57.506 -59.790  1.00  0.00     0.055 A 
HETATM   32  C   UNL     1     -44.623  56.647 -60.019  1.00  0.00     0.058 A 
HETATM   33 CL   UNL     1     -44.275  54.989 -60.357  1.00  0.00    -0.082 Cl
HETATM   34  C   UNL     1     -45.930  57.140 -59.969  1.00  0.00     0.055 A 
HETATM   35 CL   UNL     1     -47.312  56.145 -60.249  1.00  0.00    -0.083 Cl
HETATM   36  C   UNL     1     -46.147  58.491 -59.692  1.00  0.00     0.028 A 
HETATM   37  C   UNL     1     -45.064  59.347 -59.461  1.00  0.00     0.032 A 
ENDBRANCH   7  30
TORSDOF 5
ENDMDL
MODEL 5
REMARK VINA RESULT:      -9.1      4.428      6.729
REMARK  5 active torsions:
REMARK  status: ('A' for Active; 'I' for Inactive)
REMARK    1  A    between atoms: C_6  and  S_7 
REMARK    2  A    between atoms: S_7  and  C_8 
REMARK    3  A    between atoms: C_8  and  C_9 
REMARK       I    between atoms: C_9  and  N_10 
REMARK    4  A    between atoms: N_10  and  C_11 
REMARK    5  A    between atoms: N_22  and  C_23 
ROOT
HETATM    1  C   UNL     1     -39.855  50.997 -53.872  1.00  0.00     0.001 A 
HETATM    2  C   UNL     1     -40.720  51.974 -54.362  1.00  0.00     0.019 A 
HETATM    3  C   UNL     1     -41.081  53.057 -53.548  1.00  0.00     0.061 A 
HETATM    4  C   UNL     1     -40.589  53.167 -52.253  1.00  0.00     0.075 A 
HETATM    5  N   UNL     1     -40.985  54.193 -51.393  1.00  0.00    -0.223 NA
HETATM    6  C   UNL     1     -41.734  55.143 -51.859  1.00  0.00     0.177 A 
HETATM    7  N   UNL     1     -42.190  55.208 -53.179  1.00  0.00    -0.256 N 
HETATM    8  C   UNL     1     -41.950  54.135 -54.050  1.00  0.00     0.267 A 
HETATM    9  O   UNL     1     -42.362  54.043 -55.205  1.00  0.00    -0.267 OA
HETATM   10  C   UNL     1     -39.710  52.190 -51.775  1.00  0.00     0.032 A 
HETATM   11  C   UNL     1     -39.344  51.109 -52.580  1.00  0.00     0.002 A 
ENDROOT
BRANCH   6  12
HETATM   12  S   UNL     1     -42.315  56.330 -50.692  1.00  0.00    -0.082 SA
BRANCH  12  13
HETATM   13  C   UNL     1     -40.966  57.542 -50.650  1.00  0.00     0.185 C 
BRANCH  13  14
HETATM   14  C   UNL     1     -41.485  58.976 -50.659  1.00  0.00     0.231 C 
HETATM   15  N   UNL     1     -42.807  59.081 -51.048  1.00  0.00    -0.326 N 
HETATM   16  H   UNL     1     -43.230  58.220 -51.390  1.00  0.00     0.169 HD
HETATM   17  O   UNL     1     -40.762  59.905 -50.308  1.00  0.00    -0.272 OA
BRANCH  15  18
HETATM   18  C   UNL     1     -43.618  60.233 -51.076  1.00  0.00     0.037 A 
HETATM   19  C   UNL     1     -44.639  60.482 -50.150  1.00  0.00     0.061 A 
HETATM   20  C   UNL     1     -45.378  61.631 -50.328  1.00  0.00     0.065 A 
HETATM   21  C   UNL     1     -45.135  62.524 -51.369  1.00  0.00     0.063 A 
HETATM   22  N   UNL     1     -46.449  62.121 -49.590  1.00  0.00    -0.306 N 
HETATM   23  N   UNL     1     -46.054  63.562 -51.270  1.00  0.00    -0.307 N 
HETATM   24  C   UNL     1     -44.137  62.319 -52.287  1.00  0.00     0.034 A 
HETATM   25  C   UNL     1     -46.883  63.323 -50.165  1.00  0.00     0.325 A 
HETATM   26  H   UNL     1     -46.143  64.362 -51.874  1.00  0.00     0.170 HD
HETATM   27  O   UNL     1     -47.804  64.024 -49.785  1.00  0.00    -0.247 OA
HETATM   28  C   UNL     1     -43.376  61.154 -52.130  1.00  0.00     0.032 A 
HETATM   29  H   UNL     1     -46.867  61.702 -48.774  1.00  0.00     0.170 HD
ENDBRANCH  15  18
ENDBRANCH  13  14
ENDBRANCH  12  13
ENDBRANCH   6  12
BRANCH   7  30
HETATM   30  C   UNL     1     -42.848  56.360 -53.728  1.00  0.00     0.046 A 
HETATM   31  C   UNL     1     -42.107  57.447 -54.216  1.00  0.00     0.055 A 
HETATM   32  C   UNL     1     -42.747  58.592 -54.706  1.00  0.00     0.058 A 
HETATM   33 CL   UNL     1     -41.755  59.874 -55.305  1.00  0.00    -0.082 Cl
HETATM   34  C   UNL     1     -44.143  58.669 -54.701  1.00  0.00     0.055 A 
HETATM   35 CL   UNL     1     -45.002  60.050 -55.279  1.00  0.00    -0.083 Cl
HETATM   36  C   UNL     1     -44.891  57.601 -54.202  1.00  0.00     0.028 A 
HETATM   37  C   UNL     1     -44.248  56.456 -53.716  1.00  0.00     0.032 A 
ENDBRANCH   7  30
TORSDOF 5
ENDMDL
MODEL 6
REMARK VINA RESULT:      -9.0      3.458      4.816
REMARK  5 active torsions:
REMARK  status: ('A' for Active; 'I' for Inactive)
REMARK    1  A    between atoms: C_6  and  S_7 
REMARK    2  A    between atoms: S_7  and  C_8 
REMARK    3  A    between atoms: C_8  and  C_9 
REMARK       I    between atoms: C_9  and  N_10 
REMARK    4  A    between atoms: N_10  and  C_11 
REMARK    5  A    between atoms: N_22  and  C_23 
ROOT
HETATM    1  C   UNL     1     -42.686  53.781 -52.185  1.00  0.00     0.001 A 
HETATM    2  C   UNL     1     -43.356  54.851 -51.592  1.00  0.00     0.019 A 
HETATM    3  C   UNL     1     -43.131  56.155 -52.054  1.00  0.00     0.061 A 
HETATM    4  C   UNL     1     -42.243  56.397 -53.095  1.00  0.00     0.075 A 
HETATM    5  N   UNL     1     -41.942  57.689 -53.530  1.00  0.00    -0.223 NA
HETATM    6  C   UNL     1     -42.608  58.685 -53.034  1.00  0.00     0.177 A 
HETATM    7  N   UNL     1     -43.614  58.555 -52.072  1.00  0.00    -0.256 N 
HETATM    8  C   UNL     1     -43.861  57.304 -51.489  1.00  0.00     0.267 A 
HETATM    9  O   UNL     1     -44.663  57.078 -50.585  1.00  0.00    -0.267 OA
HETATM   10  C   UNL     1     -41.587  55.317 -53.693  1.00  0.00     0.032 A 
HETATM   11  C   UNL     1     -41.806  54.014 -53.240  1.00  0.00     0.002 A 
ENDROOT
BRANCH   6  12
HETATM   12  S   UNL     1     -42.087  60.298 -53.517  1.00  0.00    -0.082 SA
BRANCH  12  13
HETATM   13  C   UNL     1     -43.075  60.608 -55.007  1.00  0.00     0.185 C 
BRANCH  13  14
HETATM   14  C   UNL     1     -42.752  59.620 -56.123  1.00  0.00     0.231 C 
HETATM   15  N   UNL     1     -43.691  58.615 -56.258  1.00  0.00    -0.326 N 
HETATM   16  H   UNL     1     -44.407  58.587 -55.534  1.00  0.00     0.169 HD
HETATM   17  O   UNL     1     -41.757  59.774 -56.826  1.00  0.00    -0.272 OA
BRANCH  15  18
HETATM   18  C   UNL     1     -43.751  57.604 -57.238  1.00  0.00     0.037 A 
HETATM   19  C   UNL     1     -44.365  57.771 -58.486  1.00  0.00     0.061 A 
HETATM   20  C   UNL     1     -44.382  56.680 -59.325  1.00  0.00     0.065 A 
HETATM   21  C   UNL     1     -43.815  55.456 -58.976  1.00  0.00     0.063 A 
HETATM   22  N   UNL     1     -44.929  56.546 -60.597  1.00  0.00    -0.306 N 
HETATM   23  N   UNL     1     -44.011  54.573 -60.031  1.00  0.00    -0.307 N 
HETATM   24  C   UNL     1     -43.196  55.259 -57.769  1.00  0.00     0.034 A 
HETATM   25  C   UNL     1     -44.708  55.239 -61.049  1.00  0.00     0.325 A 
HETATM   26  H   UNL     1     -43.723  53.611 -60.087  1.00  0.00     0.170 HD
HETATM   27  O   UNL     1     -45.056  54.766 -62.117  1.00  0.00    -0.247 OA
HETATM   28  C   UNL     1     -43.170  56.354 -56.895  1.00  0.00     0.032 A 
HETATM   29  H   UNL     1     -45.412  57.254 -61.128  1.00  0.00     0.170 HD
ENDBRANCH  15  18
ENDBRANCH  13  14
ENDBRANCH  12  13
ENDBRANCH   6  12
BRANCH   7  30
HETATM   30  C   UNL     1     -44.474  59.637 -51.682  1.00  0.00     0.046 A 
HETATM   31  C   UNL     1     -44.172  60.429 -50.563  1.00  0.00     0.055 A 
HETATM   32  C   UNL     1     -45.034  61.452 -50.152  1.00  0.00     0.058 A 
HETATM   33 CL   UNL     1     -44.572  62.389 -48.775  1.00  0.00    -0.082 Cl
HETATM   34  C   UNL     1     -46.222  61.688 -50.850  1.00  0.00     0.055 A 
HETATM   35 CL   UNL     1     -47.339  62.925 -50.397  1.00  0.00    -0.083 Cl
HETATM   36  C   UNL     1     -46.542  60.896 -51.955  1.00  0.00     0.028 A 
HETATM   37  C   UNL     1     -45.677  59.876 -52.366  1.00  0.00     0.032 A 
ENDBRANCH   7  30
TORSDOF 5
ENDMDL
MODEL 7
REMARK VINA RESULT:      -9.0      3.806      8.803
REMARK  5 active torsions:
REMARK  status: ('A' for Active; 'I' for Inactive)
REMARK    1  A    between atoms: C_6  and  S_7 
REMARK    2  A    between atoms: S_7  and  C_8 
REMARK    3  A    between atoms: C_8  and  C_9 
REMARK       I    between atoms: C_9  and  N_10 
REMARK    4  A    between atoms: N_10  and  C_11 
REMARK    5  A    between atoms: N_22  and  C_23 
ROOT
HETATM    1  C   UNL     1     -47.331  62.325 -53.397  1.00  0.00     0.001 A 
HETATM    2  C   UNL     1     -46.816  61.277 -52.635  1.00  0.00     0.019 A 
HETATM    3  C   UNL     1     -45.700  60.565 -53.096  1.00  0.00     0.061 A 
HETATM    4  C   UNL     1     -45.101  60.888 -54.307  1.00  0.00     0.075 A 
HETATM    5  N   UNL     1     -44.034  60.154 -54.828  1.00  0.00    -0.223 NA
HETATM    6  C   UNL     1     -43.503  59.223 -54.099  1.00  0.00     0.177 A 
HETATM    7  N   UNL     1     -43.938  58.889 -52.813  1.00  0.00    -0.256 N 
HETATM    8  C   UNL     1     -45.095  59.487 -52.294  1.00  0.00     0.267 A 
HETATM    9  O   UNL     1     -45.616  59.223 -51.212  1.00  0.00    -0.267 OA
HETATM   10  C   UNL     1     -45.616  61.951 -55.057  1.00  0.00     0.032 A 
HETATM   11  C   UNL     1     -46.727  62.667 -54.604  1.00  0.00     0.002 A 
ENDROOT
BRANCH   6  12
HETATM   12  S   UNL     1     -42.257  58.240 -54.865  1.00  0.00    -0.082 SA
BRANCH  12  13
HETATM   13  C   UNL     1     -43.217  56.913 -55.645  1.00  0.00     0.185 C 
BRANCH  13  14
HETATM   14  C   UNL     1     -42.982  55.565 -54.972  1.00  0.00     0.231 C 
HETATM   15  N   UNL     1     -41.644  55.259 -54.803  1.00  0.00    -0.326 N 
HETATM   16  H   UNL     1     -40.991  55.901 -55.248  1.00  0.00     0.169 HD
HETATM   17  O   UNL     1     -43.929  54.876 -54.603  1.00  0.00    -0.272 OA
BRANCH  15  18
HETATM   18  C   UNL     1     -41.081  54.151 -54.140  1.00  0.00     0.037 A 
HETATM   19  C   UNL     1     -40.908  52.896 -54.738  1.00  0.00     0.061 A 
HETATM   20  C   UNL     1     -40.382  51.896 -53.952  1.00  0.00     0.065 A 
HETATM   21  C   UNL     1     -40.024  52.098 -52.621  1.00  0.00     0.063 A 
HETATM   22  N   UNL     1     -40.120  50.566 -54.264  1.00  0.00    -0.306 N 
HETATM   23  N   UNL     1     -39.541  50.897 -52.116  1.00  0.00    -0.307 N 
HETATM   24  C   UNL     1     -40.168  53.315 -52.005  1.00  0.00     0.034 A 
HETATM   25  C   UNL     1     -39.598  49.930 -53.130  1.00  0.00     0.325 A 
HETATM   26  H   UNL     1     -39.206  50.713 -51.186  1.00  0.00     0.170 HD
HETATM   27  O   UNL     1     -39.261  48.763 -53.037  1.00  0.00    -0.247 OA
HETATM   28  C   UNL     1     -40.706  54.347 -52.784  1.00  0.00     0.032 A 
HETATM   29  H   UNL     1     -40.273  50.108 -55.148  1.00  0.00     0.170 HD
ENDBRANCH  15  18
ENDBRANCH  13  14
ENDBRANCH  12  13
ENDBRANCH   6  12
BRANCH   7  30
HETATM   30  C   UNL     1     -43.219  57.997 -51.946  1.00  0.00     0.046 A 
HETATM   31  C   UNL     1     -43.735  56.731 -51.628  1.00  0.00     0.055 A 
HETATM   32  C   UNL     1     -43.060  55.881 -50.744  1.00  0.00     0.058 A 
HETATM   33 CL   UNL     1     -43.760  54.333 -50.426  1.00  0.00    -0.082 Cl
HETATM   34  C   UNL     1     -41.862  56.294 -50.154  1.00  0.00     0.055 A 
HETATM   35 CL   UNL     1     -40.979  55.305 -49.048  1.00  0.00    -0.083 Cl
HETATM   36  C   UNL     1     -41.348  57.558 -50.450  1.00  0.00     0.028 A 
HETATM   37  C   UNL     1     -42.023  58.405 -51.336  1.00  0.00     0.032 A 
ENDBRANCH   7  30
TORSDOF 5
ENDMDL
MODEL 8
REMARK VINA RESULT:      -8.7      1.592      2.058
REMARK  5 active torsions:
REMARK  status: ('A' for Active; 'I' for Inactive)
REMARK    1  A    between atoms: C_6  and  S_7 
REMARK    2  A    between atoms: S_7  and  C_8 
REMARK    3  A    between atoms: C_8  and  C_9 
REMARK       I    between atoms: C_9  and  N_10 
REMARK    4  A    between atoms: N_10  and  C_11 
REMARK    5  A    between atoms: N_22  and  C_23 
ROOT
HETATM    1  C   UNL     1     -39.419  51.366 -52.163  1.00  0.00     0.001 A 
HETATM    2  C   UNL     1     -39.891  52.589 -51.688  1.00  0.00     0.019 A 
HETATM    3  C   UNL     1     -40.643  53.418 -52.531  1.00  0.00     0.061 A 
HETATM    4  C   UNL     1     -40.921  53.039 -53.838  1.00  0.00     0.075 A 
HETATM    5  N   UNL     1     -41.606  53.873 -54.725  1.00  0.00    -0.223 NA
HETATM    6  C   UNL     1     -42.108  54.981 -54.277  1.00  0.00     0.177 A 
HETATM    7  N   UNL     1     -42.002  55.411 -52.951  1.00  0.00    -0.256 N 
HETATM    8  C   UNL     1     -41.204  54.693 -52.049  1.00  0.00     0.267 A 
HETATM    9  O   UNL     1     -40.974  55.011 -50.883  1.00  0.00    -0.267 OA
HETATM   10  C   UNL     1     -40.456  51.804 -54.300  1.00  0.00     0.032 A 
HETATM   11  C   UNL     1     -39.707  50.970 -53.467  1.00  0.00     0.002 A 
ENDROOT
BRANCH   6  12
HETATM   12  S   UNL     1     -42.835  56.054 -55.471  1.00  0.00    -0.082 SA
BRANCH  12  13
HETATM   13  C   UNL     1     -43.035  54.971 -56.913  1.00  0.00     0.185 C 
BRANCH  13  14
HETATM   14  C   UNL     1     -43.332  55.760 -58.183  1.00  0.00     0.231 C 
HETATM   15  N   UNL     1     -43.147  57.123 -58.043  1.00  0.00    -0.326 N 
HETATM   16  H   UNL     1     -42.955  57.441 -57.094  1.00  0.00     0.169 HD
HETATM   17  O   UNL     1     -43.665  55.183 -59.215  1.00  0.00    -0.272 OA
BRANCH  15  18
HETATM   18  C   UNL     1     -43.239  58.122 -59.032  1.00  0.00     0.037 A 
HETATM   19  C   UNL     1     -44.418  58.415 -59.729  1.00  0.00     0.061 A 
HETATM   20  C   UNL     1     -44.345  59.390 -60.699  1.00  0.00     0.065 A 
HETATM   21  C   UNL     1     -43.166  60.073 -60.988  1.00  0.00     0.063 A 
HETATM   22  N   UNL     1     -45.334  59.872 -61.550  1.00  0.00    -0.306 N 
HETATM   23  N   UNL     1     -43.429  60.972 -62.014  1.00  0.00    -0.307 N 
HETATM   24  C   UNL     1     -41.995  59.820 -60.320  1.00  0.00     0.034 A 
HETATM   25  C   UNL     1     -44.778  60.856 -62.377  1.00  0.00     0.325 A 
HETATM   26  H   UNL     1     -42.785  61.610 -62.451  1.00  0.00     0.170 HD
HETATM   27  O   UNL     1     -45.352  61.489 -63.247  1.00  0.00    -0.247 OA
HETATM   28  C   UNL     1     -42.043  58.828 -59.332  1.00  0.00     0.032 A 
HETATM   29  H   UNL     1     -46.297  59.577 -61.590  1.00  0.00     0.170 HD
ENDBRANCH  15  18
ENDBRANCH  13  14
ENDBRANCH  12  13
ENDBRANCH   6  12
BRANCH   7  30
HETATM   30  C   UNL     1     -42.729  56.534 -52.428  1.00  0.00     0.046 A 
HETATM   31  C   UNL     1     -42.157  57.816 -52.410  1.00  0.00     0.055 A 
HETATM   32  C   UNL     1     -42.845  58.902 -51.855  1.00  0.00     0.058 A 
HETATM   33 CL   UNL     1     -42.071  60.447 -51.893  1.00  0.00    -0.082 Cl
HETATM   34  C   UNL     1     -44.112  58.716 -51.297  1.00  0.00     0.055 A 
HETATM   35 CL   UNL     1     -45.016  60.005 -50.586  1.00  0.00    -0.083 Cl
HETATM   36  C   UNL     1     -44.685  57.443 -51.294  1.00  0.00     0.028 A 
HETATM   37  C   UNL     1     -43.997  56.359 -51.852  1.00  0.00     0.032 A 
ENDBRANCH   7  30
TORSDOF 5
ENDMDL
MODEL 9
REMARK VINA RESULT:      -8.6      3.679      6.598
REMARK  5 active torsions:
REMARK  status: ('A' for Active; 'I' for Inactive)
REMARK    1  A    between atoms: C_6  and  S_7 
REMARK    2  A    between atoms: S_7  and  C_8 
REMARK    3  A    between atoms: C_8  and  C_9 
REMARK       I    between atoms: C_9  and  N_10 
REMARK    4  A    between atoms: N_10  and  C_11 
REMARK    5  A    between atoms: N_22  and  C_23 
ROOT
HETATM    1  C   UNL     1     -46.090  61.772 -49.315  1.00  0.00     0.001 A 
HETATM    2  C   UNL     1     -45.863  60.463 -49.738  1.00  0.00     0.019 A 
HETATM    3  C   UNL     1     -44.776  60.182 -50.577  1.00  0.00     0.061 A 
HETATM    4  C   UNL     1     -43.922  61.194 -50.997  1.00  0.00     0.075 A 
HETATM    5  N   UNL     1     -42.873  60.959 -51.889  1.00  0.00    -0.223 NA
HETATM    6  C   UNL     1     -42.611  59.738 -52.235  1.00  0.00     0.177 A 
HETATM    7  N   UNL     1     -43.321  58.623 -51.780  1.00  0.00    -0.256 N 
HETATM    8  C   UNL     1     -44.474  58.804 -51.001  1.00  0.00     0.267 A 
HETATM    9  O   UNL     1     -45.220  57.910 -50.606  1.00  0.00    -0.267 OA
HETATM   10  C   UNL     1     -44.148  62.501 -50.555  1.00  0.00     0.032 A 
HETATM   11  C   UNL     1     -45.228  62.791 -49.718  1.00  0.00     0.002 A 
ENDROOT
BRANCH   6  12
HETATM   12  S   UNL     1     -41.372  59.520 -53.470  1.00  0.00    -0.082 SA
BRANCH  12  13
HETATM   13  C   UNL     1     -42.126  60.284 -54.932  1.00  0.00     0.185 C 
BRANCH  13  14
HETATM   14  C   UNL     1     -43.001  59.302 -55.704  1.00  0.00     0.231 C 
HETATM   15  N   UNL     1     -42.322  58.623 -56.698  1.00  0.00    -0.326 N 
HETATM   16  H   UNL     1     -41.370  58.941 -56.872  1.00  0.00     0.169 HD
HETATM   17  O   UNL     1     -44.181  59.144 -55.401  1.00  0.00    -0.272 OA
BRANCH  15  18
HETATM   18  C   UNL     1     -42.798  57.587 -57.527  1.00  0.00     0.037 A 
HETATM   19  C   UNL     1     -43.285  57.796 -58.824  1.00  0.00     0.061 A 
HETATM   20  C   UNL     1     -43.756  56.692 -59.499  1.00  0.00     0.065 A 
HETATM   21  C   UNL     1     -43.753  55.415 -58.943  1.00  0.00     0.063 A 
HETATM   22  N   UNL     1     -44.307  56.599 -60.773  1.00  0.00    -0.306 N 
HETATM   23  N   UNL     1     -44.300  54.539 -59.873  1.00  0.00    -0.307 N 
HETATM   24  C   UNL     1     -43.275  55.171 -57.682  1.00  0.00     0.034 A 
HETATM   25  C   UNL     1     -44.654  55.264 -61.019  1.00  0.00     0.325 A 
HETATM   26  H   UNL     1     -44.440  53.548 -59.773  1.00  0.00     0.170 HD
HETATM   27  O   UNL     1     -45.166  54.817 -62.030  1.00  0.00    -0.247 OA
HETATM   28  C   UNL     1     -42.795  56.279 -56.972  1.00  0.00     0.032 A 
HETATM   29  H   UNL     1     -44.450  57.350 -61.429  1.00  0.00     0.170 HD
ENDBRANCH  15  18
ENDBRANCH  13  14
ENDBRANCH  12  13
ENDBRANCH   6  12
BRANCH   7  30
HETATM   30  C   UNL     1     -42.897  57.271 -52.013  1.00  0.00     0.046 A 
HETATM   31  C   UNL     1     -41.958  56.657 -51.170  1.00  0.00     0.055 A 
HETATM   32  C   UNL     1     -41.506  55.356 -51.424  1.00  0.00     0.058 A 
HETATM   33 CL   UNL     1     -40.363  54.672 -50.322  1.00  0.00    -0.082 Cl
HETATM   34  C   UNL     1     -41.979  54.657 -52.538  1.00  0.00     0.055 A 
HETATM   35 CL   UNL     1     -41.460  53.055 -52.921  1.00  0.00    -0.083 Cl
HETATM   36  C   UNL     1     -42.900  55.264 -53.393  1.00  0.00     0.028 A 
HETATM   37  C   UNL     1     -43.353  56.562 -53.135  1.00  0.00     0.032 A 
ENDBRANCH   7  30
TORSDOF 5
ENDMDL
MODEL 10
REMARK VINA RESULT:      -8.6      3.940      7.834
REMARK  5 active torsions:
REMARK  status: ('A' for Active; 'I' for Inactive)
REMARK    1  A    between atoms: C_6  and  S_7 
REMARK    2  A    between atoms: S_7  and  C_8 
REMARK    3  A    between atoms: C_8  and  C_9 
REMARK       I    between atoms: C_9  and  N_10 
REMARK    4  A    between atoms: N_10  and  C_11 
REMARK    5  A    between atoms: N_22  and  C_23 
ROOT
HETATM    1  C   UNL     1     -41.361  56.928 -50.011  1.00  0.00     0.001 A 
HETATM    2  C   UNL     1     -41.231  57.954 -50.947  1.00  0.00     0.019 A 
HETATM    3  C   UNL     1     -41.934  57.883 -52.157  1.00  0.00     0.061 A 
HETATM    4  C   UNL     1     -42.757  56.801 -52.439  1.00  0.00     0.075 A 
HETATM    5  N   UNL     1     -43.414  56.666 -53.664  1.00  0.00    -0.223 NA
HETATM    6  C   UNL     1     -43.356  57.643 -54.514  1.00  0.00     0.177 A 
HETATM    7  N   UNL     1     -42.662  58.836 -54.291  1.00  0.00    -0.256 N 
HETATM    8  C   UNL     1     -41.863  58.973 -53.147  1.00  0.00     0.267 A 
HETATM    9  O   UNL     1     -41.152  59.939 -52.879  1.00  0.00    -0.267 OA
HETATM   10  C   UNL     1     -42.893  55.785 -51.488  1.00  0.00     0.032 A 
HETATM   11  C   UNL     1     -42.197  55.847 -50.279  1.00  0.00     0.002 A 
ENDROOT
BRANCH   6  12
HETATM   12  S   UNL     1     -44.084  57.356 -56.093  1.00  0.00    -0.082 SA
BRANCH  12  13
HETATM   13  C   UNL     1     -42.861  56.295 -56.910  1.00  0.00     0.185 C 
BRANCH  13  14
HETATM   14  C   UNL     1     -42.632  54.994 -56.148  1.00  0.00     0.231 C 
HETATM   15  N   UNL     1     -41.390  54.918 -55.546  1.00  0.00    -0.326 N 
HETATM   16  H   UNL     1     -40.746  55.672 -55.779  1.00  0.00     0.169 HD
HETATM   17  O   UNL     1     -43.518  54.146 -56.079  1.00  0.00    -0.272 OA
BRANCH  15  18
HETATM   18  C   UNL     1     -40.894  53.910 -54.695  1.00  0.00     0.037 A 
HETATM   19  C   UNL     1     -40.689  52.586 -55.102  1.00  0.00     0.061 A 
HETATM   20  C   UNL     1     -40.239  51.701 -54.148  1.00  0.00     0.065 A 
HETATM   21  C   UNL     1     -39.984  52.083 -52.833  1.00  0.00     0.063 A 
HETATM   22  N   UNL     1     -39.968  50.341 -54.256  1.00  0.00    -0.306 N 
HETATM   23  N   UNL     1     -39.557  50.961 -52.133  1.00  0.00    -0.307 N 
HETATM   24  C   UNL     1     -40.162  53.372 -52.401  1.00  0.00     0.034 A 
HETATM   25  C   UNL     1     -39.545  49.865 -53.008  1.00  0.00     0.325 A 
HETATM   26  H   UNL     1     -39.298  50.904 -51.163  1.00  0.00     0.170 HD
HETATM   27  O   UNL     1     -39.230  48.721 -52.731  1.00  0.00    -0.247 OA
HETATM   28  C   UNL     1     -40.625  54.289 -53.353  1.00  0.00     0.032 A 
HETATM   29  H   UNL     1     -40.057  49.768 -55.079  1.00  0.00     0.170 HD
ENDBRANCH  15  18
ENDBRANCH  13  14
ENDBRANCH  12  13
ENDBRANCH   6  12
BRANCH   7  30
HETATM   30  C   UNL     1     -42.771  59.982 -55.151  1.00  0.00     0.046 A 
HETATM   31  C   UNL     1     -41.926  60.131 -56.262  1.00  0.00     0.055 A 
HETATM   32  C   UNL     1     -41.997  61.270 -57.072  1.00  0.00     0.058 A 
HETATM   33 CL   UNL     1     -40.930  61.360 -58.429  1.00  0.00    -0.082 Cl
HETATM   34  C   UNL     1     -42.910  62.285 -56.772  1.00  0.00     0.055 A 
HETATM   35 CL   UNL     1     -43.048  63.723 -57.719  1.00  0.00    -0.083 Cl
HETATM   36  C   UNL     1     -43.745  62.156 -55.661  1.00  0.00     0.028 A 
HETATM   37  C   UNL     1     -43.674  61.015 -54.854  1.00  0.00     0.032 A 
ENDBRANCH   7  30
TORSDOF 5
ENDMDL
