MODEL 1
REMARK VINA RESULT:      -9.8      0.000      0.000
REMARK  3 active torsions:
REMARK  status: ('A' for Active; 'I' for Inactive)
REMARK    1  A    between atoms: C_7  and  C_8 
REMARK       I    between atoms: C_8  and  N_9 
REMARK    2  A    between atoms: N_9  and  C_10 
REMARK    3  A    between atoms: C_17  and  C_18 
REMARK       I    between atoms: C_18  and  N_19 
ROOT
HETATM    1  C   UNL     1     -40.981  55.156 -54.825  1.00  0.00     0.258 C 
HETATM    2  N   UNL     1     -42.264  55.211 -55.347  1.00  0.00    -0.323 N 
HETATM    3  O   UNL     1     -40.059  55.903 -55.124  1.00  0.00    -0.267 OA
HETATM    4  H   UNL     1     -42.974  54.625 -54.933  1.00  0.00     0.169 HD
ENDROOT
BRANCH   2   5
HETATM    5  C   UNL     1     -42.704  55.993 -56.439  1.00  0.00     0.036 A 
HETATM    6  C   UNL     1     -43.225  55.445 -57.619  1.00  0.00     0.046 A 
HETATM    7  C   UNL     1     -43.724  56.305 -58.621  1.00  0.00     0.030 A 
HETATM    8  C   UNL     1     -43.639  57.679 -58.430  1.00  0.00     0.063 A 
HETATM    9  C   UNL     1     -44.380  56.149 -59.882  1.00  0.00     0.156 A 
HETATM   10  N   UNL     1     -44.174  58.237 -59.557  1.00  0.00    -0.277 N 
HETATM   11  C   UNL     1     -43.107  58.257 -57.277  1.00  0.00     0.034 A 
HETATM   12  H   UNL     1     -44.264  59.223 -59.770  1.00  0.00     0.189 HD
HETATM   13  N   UNL     1     -44.644  57.349 -60.448  1.00  0.00    -0.168 NA
HETATM   14  C   UNL     1     -42.663  57.384 -56.277  1.00  0.00     0.032 A 
BRANCH   9  15
HETATM   15  C   UNL     1     -44.783  54.895 -60.532  1.00  0.00     0.270 C 
HETATM   16  N   UNL     1     -45.055  53.878 -59.657  1.00  0.00    -0.365 N 
HETATM   17  H   UNL     1     -44.933  54.047 -58.666  1.00  0.00     0.159 HD
HETATM   18  H   UNL     1     -45.288  52.964 -60.012  1.00  0.00     0.159 HD
HETATM   19  O   UNL     1     -44.858  54.726 -61.743  1.00  0.00    -0.266 OA
ENDBRANCH   9  15
ENDBRANCH   2   5
BRANCH   1  20
HETATM   20  C   UNL     1     -40.750  54.083 -53.811  1.00  0.00     0.057 A 
HETATM   21  C   UNL     1     -40.841  54.345 -52.442  1.00  0.00     0.047 A 
HETATM   22  C   UNL     1     -41.239  55.685 -51.890  1.00  0.00     0.071 C 
HETATM   23  N   UNL     1     -40.567  53.399 -51.499  1.00  0.00    -0.252 NA
HETATM   24  C   UNL     1     -40.201  52.168 -51.884  1.00  0.00     0.070 A 
HETATM   25  C   UNL     1     -40.112  51.806 -53.244  1.00  0.00    -0.006 A 
HETATM   26  C   UNL     1     -39.894  51.218 -50.924  1.00  0.00     0.074 A 
HETATM   27  C   UNL     1     -40.410  52.782 -54.204  1.00  0.00     0.033 A 
HETATM   28  C   UNL     1     -39.721  50.503 -53.607  1.00  0.00     0.017 A 
HETATM   29  C   UNL     1     -39.411  49.569 -52.623  1.00  0.00     0.043 A 
HETATM   30  C   UNL     1     -39.500  49.936 -51.289  1.00  0.00     0.118 A 
HETATM   31  F   UNL     1     -39.199  49.042 -50.339  1.00  0.00    -0.206 F 
ENDBRANCH   1  20
TORSDOF 3
ENDMDL
MODEL 2
REMARK VINA RESULT:      -9.5      4.433      6.143
REMARK  3 active torsions:
REMARK  status: ('A' for Active; 'I' for Inactive)
REMARK    1  A    between atoms: C_7  and  C_8 
REMARK       I    between atoms: C_8  and  N_9 
REMARK    2  A    between atoms: N_9  and  C_10 
REMARK    3  A    between atoms: C_17  and  C_18 
REMARK       I    between atoms: C_18  and  N_19 
ROOT
HETATM    1  C   UNL     1     -41.819  56.069 -52.374  1.00  0.00     0.258 C 
HETATM    2  N   UNL     1     -43.188  56.174 -52.181  1.00  0.00    -0.323 N 
HETATM    3  O   UNL     1     -41.060  57.001 -52.605  1.00  0.00    -0.267 OA
HETATM    4  H   UNL     1     -43.691  55.355 -51.872  1.00  0.00     0.169 HD
ENDROOT
BRANCH   2   5
HETATM    5  C   UNL     1     -43.991  57.316 -52.397  1.00  0.00     0.036 A 
HETATM    6  C   UNL     1     -44.366  58.198 -51.374  1.00  0.00     0.046 A 
HETATM    7  C   UNL     1     -45.094  59.364 -51.697  1.00  0.00     0.030 A 
HETATM    8  C   UNL     1     -45.463  59.580 -53.019  1.00  0.00     0.063 A 
HETATM    9  C   UNL     1     -45.580  60.506 -50.988  1.00  0.00     0.156 A 
HETATM   10  N   UNL     1     -46.161  60.755 -53.015  1.00  0.00    -0.277 N 
HETATM   11  C   UNL     1     -45.124  58.712 -54.058  1.00  0.00     0.034 A 
HETATM   12  H   UNL     1     -46.594  61.215 -53.807  1.00  0.00     0.189 HD
HETATM   13  N   UNL     1     -46.240  61.350 -51.813  1.00  0.00    -0.168 NA
HETATM   14  C   UNL     1     -44.361  57.588 -53.721  1.00  0.00     0.032 A 
BRANCH   9  15
HETATM   15  C   UNL     1     -45.400  60.819 -49.564  1.00  0.00     0.270 C 
HETATM   16  N   UNL     1     -44.090  60.909 -49.176  1.00  0.00    -0.365 N 
HETATM   17  H   UNL     1     -43.369  60.730 -49.863  1.00  0.00     0.159 HD
HETATM   18  H   UNL     1     -43.868  61.067 -48.206  1.00  0.00     0.159 HD
HETATM   19  O   UNL     1     -46.312  60.969 -48.759  1.00  0.00    -0.266 OA
ENDBRANCH   9  15
ENDBRANCH   2   5
BRANCH   1  20
HETATM   20  C   UNL     1     -41.264  54.685 -52.276  1.00  0.00     0.057 A 
HETATM   21  C   UNL     1     -40.666  54.223 -51.101  1.00  0.00     0.047 A 
HETATM   22  C   UNL     1     -40.595  55.041 -49.842  1.00  0.00     0.071 C 
HETATM   23  N   UNL     1     -40.093  52.989 -51.011  1.00  0.00    -0.252 NA
HETATM   24  C   UNL     1     -40.100  52.177 -52.079  1.00  0.00     0.070 A 
HETATM   25  C   UNL     1     -40.707  52.549 -53.296  1.00  0.00    -0.006 A 
HETATM   26  C   UNL     1     -39.490  50.937 -51.994  1.00  0.00     0.074 A 
HETATM   27  C   UNL     1     -41.306  53.813 -53.372  1.00  0.00     0.033 A 
HETATM   28  C   UNL     1     -40.691  51.669 -54.395  1.00  0.00     0.017 A 
HETATM   29  C   UNL     1     -40.065  50.430 -54.286  1.00  0.00     0.043 A 
HETATM   30  C   UNL     1     -39.470  50.076 -53.085  1.00  0.00     0.118 A 
HETATM   31  F   UNL     1     -38.863  48.887 -52.977  1.00  0.00    -0.206 F 
ENDBRANCH   1  20
TORSDOF 3
ENDMDL
MODEL 3
REMARK VINA RESULT:      -9.3      4.296      6.127
REMARK  3 active torsions:
REMARK  status: ('A' for Active; 'I' for Inactive)
REMARK    1  A    between atoms: C_7  and  C_8 
REMARK       I    between atoms: C_8  and  N_9 
REMARK    2  A    between atoms: N_9  and  C_10 
REMARK    3  A    between atoms: C_17  and  C_18 
REMARK       I    between atoms: C_18  and  N_19 
ROOT
HETATM    1  C   UNL     1     -41.783  56.052 -53.041  1.00  0.00     0.258 C 
HETATM    2  N   UNL     1     -43.161  56.101 -52.896  1.00  0.00    -0.323 N 
HETATM    3  O   UNL     1     -41.032  57.019 -53.031  1.00  0.00    -0.267 OA
HETATM    4  H   UNL     1     -43.662  55.231 -52.793  1.00  0.00     0.169 HD
ENDROOT
BRANCH   2   5
HETATM    5  C   UNL     1     -43.974  57.256 -52.900  1.00  0.00     0.036 A 
HETATM    6  C   UNL     1     -44.344  57.943 -51.735  1.00  0.00     0.046 A 
HETATM    7  C   UNL     1     -45.084  59.140 -51.843  1.00  0.00     0.030 A 
HETATM    8  C   UNL     1     -45.471  59.580 -53.103  1.00  0.00     0.063 A 
HETATM    9  C   UNL     1     -45.570  60.137 -50.940  1.00  0.00     0.156 A 
HETATM   10  N   UNL     1     -46.177  60.730 -52.886  1.00  0.00    -0.277 N 
HETATM   11  C   UNL     1     -45.138  58.910 -54.280  1.00  0.00     0.034 A 
HETATM   12  H   UNL     1     -46.623  61.317 -53.581  1.00  0.00     0.189 HD
HETATM   13  N   UNL     1     -46.246  61.106 -51.598  1.00  0.00    -0.168 NA
HETATM   14  C   UNL     1     -44.363  57.751 -54.152  1.00  0.00     0.032 A 
BRANCH   9  15
HETATM   15  C   UNL     1     -45.375  60.198 -49.485  1.00  0.00     0.270 C 
HETATM   16  N   UNL     1     -44.330  60.994 -49.098  1.00  0.00    -0.365 N 
HETATM   17  H   UNL     1     -43.770  61.440 -49.814  1.00  0.00     0.159 HD
HETATM   18  H   UNL     1     -44.087  61.056 -48.122  1.00  0.00     0.159 HD
HETATM   19  O   UNL     1     -46.048  59.590 -48.662  1.00  0.00    -0.266 OA
ENDBRANCH   9  15
ENDBRANCH   2   5
BRANCH   1  20
HETATM   20  C   UNL     1     -41.207  54.685 -53.214  1.00  0.00     0.057 A 
HETATM   21  C   UNL     1     -41.092  54.098 -54.477  1.00  0.00     0.047 A 
HETATM   22  C   UNL     1     -41.468  54.809 -55.746  1.00  0.00     0.071 C 
HETATM   23  N   UNL     1     -40.634  52.826 -54.651  1.00  0.00    -0.252 NA
HETATM   24  C   UNL     1     -40.272  52.101 -53.582  1.00  0.00     0.070 A 
HETATM   25  C   UNL     1     -40.326  52.622 -52.273  1.00  0.00    -0.006 A 
HETATM   26  C   UNL     1     -39.836  50.799 -53.760  1.00  0.00     0.074 A 
HETATM   27  C   UNL     1     -40.785  53.936 -52.107  1.00  0.00     0.033 A 
HETATM   28  C   UNL     1     -39.939  51.828 -51.177  1.00  0.00     0.017 A 
HETATM   29  C   UNL     1     -39.511  50.520 -51.381  1.00  0.00     0.043 A 
HETATM   30  C   UNL     1     -39.463  50.017 -52.673  1.00  0.00     0.118 A 
HETATM   31  F   UNL     1     -39.056  48.758 -52.873  1.00  0.00    -0.206 F 
ENDBRANCH   1  20
TORSDOF 3
ENDMDL
MODEL 4
REMARK VINA RESULT:      -9.0      2.337      3.590
REMARK  3 active torsions:
REMARK  status: ('A' for Active; 'I' for Inactive)
REMARK    1  A    between atoms: C_7  and  C_8 
REMARK       I    between atoms: C_8  and  N_9 
REMARK    2  A    between atoms: N_9  and  C_10 
REMARK    3  A    between atoms: C_17  and  C_18 
REMARK       I    between atoms: C_18  and  N_19 
ROOT
HETATM    1  C   UNL     1     -42.730  55.683 -55.301  1.00  0.00     0.258 C 
HETATM    2  N   UNL     1     -42.082  55.888 -56.509  1.00  0.00    -0.323 N 
HETATM    3  O   UNL     1     -43.798  56.183 -54.973  1.00  0.00    -0.267 OA
HETATM    4  H   UNL     1     -41.271  55.324 -56.719  1.00  0.00     0.169 HD
ENDROOT
BRANCH   2   5
HETATM    5  C   UNL     1     -42.415  56.838 -57.501  1.00  0.00     0.036 A 
HETATM    6  C   UNL     1     -42.079  58.196 -57.410  1.00  0.00     0.046 A 
HETATM    7  C   UNL     1     -42.373  59.056 -58.491  1.00  0.00     0.030 A 
HETATM    8  C   UNL     1     -43.035  58.540 -59.598  1.00  0.00     0.063 A 
HETATM    9  C   UNL     1     -42.134  60.429 -58.811  1.00  0.00     0.156 A 
HETATM   10  N   UNL     1     -43.194  59.596 -60.451  1.00  0.00    -0.277 N 
HETATM   11  C   UNL     1     -43.403  57.199 -59.711  1.00  0.00     0.034 A 
HETATM   12  H   UNL     1     -43.650  59.591 -61.357  1.00  0.00     0.189 HD
HETATM   13  N   UNL     1     -42.652  60.746 -60.020  1.00  0.00    -0.168 NA
HETATM   14  C   UNL     1     -43.058  56.356 -58.648  1.00  0.00     0.032 A 
BRANCH   9  15
HETATM   15  C   UNL     1     -41.402  61.420 -58.012  1.00  0.00     0.270 C 
HETATM   16  N   UNL     1     -42.117  61.920 -56.956  1.00  0.00    -0.365 N 
HETATM   17  H   UNL     1     -43.071  61.606 -56.826  1.00  0.00     0.159 HD
HETATM   18  H   UNL     1     -41.716  62.645 -56.383  1.00  0.00     0.159 HD
HETATM   19  O   UNL     1     -40.265  61.809 -58.249  1.00  0.00    -0.266 OA
ENDBRANCH   9  15
ENDBRANCH   2   5
BRANCH   1  20
HETATM   20  C   UNL     1     -42.035  54.761 -54.352  1.00  0.00     0.057 A 
HETATM   21  C   UNL     1     -41.714  55.162 -53.053  1.00  0.00     0.047 A 
HETATM   22  C   UNL     1     -42.097  56.503 -52.492  1.00  0.00     0.071 C 
HETATM   23  N   UNL     1     -41.020  54.362 -52.194  1.00  0.00    -0.252 NA
HETATM   24  C   UNL     1     -40.629  53.143 -52.595  1.00  0.00     0.070 A 
HETATM   25  C   UNL     1     -40.935  52.645 -53.878  1.00  0.00    -0.006 A 
HETATM   26  C   UNL     1     -39.898  52.346 -51.730  1.00  0.00     0.074 A 
HETATM   27  C   UNL     1     -41.661  53.470 -54.747  1.00  0.00     0.033 A 
HETATM   28  C   UNL     1     -40.504  51.360 -54.262  1.00  0.00     0.017 A 
HETATM   29  C   UNL     1     -39.764  50.581 -53.377  1.00  0.00     0.043 A 
HETATM   30  C   UNL     1     -39.468  51.082 -52.118  1.00  0.00     0.118 A 
HETATM   31  F   UNL     1     -38.753  50.337 -51.266  1.00  0.00    -0.206 F 
ENDBRANCH   1  20
TORSDOF 3
ENDMDL
MODEL 5
REMARK VINA RESULT:      -8.9      2.830      3.514
REMARK  3 active torsions:
REMARK  status: ('A' for Active; 'I' for Inactive)
REMARK    1  A    between atoms: C_7  and  C_8 
REMARK       I    between atoms: C_8  and  N_9 
REMARK    2  A    between atoms: N_9  and  C_10 
REMARK    3  A    between atoms: C_17  and  C_18 
REMARK       I    between atoms: C_18  and  N_19 
ROOT
HETATM    1  C   UNL     1     -41.645  56.094 -52.859  1.00  0.00     0.258 C 
HETATM    2  N   UNL     1     -43.021  56.241 -52.920  1.00  0.00    -0.323 N 
HETATM    3  O   UNL     1     -40.827  56.995 -52.994  1.00  0.00    -0.267 OA
HETATM    4  H   UNL     1     -43.598  55.451 -52.668  1.00  0.00     0.169 HD
ENDROOT
BRANCH   2   5
HETATM    5  C   UNL     1     -43.736  57.389 -53.329  1.00  0.00     0.036 A 
HETATM    6  C   UNL     1     -43.971  57.712 -54.673  1.00  0.00     0.046 A 
HETATM    7  C   UNL     1     -44.773  58.831 -54.986  1.00  0.00     0.030 A 
HETATM    8  C   UNL     1     -45.268  59.613 -53.951  1.00  0.00     0.063 A 
HETATM    9  C   UNL     1     -45.292  59.426 -56.178  1.00  0.00     0.156 A 
HETATM   10  N   UNL     1     -45.975  60.613 -54.556  1.00  0.00    -0.277 N 
HETATM   11  C   UNL     1     -45.036  59.332 -52.604  1.00  0.00     0.034 A 
HETATM   12  H   UNL     1     -46.466  61.378 -54.107  1.00  0.00     0.189 HD
HETATM   13  N   UNL     1     -46.026  60.527 -55.896  1.00  0.00    -0.168 NA
HETATM   14  C   UNL     1     -44.278  58.191 -52.316  1.00  0.00     0.032 A 
BRANCH   9  15
HETATM   15  C   UNL     1     -45.131  58.952 -57.559  1.00  0.00     0.270 C 
HETATM   16  N   UNL     1     -45.778  57.774 -57.821  1.00  0.00    -0.365 N 
HETATM   17  H   UNL     1     -46.275  57.317 -57.067  1.00  0.00     0.159 HD
HETATM   18  H   UNL     1     -45.681  57.344 -58.728  1.00  0.00     0.159 HD
HETATM   19  O   UNL     1     -44.467  59.517 -58.421  1.00  0.00    -0.266 OA
ENDBRANCH   9  15
ENDBRANCH   2   5
BRANCH   1  20
HETATM   20  C   UNL     1     -41.161  54.705 -52.599  1.00  0.00     0.057 A 
HETATM   21  C   UNL     1     -40.697  54.321 -51.338  1.00  0.00     0.047 A 
HETATM   22  C   UNL     1     -40.709  55.237 -50.148  1.00  0.00     0.071 C 
HETATM   23  N   UNL     1     -40.188  53.079 -51.096  1.00  0.00    -0.252 NA
HETATM   24  C   UNL     1     -40.129  52.182 -52.093  1.00  0.00     0.070 A 
HETATM   25  C   UNL     1     -40.602  52.473 -53.388  1.00  0.00    -0.006 A 
HETATM   26  C   UNL     1     -39.583  50.933 -51.851  1.00  0.00     0.074 A 
HETATM   27  C   UNL     1     -41.137  53.747 -53.622  1.00  0.00     0.033 A 
HETATM   28  C   UNL     1     -40.521  51.505 -54.407  1.00  0.00     0.017 A 
HETATM   29  C   UNL     1     -39.961  50.259 -54.141  1.00  0.00     0.043 A 
HETATM   30  C   UNL     1     -39.497  49.984 -52.863  1.00  0.00     0.118 A 
HETATM   31  F   UNL     1     -38.954  48.788 -52.604  1.00  0.00    -0.206 F 
ENDBRANCH   1  20
TORSDOF 3
ENDMDL
MODEL 6
REMARK VINA RESULT:      -8.8      3.932      5.272
REMARK  3 active torsions:
REMARK  status: ('A' for Active; 'I' for Inactive)
REMARK    1  A    between atoms: C_7  and  C_8 
REMARK       I    between atoms: C_8  and  N_9 
REMARK    2  A    between atoms: N_9  and  C_10 
REMARK    3  A    between atoms: C_17  and  C_18 
REMARK       I    between atoms: C_18  and  N_19 
ROOT
HETATM    1  C   UNL     1     -41.892  56.396 -52.633  1.00  0.00     0.258 C 
HETATM    2  N   UNL     1     -43.267  56.433 -52.464  1.00  0.00    -0.323 N 
HETATM    3  O   UNL     1     -41.130  57.341 -52.476  1.00  0.00    -0.267 OA
HETATM    4  H   UNL     1     -43.777  55.563 -52.498  1.00  0.00     0.169 HD
ENDROOT
BRANCH   2   5
HETATM    5  C   UNL     1     -44.067  57.582 -52.272  1.00  0.00     0.036 A 
HETATM    6  C   UNL     1     -44.319  58.524 -53.279  1.00  0.00     0.046 A 
HETATM    7  C   UNL     1     -45.205  59.592 -53.023  1.00  0.00     0.030 A 
HETATM    8  C   UNL     1     -45.767  59.710 -51.757  1.00  0.00     0.063 A 
HETATM    9  C   UNL     1     -45.763  60.673 -53.775  1.00  0.00     0.156 A 
HETATM   10  N   UNL     1     -46.547  60.831 -51.808  1.00  0.00    -0.277 N 
HETATM   11  C   UNL     1     -45.521  58.803 -50.726  1.00  0.00     0.034 A 
HETATM   12  H   UNL     1     -47.099  61.230 -51.058  1.00  0.00     0.189 HD
HETATM   13  N   UNL     1     -46.583  61.429 -53.010  1.00  0.00    -0.168 NA
HETATM   14  C   UNL     1     -44.677  57.724 -51.018  1.00  0.00     0.032 A 
BRANCH   9  15
HETATM   15  C   UNL     1     -45.557  60.973 -55.198  1.00  0.00     0.270 C 
HETATM   16  N   UNL     1     -46.187  60.102 -56.046  1.00  0.00    -0.365 N 
HETATM   17  H   UNL     1     -46.702  59.327 -55.648  1.00  0.00     0.159 HD
HETATM   18  H   UNL     1     -46.059  60.197 -57.041  1.00  0.00     0.159 HD
HETATM   19  O   UNL     1     -44.873  61.894 -55.628  1.00  0.00    -0.266 OA
ENDBRANCH   9  15
ENDBRANCH   2   5
BRANCH   1  20
HETATM   20  C   UNL     1     -41.334  55.069 -53.032  1.00  0.00     0.057 A 
HETATM   21  C   UNL     1     -41.333  54.651 -54.366  1.00  0.00     0.047 A 
HETATM   22  C   UNL     1     -41.822  55.516 -55.494  1.00  0.00     0.071 C 
HETATM   23  N   UNL     1     -40.892  53.418 -54.744  1.00  0.00    -0.252 NA
HETATM   24  C   UNL     1     -40.435  52.565 -53.814  1.00  0.00     0.070 A 
HETATM   25  C   UNL     1     -40.371  52.913 -52.449  1.00  0.00    -0.006 A 
HETATM   26  C   UNL     1     -40.016  51.302 -54.198  1.00  0.00     0.074 A 
HETATM   27  C   UNL     1     -40.813  54.188 -52.074  1.00  0.00     0.033 A 
HETATM   28  C   UNL     1     -39.886  51.989 -51.504  1.00  0.00     0.017 A 
HETATM   29  C   UNL     1     -39.478  50.722 -51.913  1.00  0.00     0.043 A 
HETATM   30  C   UNL     1     -39.547  50.391 -53.258  1.00  0.00     0.118 A 
HETATM   31  F   UNL     1     -39.160  49.173 -53.656  1.00  0.00    -0.206 F 
ENDBRANCH   1  20
TORSDOF 3
ENDMDL
MODEL 7
REMARK VINA RESULT:      -8.8      2.007      2.700
REMARK  3 active torsions:
REMARK  status: ('A' for Active; 'I' for Inactive)
REMARK    1  A    between atoms: C_7  and  C_8 
REMARK       I    between atoms: C_8  and  N_9 
REMARK    2  A    between atoms: N_9  and  C_10 
REMARK    3  A    between atoms: C_17  and  C_18 
REMARK       I    between atoms: C_18  and  N_19 
ROOT
HETATM    1  C   UNL     1     -41.758  55.677 -55.295  1.00  0.00     0.258 C 
HETATM    2  N   UNL     1     -42.802  55.287 -56.119  1.00  0.00    -0.323 N 
HETATM    3  O   UNL     1     -41.202  56.767 -55.318  1.00  0.00    -0.267 OA
HETATM    4  H   UNL     1     -43.264  54.411 -55.924  1.00  0.00     0.169 HD
ENDROOT
BRANCH   2   5
HETATM    5  C   UNL     1     -43.296  55.979 -57.248  1.00  0.00     0.036 A 
HETATM    6  C   UNL     1     -44.023  57.174 -57.162  1.00  0.00     0.046 A 
HETATM    7  C   UNL     1     -44.398  57.843 -58.347  1.00  0.00     0.030 A 
HETATM    8  C   UNL     1     -44.079  57.270 -59.572  1.00  0.00     0.063 A 
HETATM    9  C   UNL     1     -45.050  59.073 -58.675  1.00  0.00     0.156 A 
HETATM   10  N   UNL     1     -44.581  58.122 -60.514  1.00  0.00    -0.277 N 
HETATM   11  C   UNL     1     -43.375  56.072 -59.693  1.00  0.00     0.034 A 
HETATM   12  H   UNL     1     -44.544  58.015 -61.521  1.00  0.00     0.189 HD
HETATM   13  N   UNL     1     -45.160  59.227 -60.014  1.00  0.00    -0.168 NA
HETATM   14  C   UNL     1     -42.971  55.451 -58.504  1.00  0.00     0.032 A 
BRANCH   9  15
HETATM   15  C   UNL     1     -45.533  60.105 -57.748  1.00  0.00     0.270 C 
HETATM   16  N   UNL     1     -46.602  59.713 -56.988  1.00  0.00    -0.365 N 
HETATM   17  H   UNL     1     -46.987  58.788 -57.135  1.00  0.00     0.159 HD
HETATM   18  H   UNL     1     -47.036  60.373 -56.361  1.00  0.00     0.159 HD
HETATM   19  O   UNL     1     -45.066  61.233 -57.651  1.00  0.00    -0.266 OA
ENDBRANCH   9  15
ENDBRANCH   2   5
BRANCH   1  20
HETATM   20  C   UNL     1     -41.308  54.651 -54.306  1.00  0.00     0.057 A 
HETATM   21  C   UNL     1     -41.160  54.961 -52.952  1.00  0.00     0.047 A 
HETATM   22  C   UNL     1     -41.501  56.308 -52.380  1.00  0.00     0.071 C 
HETATM   23  N   UNL     1     -40.686  54.060 -52.045  1.00  0.00    -0.252 NA
HETATM   24  C   UNL     1     -40.350  52.826 -52.452  1.00  0.00     0.070 A 
HETATM   25  C   UNL     1     -40.494  52.417 -53.793  1.00  0.00    -0.006 A 
HETATM   26  C   UNL     1     -39.839  51.924 -51.534  1.00  0.00     0.074 A 
HETATM   27  C   UNL     1     -40.996  53.346 -54.714  1.00  0.00     0.033 A 
HETATM   28  C   UNL     1     -40.128  51.114 -54.181  1.00  0.00     0.017 A 
HETATM   29  C   UNL     1     -39.610  50.227 -53.241  1.00  0.00     0.043 A 
HETATM   30  C   UNL     1     -39.471  50.641 -51.924  1.00  0.00     0.118 A 
HETATM   31  F   UNL     1     -38.970  49.793 -51.018  1.00  0.00    -0.206 F 
ENDBRANCH   1  20
TORSDOF 3
ENDMDL
MODEL 8
REMARK VINA RESULT:      -8.7      4.035      9.459
REMARK  3 active torsions:
REMARK  status: ('A' for Active; 'I' for Inactive)
REMARK    1  A    between atoms: C_7  and  C_8 
REMARK       I    between atoms: C_8  and  N_9 
REMARK    2  A    between atoms: N_9  and  C_10 
REMARK    3  A    between atoms: C_17  and  C_18 
REMARK       I    between atoms: C_18  and  N_19 
ROOT
HETATM    1  C   UNL     1     -42.419  56.389 -55.980  1.00  0.00     0.258 C 
HETATM    2  N   UNL     1     -41.162  55.977 -55.566  1.00  0.00    -0.323 N 
HETATM    3  O   UNL     1     -43.479  56.083 -55.447  1.00  0.00    -0.267 OA
HETATM    4  H   UNL     1     -40.354  56.394 -56.005  1.00  0.00     0.169 HD
ENDROOT
BRANCH   2   5
HETATM    5  C   UNL     1     -40.868  54.994 -54.594  1.00  0.00     0.036 A 
HETATM    6  C   UNL     1     -41.189  55.133 -53.236  1.00  0.00     0.046 A 
HETATM    7  C   UNL     1     -40.938  54.061 -52.353  1.00  0.00     0.030 A 
HETATM    8  C   UNL     1     -40.332  52.912 -52.845  1.00  0.00     0.063 A 
HETATM    9  C   UNL     1     -41.181  53.786 -50.971  1.00  0.00     0.156 A 
HETATM   10  N   UNL     1     -40.205  52.079 -51.770  1.00  0.00    -0.277 N 
HETATM   11  C   UNL     1     -39.981  52.750 -54.186  1.00  0.00     0.034 A 
HETATM   12  H   UNL     1     -39.792  51.153 -51.756  1.00  0.00     0.189 HD
HETATM   13  N   UNL     1     -40.717  52.563 -50.627  1.00  0.00    -0.168 NA
HETATM   14  C   UNL     1     -40.283  53.807 -55.053  1.00  0.00     0.032 A 
BRANCH   9  15
HETATM   15  C   UNL     1     -41.866  54.643 -49.994  1.00  0.00     0.270 C 
HETATM   16  N   UNL     1     -41.085  55.011 -48.932  1.00  0.00    -0.365 N 
HETATM   17  H   UNL     1     -40.138  54.655 -48.882  1.00  0.00     0.159 HD
HETATM   18  H   UNL     1     -41.485  55.555 -48.184  1.00  0.00     0.159 HD
HETATM   19  O   UNL     1     -43.036  54.998 -50.073  1.00  0.00    -0.266 OA
ENDBRANCH   9  15
ENDBRANCH   2   5
BRANCH   1  20
HETATM   20  C   UNL     1     -42.436  57.286 -57.174  1.00  0.00     0.057 A 
HETATM   21  C   UNL     1     -42.856  56.826 -58.424  1.00  0.00     0.047 A 
HETATM   22  C   UNL     1     -43.380  55.436 -58.650  1.00  0.00     0.071 C 
HETATM   23  N   UNL     1     -42.815  57.608 -59.541  1.00  0.00    -0.252 NA
HETATM   24  C   UNL     1     -42.363  58.867 -59.450  1.00  0.00     0.070 A 
HETATM   25  C   UNL     1     -41.947  59.425 -58.224  1.00  0.00    -0.006 A 
HETATM   26  C   UNL     1     -42.293  59.648 -60.592  1.00  0.00     0.074 A 
HETATM   27  C   UNL     1     -42.007  58.618 -57.080  1.00  0.00     0.033 A 
HETATM   28  C   UNL     1     -41.476  60.751 -58.171  1.00  0.00     0.017 A 
HETATM   29  C   UNL     1     -41.409  61.514 -59.334  1.00  0.00     0.043 A 
HETATM   30  C   UNL     1     -41.819  60.954 -60.535  1.00  0.00     0.118 A 
HETATM   31  F   UNL     1     -41.753  61.682 -61.656  1.00  0.00    -0.206 F 
ENDBRANCH   1  20
TORSDOF 3
ENDMDL
MODEL 9
REMARK VINA RESULT:      -8.7      5.477      6.522
REMARK  3 active torsions:
REMARK  status: ('A' for Active; 'I' for Inactive)
REMARK    1  A    between atoms: C_7  and  C_8 
REMARK       I    between atoms: C_8  and  N_9 
REMARK    2  A    between atoms: N_9  and  C_10 
REMARK    3  A    between atoms: C_17  and  C_18 
REMARK       I    between atoms: C_18  and  N_19 
ROOT
HETATM    1  C   UNL     1     -41.312  55.697 -50.302  1.00  0.00     0.258 C 
HETATM    2  N   UNL     1     -41.731  56.589 -51.277  1.00  0.00    -0.323 N 
HETATM    3  O   UNL     1     -41.254  55.931 -49.102  1.00  0.00    -0.267 OA
HETATM    4  H   UNL     1     -41.858  56.245 -52.218  1.00  0.00     0.169 HD
ENDROOT
BRANCH   2   5
HETATM    5  C   UNL     1     -41.984  57.970 -51.113  1.00  0.00     0.036 A 
HETATM    6  C   UNL     1     -43.227  58.562 -51.377  1.00  0.00     0.046 A 
HETATM    7  C   UNL     1     -43.414  59.933 -51.097  1.00  0.00     0.030 A 
HETATM    8  C   UNL     1     -42.342  60.672 -50.612  1.00  0.00     0.063 A 
HETATM    9  C   UNL     1     -44.505  60.856 -51.149  1.00  0.00     0.156 A 
HETATM   10  N   UNL     1     -42.817  61.945 -50.461  1.00  0.00    -0.277 N 
HETATM   11  C   UNL     1     -41.087  60.119 -50.358  1.00  0.00     0.034 A 
HETATM   12  H   UNL     1     -42.304  62.757 -50.138  1.00  0.00     0.189 HD
HETATM   13  N   UNL     1     -44.118  62.092 -50.759  1.00  0.00    -0.168 NA
HETATM   14  C   UNL     1     -40.938  58.747 -50.598  1.00  0.00     0.032 A 
BRANCH   9  15
HETATM   15  C   UNL     1     -45.897  60.577 -51.525  1.00  0.00     0.270 C 
HETATM   16  N   UNL     1     -46.366  61.365 -52.542  1.00  0.00    -0.365 N 
HETATM   17  H   UNL     1     -45.755  62.075 -52.925  1.00  0.00     0.159 HD
HETATM   18  H   UNL     1     -47.327  61.282 -52.833  1.00  0.00     0.159 HD
HETATM   19  O   UNL     1     -46.614  59.742 -50.988  1.00  0.00    -0.266 OA
ENDBRANCH   9  15
ENDBRANCH   2   5
BRANCH   1  20
HETATM   20  C   UNL     1     -40.914  54.346 -50.801  1.00  0.00     0.057 A 
HETATM   21  C   UNL     1     -40.492  53.343 -49.926  1.00  0.00     0.047 A 
HETATM   22  C   UNL     1     -40.470  53.515 -48.433  1.00  0.00     0.071 C 
HETATM   23  N   UNL     1     -40.060  52.126 -50.365  1.00  0.00    -0.252 NA
HETATM   24  C   UNL     1     -40.039  51.868 -51.681  1.00  0.00     0.070 A 
HETATM   25  C   UNL     1     -40.475  52.810 -52.635  1.00  0.00    -0.006 A 
HETATM   26  C   UNL     1     -39.570  50.643 -52.126  1.00  0.00     0.074 A 
HETATM   27  C   UNL     1     -40.930  54.052 -52.172  1.00  0.00     0.033 A 
HETATM   28  C   UNL     1     -40.434  52.501 -54.008  1.00  0.00     0.017 A 
HETATM   29  C   UNL     1     -39.952  51.265 -54.430  1.00  0.00     0.043 A 
HETATM   30  C   UNL     1     -39.524  50.347 -53.483  1.00  0.00     0.118 A 
HETATM   31  F   UNL     1     -39.057  49.158 -53.885  1.00  0.00    -0.206 F 
ENDBRANCH   1  20
TORSDOF 3
ENDMDL
MODEL 10
REMARK VINA RESULT:      -8.6      2.299      3.022
REMARK  3 active torsions:
REMARK  status: ('A' for Active; 'I' for Inactive)
REMARK    1  A    between atoms: C_7  and  C_8 
REMARK       I    between atoms: C_8  and  N_9 
REMARK    2  A    between atoms: N_9  and  C_10 
REMARK    3  A    between atoms: C_17  and  C_18 
REMARK       I    between atoms: C_18  and  N_19 
ROOT
HETATM    1  C   UNL     1     -41.579  55.970 -53.460  1.00  0.00     0.258 C 
HETATM    2  N   UNL     1     -42.941  55.980 -53.714  1.00  0.00    -0.323 N 
HETATM    3  O   UNL     1     -40.840  56.945 -53.504  1.00  0.00    -0.267 OA
HETATM    4  H   UNL     1     -43.469  55.140 -53.524  1.00  0.00     0.169 HD
ENDROOT
BRANCH   2   5
HETATM    5  C   UNL     1     -43.697  57.047 -54.248  1.00  0.00     0.036 A 
HETATM    6  C   UNL     1     -44.110  57.105 -55.587  1.00  0.00     0.046 A 
HETATM    7  C   UNL     1     -44.941  58.166 -56.009  1.00  0.00     0.030 A 
HETATM    8  C   UNL     1     -45.287  59.154 -55.096  1.00  0.00     0.063 A 
HETATM    9  C   UNL     1     -45.613  58.530 -57.218  1.00  0.00     0.156 A 
HETATM   10  N   UNL     1     -46.063  60.037 -55.791  1.00  0.00    -0.277 N 
HETATM   11  C   UNL     1     -44.876  59.137 -53.762  1.00  0.00     0.034 A 
HETATM   12  H   UNL     1     -46.484  60.891 -55.444  1.00  0.00     0.189 HD
HETATM   13  N   UNL     1     -46.295  59.688 -57.067  1.00  0.00    -0.168 NA
HETATM   14  C   UNL     1     -44.093  58.051 -53.354  1.00  0.00     0.032 A 
BRANCH   9  15
HETATM   15  C   UNL     1     -45.644  57.787 -58.484  1.00  0.00     0.270 C 
HETATM   16  N   UNL     1     -46.768  57.024 -58.654  1.00  0.00    -0.365 N 
HETATM   17  H   UNL     1     -47.454  57.002 -57.910  1.00  0.00     0.159 HD
HETATM   18  H   UNL     1     -46.852  56.437 -59.469  1.00  0.00     0.159 HD
HETATM   19  O   UNL     1     -44.755  57.803 -59.327  1.00  0.00    -0.266 OA
ENDBRANCH   9  15
ENDBRANCH   2   5
BRANCH   1  20
HETATM   20  C   UNL     1     -41.006  54.638 -53.099  1.00  0.00     0.057 A 
HETATM   21  C   UNL     1     -40.448  53.799 -54.068  1.00  0.00     0.047 A 
HETATM   22  C   UNL     1     -40.320  54.190 -55.513  1.00  0.00     0.071 C 
HETATM   23  N   UNL     1     -39.982  52.552 -53.772  1.00  0.00    -0.252 NA
HETATM   24  C   UNL     1     -40.051  52.103 -52.509  1.00  0.00     0.070 A 
HETATM   25  C   UNL     1     -40.570  52.892 -51.462  1.00  0.00    -0.006 A 
HETATM   26  C   UNL     1     -39.605  50.825 -52.218  1.00  0.00     0.074 A 
HETATM   27  C   UNL     1     -41.032  54.178 -51.776  1.00  0.00     0.033 A 
HETATM   28  C   UNL     1     -40.626  52.383 -50.151  1.00  0.00     0.017 A 
HETATM   29  C   UNL     1     -40.179  51.092 -49.885  1.00  0.00     0.043 A 
HETATM   30  C   UNL     1     -39.672  50.324 -50.923  1.00  0.00     0.118 A 
HETATM   31  F   UNL     1     -39.244  49.081 -50.672  1.00  0.00    -0.206 F 
ENDBRANCH   1  20
TORSDOF 3
ENDMDL
