MODEL 1
REMARK VINA RESULT:      -8.8      0.000      0.000
REMARK  4 active torsions:
REMARK  status: ('A' for Active; 'I' for Inactive)
REMARK    1  A    between atoms: C_2  and  C_3 
REMARK       I    between atoms: C_3  and  N_4 
REMARK    2  A    between atoms: N_4  and  C_5 
REMARK    3  A    between atoms: C_12  and  C_13 
REMARK       I    between atoms: C_13  and  N_14 
REMARK    4  A    between atoms: C_19  and  C_20 
ROOT
HETATM    1  C   UNL     1     -42.690  56.818 -56.049  1.00  0.00     0.036 A 
HETATM    2  C   UNL     1     -43.205  55.948 -57.020  1.00  0.00     0.046 A 
HETATM    3  C   UNL     1     -43.199  56.339 -58.377  1.00  0.00     0.030 A 
HETATM    4  C   UNL     1     -42.658  57.572 -58.717  1.00  0.00     0.063 A 
HETATM    5  N   UNL     1     -42.774  57.657 -60.077  1.00  0.00    -0.277 N 
HETATM    6  H   UNL     1     -42.472  58.419 -60.672  1.00  0.00     0.189 HD
HETATM    7  N   UNL     1     -43.373  56.602 -60.651  1.00  0.00    -0.168 NA
HETATM    8  C   UNL     1     -43.649  55.781 -59.612  1.00  0.00     0.156 A 
HETATM    9  C   UNL     1     -42.135  58.462 -57.777  1.00  0.00     0.034 A 
HETATM   10  C   UNL     1     -42.177  58.064 -56.436  1.00  0.00     0.032 A 
ENDROOT
BRANCH   1  11
HETATM   11  N   UNL     1     -42.673  56.521 -54.672  1.00  0.00    -0.323 N 
HETATM   12  C   UNL     1     -41.570  56.241 -53.896  1.00  0.00     0.251 C 
HETATM   13  O   UNL     1     -40.390  56.270 -54.212  1.00  0.00    -0.268 OA
HETATM   14  H   UNL     1     -43.561  56.560 -54.191  1.00  0.00     0.169 HD
BRANCH  12  15
HETATM   15  C   UNL     1     -41.951  55.949 -52.484  1.00  0.00     0.007 C 
HETATM   16  C   UNL     1     -42.526  57.115 -51.744  1.00  0.00     0.054 C 
HETATM   17  C   UNL     1     -41.761  54.734 -51.936  1.00  0.00     0.023 C 
BRANCH  17  18
HETATM   18  C   UNL     1     -41.129  53.572 -52.575  1.00  0.00    -0.035 A 
HETATM   19  C   UNL     1     -40.108  52.852 -51.941  1.00  0.00     0.013 A 
HETATM   20  C   UNL     1     -39.555  51.720 -52.546  1.00  0.00     0.024 A 
HETATM   21  C   UNL     1     -40.033  51.295 -53.782  1.00  0.00     0.034 A 
HETATM   22 CL   UNL     1     -39.364  49.895 -54.525  1.00  0.00    -0.084 Cl
HETATM   23  C   UNL     1     -41.059  51.991 -54.418  1.00  0.00     0.024 A 
HETATM   24  C   UNL     1     -41.610  53.125 -53.812  1.00  0.00     0.013 A 
ENDBRANCH  17  18
ENDBRANCH  12  15
ENDBRANCH   1  11
BRANCH   8  25
HETATM   25  C   UNL     1     -44.344  54.503 -59.819  1.00  0.00     0.270 C 
HETATM   26  N   UNL     1     -44.941  54.385 -61.045  1.00  0.00    -0.365 N 
HETATM   27  H   UNL     1     -44.885  55.166 -61.687  1.00  0.00     0.159 HD
HETATM   28  H   UNL     1     -45.476  53.559 -61.262  1.00  0.00     0.159 HD
HETATM   29  O   UNL     1     -44.422  53.605 -58.987  1.00  0.00    -0.266 OA
ENDBRANCH   8  25
TORSDOF 4
ENDMDL
MODEL 2
REMARK VINA RESULT:      -8.4      2.229      3.727
REMARK  4 active torsions:
REMARK  status: ('A' for Active; 'I' for Inactive)
REMARK    1  A    between atoms: C_2  and  C_3 
REMARK       I    between atoms: C_3  and  N_4 
REMARK    2  A    between atoms: N_4  and  C_5 
REMARK    3  A    between atoms: C_12  and  C_13 
REMARK       I    between atoms: C_13  and  N_14 
REMARK    4  A    between atoms: C_19  and  C_20 
ROOT
HETATM    1  C   UNL     1     -42.789  56.383 -52.381  1.00  0.00     0.036 A 
HETATM    2  C   UNL     1     -42.619  56.274 -53.767  1.00  0.00     0.046 A 
HETATM    3  C   UNL     1     -43.516  56.936 -54.633  1.00  0.00     0.030 A 
HETATM    4  C   UNL     1     -44.535  57.704 -54.083  1.00  0.00     0.063 A 
HETATM    5  N   UNL     1     -45.211  58.227 -55.150  1.00  0.00    -0.277 N 
HETATM    6  H   UNL     1     -46.012  58.848 -55.123  1.00  0.00     0.189 HD
HETATM    7  N   UNL     1     -44.745  57.842 -56.348  1.00  0.00    -0.168 NA
HETATM    8  C   UNL     1     -43.700  57.037 -56.045  1.00  0.00     0.156 A 
HETATM    9  C   UNL     1     -44.732  57.838 -52.707  1.00  0.00     0.034 A 
HETATM   10  C   UNL     1     -43.847  57.149 -51.870  1.00  0.00     0.032 A 
ENDROOT
BRANCH   1  11
HETATM   11  N   UNL     1     -41.956  55.742 -51.443  1.00  0.00    -0.323 N 
HETATM   12  C   UNL     1     -42.140  54.499 -50.882  1.00  0.00     0.251 C 
HETATM   13  O   UNL     1     -43.003  53.670 -51.133  1.00  0.00    -0.268 OA
HETATM   14  H   UNL     1     -41.108  56.229 -51.186  1.00  0.00     0.169 HD
BRANCH  12  15
HETATM   15  C   UNL     1     -41.060  54.170 -49.907  1.00  0.00     0.007 C 
HETATM   16  C   UNL     1     -41.038  55.039 -48.689  1.00  0.00     0.054 C 
HETATM   17  C   UNL     1     -40.174  53.183 -50.139  1.00  0.00     0.023 C 
BRANCH  17  18
HETATM   18  C   UNL     1     -40.085  52.348 -51.344  1.00  0.00    -0.035 A 
HETATM   19  C   UNL     1     -40.158  52.904 -52.629  1.00  0.00     0.013 A 
HETATM   20  C   UNL     1     -40.021  52.098 -53.761  1.00  0.00     0.024 A 
HETATM   21  C   UNL     1     -39.795  50.732 -53.613  1.00  0.00     0.034 A 
HETATM   22 CL   UNL     1     -39.615  49.737 -55.005  1.00  0.00    -0.084 Cl
HETATM   23  C   UNL     1     -39.704  50.167 -52.343  1.00  0.00     0.024 A 
HETATM   24  C   UNL     1     -39.844  50.975 -51.210  1.00  0.00     0.013 A 
ENDBRANCH  17  18
ENDBRANCH  12  15
ENDBRANCH   1  11
BRANCH   8  25
HETATM   25  C   UNL     1     -42.921  56.377 -57.102  1.00  0.00     0.270 C 
HETATM   26  N   UNL     1     -42.187  57.236 -57.874  1.00  0.00    -0.365 N 
HETATM   27  H   UNL     1     -42.250  58.230 -57.686  1.00  0.00     0.159 HD
HETATM   28  H   UNL     1     -41.653  56.878 -58.649  1.00  0.00     0.159 HD
HETATM   29  O   UNL     1     -42.916  55.169 -57.317  1.00  0.00    -0.266 OA
ENDBRANCH   8  25
TORSDOF 4
ENDMDL
MODEL 3
REMARK VINA RESULT:      -8.4      1.754      2.921
REMARK  4 active torsions:
REMARK  status: ('A' for Active; 'I' for Inactive)
REMARK    1  A    between atoms: C_2  and  C_3 
REMARK       I    between atoms: C_3  and  N_4 
REMARK    2  A    between atoms: N_4  and  C_5 
REMARK    3  A    between atoms: C_12  and  C_13 
REMARK       I    between atoms: C_13  and  N_14 
REMARK    4  A    between atoms: C_19  and  C_20 
ROOT
HETATM    1  C   UNL     1     -42.665  56.587 -55.909  1.00  0.00     0.036 A 
HETATM    2  C   UNL     1     -42.387  57.844 -56.460  1.00  0.00     0.046 A 
HETATM    3  C   UNL     1     -42.412  58.010 -57.862  1.00  0.00     0.030 A 
HETATM    4  C   UNL     1     -42.738  56.920 -58.660  1.00  0.00     0.063 A 
HETATM    5  N   UNL     1     -42.700  57.387 -59.945  1.00  0.00    -0.277 N 
HETATM    6  H   UNL     1     -42.896  56.867 -60.793  1.00  0.00     0.189 HD
HETATM    7  N   UNL     1     -42.346  58.677 -60.059  1.00  0.00    -0.168 NA
HETATM    8  C   UNL     1     -42.157  59.075 -58.779  1.00  0.00     0.156 A 
HETATM    9  C   UNL     1     -43.023  55.655 -58.145  1.00  0.00     0.034 A 
HETATM   10  C   UNL     1     -42.965  55.509 -56.754  1.00  0.00     0.032 A 
ENDROOT
BRANCH   1  11
HETATM   11  N   UNL     1     -42.645  56.324 -54.525  1.00  0.00    -0.323 N 
HETATM   12  C   UNL     1     -41.536  56.232 -53.713  1.00  0.00     0.251 C 
HETATM   13  O   UNL     1     -40.365  56.435 -53.998  1.00  0.00    -0.268 OA
HETATM   14  H   UNL     1     -43.543  56.237 -54.069  1.00  0.00     0.169 HD
BRANCH  12  15
HETATM   15  C   UNL     1     -41.911  55.915 -52.305  1.00  0.00     0.007 C 
HETATM   16  C   UNL     1     -42.491  57.065 -51.543  1.00  0.00     0.054 C 
HETATM   17  C   UNL     1     -41.711  54.692 -51.778  1.00  0.00     0.023 C 
BRANCH  17  18
HETATM   18  C   UNL     1     -41.074  53.545 -52.437  1.00  0.00    -0.035 A 
HETATM   19  C   UNL     1     -40.070  52.799 -51.804  1.00  0.00     0.013 A 
HETATM   20  C   UNL     1     -39.512  51.681 -52.431  1.00  0.00     0.024 A 
HETATM   21  C   UNL     1     -39.968  51.296 -53.689  1.00  0.00     0.034 A 
HETATM   22 CL   UNL     1     -39.292  49.914 -54.459  1.00  0.00    -0.084 Cl
HETATM   23  C   UNL     1     -40.976  52.019 -54.324  1.00  0.00     0.024 A 
HETATM   24  C   UNL     1     -41.532  53.138 -53.697  1.00  0.00     0.013 A 
ENDBRANCH  17  18
ENDBRANCH  12  15
ENDBRANCH   1  11
BRANCH   8  25
HETATM   25  C   UNL     1     -41.725  60.444 -58.467  1.00  0.00     0.270 C 
HETATM   26  N   UNL     1     -42.246  61.397 -59.300  1.00  0.00    -0.365 N 
HETATM   27  H   UNL     1     -42.849  61.100 -60.058  1.00  0.00     0.159 HD
HETATM   28  H   UNL     1     -41.974  62.361 -59.187  1.00  0.00     0.159 HD
HETATM   29  O   UNL     1     -40.955  60.746 -57.562  1.00  0.00    -0.266 OA
ENDBRANCH   8  25
TORSDOF 4
ENDMDL
MODEL 4
REMARK VINA RESULT:      -8.3      3.907      7.935
REMARK  4 active torsions:
REMARK  status: ('A' for Active; 'I' for Inactive)
REMARK    1  A    between atoms: C_2  and  C_3 
REMARK       I    between atoms: C_3  and  N_4 
REMARK    2  A    between atoms: N_4  and  C_5 
REMARK    3  A    between atoms: C_12  and  C_13 
REMARK       I    between atoms: C_13  and  N_14 
REMARK    4  A    between atoms: C_19  and  C_20 
ROOT
HETATM    1  C   UNL     1     -40.973  54.453 -54.076  1.00  0.00     0.036 A 
HETATM    2  C   UNL     1     -41.061  54.523 -52.680  1.00  0.00     0.046 A 
HETATM    3  C   UNL     1     -40.630  53.428 -51.900  1.00  0.00     0.030 A 
HETATM    4  C   UNL     1     -40.103  52.314 -52.541  1.00  0.00     0.063 A 
HETATM    5  N   UNL     1     -39.761  51.447 -51.541  1.00  0.00    -0.277 N 
HETATM    6  H   UNL     1     -39.336  50.532 -51.641  1.00  0.00     0.189 HD
HETATM    7  N   UNL     1     -40.049  51.882 -50.304  1.00  0.00    -0.168 NA
HETATM    8  C   UNL     1     -40.594  53.103 -50.509  1.00  0.00     0.156 A 
HETATM    9  C   UNL     1     -39.997  52.212 -53.930  1.00  0.00     0.034 A 
HETATM   10  C   UNL     1     -40.457  53.299 -54.682  1.00  0.00     0.032 A 
ENDROOT
BRANCH   1  11
HETATM   11  N   UNL     1     -41.396  55.488 -54.933  1.00  0.00    -0.323 N 
HETATM   12  C   UNL     1     -42.691  55.888 -55.176  1.00  0.00     0.251 C 
HETATM   13  O   UNL     1     -43.722  55.494 -54.649  1.00  0.00    -0.268 OA
HETATM   14  H   UNL     1     -40.669  56.024 -55.387  1.00  0.00     0.169 HD
BRANCH  12  15
HETATM   15  C   UNL     1     -42.746  57.001 -56.167  1.00  0.00     0.007 C 
HETATM   16  C   UNL     1     -42.861  56.558 -57.592  1.00  0.00     0.054 C 
HETATM   17  C   UNL     1     -42.672  58.291 -55.787  1.00  0.00     0.023 C 
BRANCH  17  18
HETATM   18  C   UNL     1     -42.477  58.794 -54.422  1.00  0.00    -0.035 A 
HETATM   19  C   UNL     1     -43.562  59.108 -53.593  1.00  0.00     0.013 A 
HETATM   20  C   UNL     1     -43.354  59.539 -52.280  1.00  0.00     0.024 A 
HETATM   21  C   UNL     1     -42.056  59.642 -51.785  1.00  0.00     0.034 A 
HETATM   22 CL   UNL     1     -41.795  60.161 -50.166  1.00  0.00    -0.084 Cl
HETATM   23  C   UNL     1     -40.967  59.318 -52.592  1.00  0.00     0.024 A 
HETATM   24  C   UNL     1     -41.178  58.890 -53.907  1.00  0.00     0.013 A 
ENDBRANCH  17  18
ENDBRANCH  12  15
ENDBRANCH   1  11
BRANCH   8  25
HETATM   25  C   UNL     1     -41.077  53.916 -49.385  1.00  0.00     0.270 C 
HETATM   26  N   UNL     1     -40.220  53.961 -48.319  1.00  0.00    -0.365 N 
HETATM   27  H   UNL     1     -39.358  53.431 -48.370  1.00  0.00     0.159 HD
HETATM   28  H   UNL     1     -40.485  54.462 -47.486  1.00  0.00     0.159 HD
HETATM   29  O   UNL     1     -42.154  54.502 -49.357  1.00  0.00    -0.266 OA
ENDBRANCH   8  25
TORSDOF 4
ENDMDL
MODEL 5
REMARK VINA RESULT:      -8.1      2.733      3.321
REMARK  4 active torsions:
REMARK  status: ('A' for Active; 'I' for Inactive)
REMARK    1  A    between atoms: C_2  and  C_3 
REMARK       I    between atoms: C_3  and  N_4 
REMARK    2  A    between atoms: N_4  and  C_5 
REMARK    3  A    between atoms: C_12  and  C_13 
REMARK       I    between atoms: C_13  and  N_14 
REMARK    4  A    between atoms: C_19  and  C_20 
ROOT
HETATM    1  C   UNL     1     -43.393  57.020 -57.379  1.00  0.00     0.036 A 
HETATM    2  C   UNL     1     -44.561  57.726 -57.693  1.00  0.00     0.046 A 
HETATM    3  C   UNL     1     -45.310  57.362 -58.833  1.00  0.00     0.030 A 
HETATM    4  C   UNL     1     -44.878  56.290 -59.604  1.00  0.00     0.063 A 
HETATM    5  N   UNL     1     -45.801  56.168 -60.605  1.00  0.00    -0.277 N 
HETATM    6  H   UNL     1     -45.810  55.481 -61.350  1.00  0.00     0.189 HD
HETATM    7  N   UNL     1     -46.779  57.087 -60.576  1.00  0.00    -0.168 NA
HETATM    8  C   UNL     1     -46.486  57.838 -59.489  1.00  0.00     0.156 A 
HETATM    9  C   UNL     1     -43.721  55.562 -59.319  1.00  0.00     0.034 A 
HETATM   10  C   UNL     1     -42.981  55.960 -58.200  1.00  0.00     0.032 A 
ENDROOT
BRANCH   1  11
HETATM   11  N   UNL     1     -42.574  57.325 -56.274  1.00  0.00    -0.323 N 
HETATM   12  C   UNL     1     -42.856  57.105 -54.945  1.00  0.00     0.251 C 
HETATM   13  O   UNL     1     -43.820  56.535 -54.455  1.00  0.00    -0.268 OA
HETATM   14  H   UNL     1     -41.661  57.708 -56.482  1.00  0.00     0.169 HD
BRANCH  12  15
HETATM   15  C   UNL     1     -41.755  57.587 -54.062  1.00  0.00     0.007 C 
HETATM   16  C   UNL     1     -41.728  59.069 -53.856  1.00  0.00     0.054 C 
HETATM   17  C   UNL     1     -40.856  56.740 -53.525  1.00  0.00     0.023 C 
BRANCH  17  18
HETATM   18  C   UNL     1     -40.771  55.291 -53.749  1.00  0.00    -0.035 A 
HETATM   19  C   UNL     1     -40.348  54.762 -54.976  1.00  0.00     0.013 A 
HETATM   20  C   UNL     1     -40.228  53.381 -55.151  1.00  0.00     0.024 A 
HETATM   21  C   UNL     1     -40.517  52.523 -54.093  1.00  0.00     0.034 A 
HETATM   22 CL   UNL     1     -40.360  50.823 -54.300  1.00  0.00    -0.084 Cl
HETATM   23  C   UNL     1     -40.924  53.035 -52.862  1.00  0.00     0.024 A 
HETATM   24  C   UNL     1     -41.046  54.418 -52.689  1.00  0.00     0.013 A 
ENDBRANCH  17  18
ENDBRANCH  12  15
ENDBRANCH   1  11
BRANCH   8  25
HETATM   25  C   UNL     1     -47.317  58.991 -59.117  1.00  0.00     0.270 C 
HETATM   26  N   UNL     1     -47.669  59.021 -57.795  1.00  0.00    -0.365 N 
HETATM   27  H   UNL     1     -47.365  58.263 -57.196  1.00  0.00     0.159 HD
HETATM   28  H   UNL     1     -48.273  59.754 -57.457  1.00  0.00     0.159 HD
HETATM   29  O   UNL     1     -47.698  59.859 -59.895  1.00  0.00    -0.266 OA
ENDBRANCH   8  25
TORSDOF 4
ENDMDL
MODEL 6
REMARK VINA RESULT:      -8.0      3.432      7.650
REMARK  4 active torsions:
REMARK  status: ('A' for Active; 'I' for Inactive)
REMARK    1  A    between atoms: C_2  and  C_3 
REMARK       I    between atoms: C_3  and  N_4 
REMARK    2  A    between atoms: N_4  and  C_5 
REMARK    3  A    between atoms: C_12  and  C_13 
REMARK       I    between atoms: C_13  and  N_14 
REMARK    4  A    between atoms: C_19  and  C_20 
ROOT
HETATM    1  C   UNL     1     -41.017  55.584 -54.192  1.00  0.00     0.036 A 
HETATM    2  C   UNL     1     -41.027  55.348 -52.811  1.00  0.00     0.046 A 
HETATM    3  C   UNL     1     -40.691  54.067 -52.322  1.00  0.00     0.030 A 
HETATM    4  C   UNL     1     -40.333  53.076 -53.227  1.00  0.00     0.063 A 
HETATM    5  N   UNL     1     -40.047  51.976 -52.467  1.00  0.00    -0.277 N 
HETATM    6  H   UNL     1     -39.740  51.067 -52.795  1.00  0.00     0.189 HD
HETATM    7  N   UNL     1     -40.219  52.151 -51.148  1.00  0.00    -0.168 NA
HETATM    8  C   UNL     1     -40.624  53.438 -51.042  1.00  0.00     0.156 A 
HETATM    9  C   UNL     1     -40.310  53.277 -54.609  1.00  0.00     0.034 A 
HETATM   10  C   UNL     1     -40.674  54.546 -55.071  1.00  0.00     0.032 A 
ENDROOT
BRANCH   1  11
HETATM   11  N   UNL     1     -41.357  56.823 -54.771  1.00  0.00    -0.323 N 
HETATM   12  C   UNL     1     -42.599  57.222 -55.209  1.00  0.00     0.251 C 
HETATM   13  O   UNL     1     -43.666  56.631 -55.117  1.00  0.00    -0.268 OA
HETATM   14  H   UNL     1     -40.618  57.510 -54.831  1.00  0.00     0.169 HD
BRANCH  12  15
HETATM   15  C   UNL     1     -42.563  58.595 -55.789  1.00  0.00     0.007 C 
HETATM   16  C   UNL     1     -42.181  59.668 -54.818  1.00  0.00     0.054 C 
HETATM   17  C   UNL     1     -42.876  58.829 -57.078  1.00  0.00     0.023 C 
BRANCH  17  18
HETATM   18  C   UNL     1     -43.337  57.841 -58.062  1.00  0.00    -0.035 A 
HETATM   19  C   UNL     1     -42.453  56.929 -58.656  1.00  0.00     0.013 A 
HETATM   20  C   UNL     1     -42.922  55.966 -59.552  1.00  0.00     0.024 A 
HETATM   21  C   UNL     1     -44.282  55.900 -59.847  1.00  0.00     0.034 A 
HETATM   22 CL   UNL     1     -44.865  54.708 -60.941  1.00  0.00    -0.084 Cl
HETATM   23  C   UNL     1     -45.175  56.789 -59.252  1.00  0.00     0.024 A 
HETATM   24  C   UNL     1     -44.703  57.755 -58.357  1.00  0.00     0.013 A 
ENDBRANCH  17  18
ENDBRANCH  12  15
ENDBRANCH   1  11
BRANCH   8  25
HETATM   25  C   UNL     1     -40.950  54.025 -49.735  1.00  0.00     0.270 C 
HETATM   26  N   UNL     1     -39.891  54.084 -48.869  1.00  0.00    -0.365 N 
HETATM   27  H   UNL     1     -38.999  53.710 -49.171  1.00  0.00     0.159 HD
HETATM   28  H   UNL     1     -40.030  54.434 -47.935  1.00  0.00     0.159 HD
HETATM   29  O   UNL     1     -42.063  54.421 -49.403  1.00  0.00    -0.266 OA
ENDBRANCH   8  25
TORSDOF 4
ENDMDL
MODEL 7
REMARK VINA RESULT:      -8.0      2.356      2.780
REMARK  4 active torsions:
REMARK  status: ('A' for Active; 'I' for Inactive)
REMARK    1  A    between atoms: C_2  and  C_3 
REMARK       I    between atoms: C_3  and  N_4 
REMARK    2  A    between atoms: N_4  and  C_5 
REMARK    3  A    between atoms: C_12  and  C_13 
REMARK       I    between atoms: C_13  and  N_14 
REMARK    4  A    between atoms: C_19  and  C_20 
ROOT
HETATM    1  C   UNL     1     -44.079  58.191 -56.795  1.00  0.00     0.036 A 
HETATM    2  C   UNL     1     -44.092  57.229 -57.813  1.00  0.00     0.046 A 
HETATM    3  C   UNL     1     -45.187  57.173 -58.703  1.00  0.00     0.030 A 
HETATM    4  C   UNL     1     -46.215  58.096 -58.559  1.00  0.00     0.063 A 
HETATM    5  N   UNL     1     -47.103  57.809 -59.559  1.00  0.00    -0.277 N 
HETATM    6  H   UNL     1     -47.971  58.290 -59.765  1.00  0.00     0.189 HD
HETATM    7  N   UNL     1     -46.761  56.759 -60.323  1.00  0.00    -0.168 NA
HETATM    8  C   UNL     1     -45.582  56.350 -59.801  1.00  0.00     0.156 A 
HETATM    9  C   UNL     1     -46.233  59.069 -57.559  1.00  0.00     0.034 A 
HETATM   10  C   UNL     1     -45.151  59.087 -56.672  1.00  0.00     0.032 A 
ENDROOT
BRANCH   1  11
HETATM   11  N   UNL     1     -43.040  58.308 -55.851  1.00  0.00    -0.323 N 
HETATM   12  C   UNL     1     -42.931  57.647 -54.648  1.00  0.00     0.251 C 
HETATM   13  O   UNL     1     -43.656  56.775 -54.190  1.00  0.00    -0.268 OA
HETATM   14  H   UNL     1     -42.267  58.910 -56.102  1.00  0.00     0.169 HD
BRANCH  12  15
HETATM   15  C   UNL     1     -41.702  58.051 -53.907  1.00  0.00     0.007 C 
HETATM   16  C   UNL     1     -41.564  59.526 -53.694  1.00  0.00     0.054 C 
HETATM   17  C   UNL     1     -40.795  57.146 -53.494  1.00  0.00     0.023 C 
BRANCH  17  18
HETATM   18  C   UNL     1     -40.824  55.699 -53.738  1.00  0.00    -0.035 A 
HETATM   19  C   UNL     1     -40.341  55.146 -54.932  1.00  0.00     0.013 A 
HETATM   20  C   UNL     1     -40.334  53.762 -55.124  1.00  0.00     0.024 A 
HETATM   21  C   UNL     1     -40.796  52.923 -54.113  1.00  0.00     0.034 A 
HETATM   22 CL   UNL     1     -40.778  51.218 -54.339  1.00  0.00    -0.084 Cl
HETATM   23  C   UNL     1     -41.264  53.456 -52.914  1.00  0.00     0.024 A 
HETATM   24  C   UNL     1     -41.273  54.842 -52.725  1.00  0.00     0.013 A 
ENDBRANCH  17  18
ENDBRANCH  12  15
ENDBRANCH   1  11
BRANCH   8  25
HETATM   25  C   UNL     1     -44.875  55.183 -60.348  1.00  0.00     0.270 C 
HETATM   26  N   UNL     1     -44.571  54.228 -59.416  1.00  0.00    -0.365 N 
HETATM   27  H   UNL     1     -44.822  54.398 -58.450  1.00  0.00     0.159 HD
HETATM   28  H   UNL     1     -44.050  53.410 -59.692  1.00  0.00     0.159 HD
HETATM   29  O   UNL     1     -44.552  55.048 -61.524  1.00  0.00    -0.266 OA
ENDBRANCH   8  25
TORSDOF 4
ENDMDL
MODEL 8
REMARK VINA RESULT:      -8.0      4.316      7.412
REMARK  4 active torsions:
REMARK  status: ('A' for Active; 'I' for Inactive)
REMARK    1  A    between atoms: C_2  and  C_3 
REMARK       I    between atoms: C_3  and  N_4 
REMARK    2  A    between atoms: N_4  and  C_5 
REMARK    3  A    between atoms: C_12  and  C_13 
REMARK       I    between atoms: C_13  and  N_14 
REMARK    4  A    between atoms: C_19  and  C_20 
ROOT
HETATM    1  C   UNL     1     -40.696  54.528 -53.220  1.00  0.00     0.036 A 
HETATM    2  C   UNL     1     -40.399  53.466 -52.356  1.00  0.00     0.046 A 
HETATM    3  C   UNL     1     -40.137  52.186 -52.890  1.00  0.00     0.030 A 
HETATM    4  C   UNL     1     -40.155  52.019 -54.269  1.00  0.00     0.063 A 
HETATM    5  N   UNL     1     -39.848  50.703 -54.480  1.00  0.00    -0.277 N 
HETATM    6  H   UNL     1     -39.762  50.229 -55.371  1.00  0.00     0.189 HD
HETATM    7  N   UNL     1     -39.664  49.988 -53.359  1.00  0.00    -0.168 NA
HETATM    8  C   UNL     1     -39.846  50.890 -52.366  1.00  0.00     0.156 A 
HETATM    9  C   UNL     1     -40.444  53.054 -55.160  1.00  0.00     0.034 A 
HETATM   10  C   UNL     1     -40.729  54.307 -54.605  1.00  0.00     0.032 A 
ENDROOT
BRANCH   1  11
HETATM   11  N   UNL     1     -40.991  55.832 -52.776  1.00  0.00    -0.323 N 
HETATM   12  C   UNL     1     -42.212  56.312 -52.361  1.00  0.00     0.251 C 
HETATM   13  O   UNL     1     -43.261  55.701 -52.214  1.00  0.00    -0.268 OA
HETATM   14  H   UNL     1     -40.212  56.474 -52.714  1.00  0.00     0.169 HD
BRANCH  12  15
HETATM   15  C   UNL     1     -42.139  57.755 -51.989  1.00  0.00     0.007 C 
HETATM   16  C   UNL     1     -41.565  58.016 -50.631  1.00  0.00     0.054 C 
HETATM   17  C   UNL     1     -42.580  58.722 -52.814  1.00  0.00     0.023 C 
BRANCH  17  18
HETATM   18  C   UNL     1     -43.227  58.535 -54.119  1.00  0.00    -0.035 A 
HETATM   19  C   UNL     1     -42.478  58.381 -55.294  1.00  0.00     0.013 A 
HETATM   20  C   UNL     1     -43.113  58.155 -56.518  1.00  0.00     0.024 A 
HETATM   21  C   UNL     1     -44.502  58.066 -56.569  1.00  0.00     0.034 A 
HETATM   22 CL   UNL     1     -45.287  57.775 -58.072  1.00  0.00    -0.084 Cl
HETATM   23  C   UNL     1     -45.259  58.200 -55.407  1.00  0.00     0.024 A 
HETATM   24  C   UNL     1     -44.622  58.429 -54.183  1.00  0.00     0.013 A 
ENDBRANCH  17  18
ENDBRANCH  12  15
ENDBRANCH   1  11
BRANCH   8  25
HETATM   25  C   UNL     1     -39.756  50.492 -50.955  1.00  0.00     0.270 C 
HETATM   26  N   UNL     1     -39.001  49.371 -50.738  1.00  0.00    -0.365 N 
HETATM   27  H   UNL     1     -38.595  48.899 -51.537  1.00  0.00     0.159 HD
HETATM   28  H   UNL     1     -38.915  49.000 -49.805  1.00  0.00     0.159 HD
HETATM   29  O   UNL     1     -40.307  51.074 -50.026  1.00  0.00    -0.266 OA
ENDBRANCH   8  25
TORSDOF 4
ENDMDL
MODEL 9
REMARK VINA RESULT:      -7.9      3.820      7.359
REMARK  4 active torsions:
REMARK  status: ('A' for Active; 'I' for Inactive)
REMARK    1  A    between atoms: C_2  and  C_3 
REMARK       I    between atoms: C_3  and  N_4 
REMARK    2  A    between atoms: N_4  and  C_5 
REMARK    3  A    between atoms: C_12  and  C_13 
REMARK       I    between atoms: C_13  and  N_14 
REMARK    4  A    between atoms: C_19  and  C_20 
ROOT
HETATM    1  C   UNL     1     -41.590  55.124 -53.703  1.00  0.00     0.036 A 
HETATM    2  C   UNL     1     -41.289  54.370 -52.561  1.00  0.00     0.046 A 
HETATM    3  C   UNL     1     -40.532  53.185 -52.690  1.00  0.00     0.030 A 
HETATM    4  C   UNL     1     -40.081  52.811 -53.949  1.00  0.00     0.063 A 
HETATM    5  N   UNL     1     -39.373  51.658 -53.754  1.00  0.00    -0.277 N 
HETATM    6  H   UNL     1     -38.891  51.108 -54.455  1.00  0.00     0.189 HD
HETATM    7  N   UNL     1     -39.349  51.228 -52.483  1.00  0.00    -0.168 NA
HETATM    8  C   UNL     1     -40.068  52.158 -51.813  1.00  0.00     0.156 A 
HETATM    9  C   UNL     1     -40.360  53.540 -55.107  1.00  0.00     0.034 A 
HETATM   10  C   UNL     1     -41.136  54.695 -54.958  1.00  0.00     0.032 A 
ENDROOT
BRANCH   1  11
HETATM   11  N   UNL     1     -42.355  56.307 -53.673  1.00  0.00    -0.323 N 
HETATM   12  C   UNL     1     -41.885  57.599 -53.593  1.00  0.00     0.251 C 
HETATM   13  O   UNL     1     -40.727  57.991 -53.614  1.00  0.00    -0.268 OA
HETATM   14  H   UNL     1     -43.356  56.199 -53.763  1.00  0.00     0.169 HD
BRANCH  12  15
HETATM   15  C   UNL     1     -43.000  58.588 -53.557  1.00  0.00     0.007 C 
HETATM   16  C   UNL     1     -43.499  58.911 -52.183  1.00  0.00     0.054 C 
HETATM   17  C   UNL     1     -43.516  59.116 -54.684  1.00  0.00     0.023 C 
BRANCH  17  18
HETATM   18  C   UNL     1     -43.134  58.785 -56.062  1.00  0.00    -0.035 A 
HETATM   19  C   UNL     1     -42.171  59.530 -56.756  1.00  0.00     0.013 A 
HETATM   20  C   UNL     1     -41.787  59.167 -58.050  1.00  0.00     0.024 A 
HETATM   21  C   UNL     1     -42.355  58.047 -58.650  1.00  0.00     0.034 A 
HETATM   22 CL   UNL     1     -41.877  57.590 -60.238  1.00  0.00    -0.084 Cl
HETATM   23  C   UNL     1     -43.302  57.286 -57.967  1.00  0.00     0.024 A 
HETATM   24  C   UNL     1     -43.687  57.652 -56.673  1.00  0.00     0.013 A 
ENDBRANCH  17  18
ENDBRANCH  12  15
ENDBRANCH   1  11
BRANCH   8  25
HETATM   25  C   UNL     1     -40.306  52.037 -50.368  1.00  0.00     0.270 C 
HETATM   26  N   UNL     1     -40.375  50.745 -49.921  1.00  0.00    -0.365 N 
HETATM   27  H   UNL     1     -40.285  49.994 -50.595  1.00  0.00     0.159 HD
HETATM   28  H   UNL     1     -40.576  50.563 -48.950  1.00  0.00     0.159 HD
HETATM   29  O   UNL     1     -40.455  52.982 -49.600  1.00  0.00    -0.266 OA
ENDBRANCH   8  25
TORSDOF 4
ENDMDL
MODEL 10
REMARK VINA RESULT:      -7.7      3.618      6.952
REMARK  4 active torsions:
REMARK  status: ('A' for Active; 'I' for Inactive)
REMARK    1  A    between atoms: C_2  and  C_3 
REMARK       I    between atoms: C_3  and  N_4 
REMARK    2  A    between atoms: N_4  and  C_5 
REMARK    3  A    between atoms: C_12  and  C_13 
REMARK       I    between atoms: C_13  and  N_14 
REMARK    4  A    between atoms: C_19  and  C_20 
ROOT
HETATM    1  C   UNL     1     -41.862  57.035 -52.247  1.00  0.00     0.036 A 
HETATM    2  C   UNL     1     -41.581  55.873 -52.978  1.00  0.00     0.046 A 
HETATM    3  C   UNL     1     -41.017  54.758 -52.322  1.00  0.00     0.030 A 
HETATM    4  C   UNL     1     -40.778  54.834 -50.955  1.00  0.00     0.063 A 
HETATM    5  N   UNL     1     -40.260  53.617 -50.608  1.00  0.00    -0.277 N 
HETATM    6  H   UNL     1     -39.978  53.312 -49.684  1.00  0.00     0.189 HD
HETATM    7  N   UNL     1     -40.108  52.764 -51.633  1.00  0.00    -0.168 NA
HETATM    8  C   UNL     1     -40.565  53.457 -52.702  1.00  0.00     0.156 A 
HETATM    9  C   UNL     1     -41.049  55.974 -50.196  1.00  0.00     0.034 A 
HETATM   10  C   UNL     1     -41.581  57.076 -50.874  1.00  0.00     0.032 A 
ENDROOT
BRANCH   1  11
HETATM   11  N   UNL     1     -42.406  58.201 -52.822  1.00  0.00    -0.323 N 
HETATM   12  C   UNL     1     -41.718  59.220 -53.441  1.00  0.00     0.251 C 
HETATM   13  O   UNL     1     -40.523  59.291 -53.691  1.00  0.00    -0.268 OA
HETATM   14  H   UNL     1     -43.414  58.277 -52.818  1.00  0.00     0.169 HD
BRANCH  12  15
HETATM   15  C   UNL     1     -42.635  60.302 -53.901  1.00  0.00     0.007 C 
HETATM   16  C   UNL     1     -42.915  61.356 -52.875  1.00  0.00     0.054 C 
HETATM   17  C   UNL     1     -43.174  60.297 -55.134  1.00  0.00     0.023 C 
BRANCH  17  18
HETATM   18  C   UNL     1     -43.011  59.257 -56.159  1.00  0.00    -0.035 A 
HETATM   19  C   UNL     1     -43.792  58.093 -56.154  1.00  0.00     0.013 A 
HETATM   20  C   UNL     1     -43.654  57.140 -57.167  1.00  0.00     0.024 A 
HETATM   21  C   UNL     1     -42.743  57.356 -58.198  1.00  0.00     0.034 A 
HETATM   22 CL   UNL     1     -42.578  56.191 -59.454  1.00  0.00    -0.084 Cl
HETATM   23  C   UNL     1     -41.971  58.516 -58.225  1.00  0.00     0.024 A 
HETATM   24  C   UNL     1     -42.109  59.468 -57.210  1.00  0.00     0.013 A 
ENDBRANCH  17  18
ENDBRANCH  12  15
ENDBRANCH   1  11
BRANCH   8  25
HETATM   25  C   UNL     1     -40.543  52.873 -54.050  1.00  0.00     0.270 C 
HETATM   26  N   UNL     1     -40.076  53.721 -55.018  1.00  0.00    -0.365 N 
HETATM   27  H   UNL     1     -39.813  54.662 -54.751  1.00  0.00     0.159 HD
HETATM   28  H   UNL     1     -40.064  53.421 -55.980  1.00  0.00     0.159 HD
HETATM   29  O   UNL     1     -40.918  51.739 -54.328  1.00  0.00    -0.266 OA
ENDBRANCH   8  25
TORSDOF 4
ENDMDL
