MODEL 1
REMARK VINA RESULT:      -7.8      0.000      0.000
REMARK  5 active torsions:
REMARK  status: ('A' for Active; 'I' for Inactive)
REMARK    1  A    between atoms: C_11  and  N_12 
REMARK       I    between atoms: N_12  and  C_13 
REMARK       I    between atoms: C_13  and  N_14 
REMARK    2  A    between atoms: N_14  and  C_15 
REMARK    3  A    between atoms: C_15  and  C_16 
REMARK    4  A    between atoms: C_16  and  N_17 
REMARK    5  A    between atoms: C_16  and  C_21 
ROOT
HETATM    1  N   UNL     1     -41.743  57.290 -50.604  1.00  0.00    -0.309 N 
HETATM    2  C   UNL     1     -42.782  57.863 -51.261  1.00  0.00     0.320 C 
HETATM    3  N   UNL     1     -43.574  57.081 -52.033  1.00  0.00    -0.341 N 
HETATM    4  O   UNL     1     -42.981  59.074 -51.165  1.00  0.00    -0.247 OA
HETATM    5  H   UNL     1     -41.137  57.991 -50.188  1.00  0.00     0.170 HD
HETATM    6  H   UNL     1     -43.067  56.305 -52.443  1.00  0.00     0.164 HD
ENDROOT
BRANCH   1   7
HETATM    7  C   UNL     1     -41.358  55.954 -50.374  1.00  0.00     0.038 A 
HETATM    8  C   UNL     1     -41.306  55.336 -49.129  1.00  0.00     0.032 A 
HETATM    9  C   UNL     1     -40.945  53.986 -49.030  1.00  0.00     0.036 A 
HETATM   10  C   UNL     1     -40.599  53.242 -50.148  1.00  0.00     0.086 A 
HETATM   11  N   UNL     1     -40.274  51.945 -50.014  1.00  0.00    -0.250 NA
HETATM   12  C   UNL     1     -40.588  53.876 -51.407  1.00  0.00     0.088 A 
HETATM   13  C   UNL     1     -39.920  51.274 -51.140  1.00  0.00     0.055 A 
HETATM   14  C   UNL     1     -39.574  49.825 -50.973  1.00  0.00     0.072 C 
HETATM   15  C   UNL     1     -39.881  51.908 -52.382  1.00  0.00     0.055 A 
HETATM   16  N   UNL     1     -40.227  53.214 -52.519  1.00  0.00    -0.250 NA
HETATM   17  C   UNL     1     -39.459  51.193 -53.629  1.00  0.00     0.072 C 
HETATM   18  C   UNL     1     -40.966  55.212 -51.496  1.00  0.00     0.063 A 
ENDBRANCH   1   7
BRANCH   3  19
HETATM   19  C   UNL     1     -44.705  57.557 -52.832  1.00  0.00     0.163 C 
BRANCH  19  20
HETATM   20  C   UNL     1     -44.742  57.152 -54.346  1.00  0.00     0.244 C 
BRANCH  20  21
HETATM   21  N   UNL     1     -44.648  58.372 -55.270  1.00  0.00    -0.068 N 
HETATM   22  H   UNL     1     -43.706  58.268 -55.701  1.00  0.00     0.279 HD
HETATM   23  C   UNL     1     -45.616  58.448 -56.405  1.00  0.00     0.270 C 
HETATM   24  C   UNL     1     -44.575  59.670 -54.521  1.00  0.00     0.270 C 
ENDBRANCH  20  21
BRANCH  20  25
HETATM   25  C   UNL     1     -43.711  56.091 -54.661  1.00  0.00     0.015 A 
HETATM   26  S   UNL     1     -42.229  56.556 -55.402  1.00  0.00    -0.104 SA
HETATM   27  C   UNL     1     -41.656  54.951 -55.433  1.00  0.00     0.050 A 
HETATM   28  C   UNL     1     -42.569  54.067 -54.906  1.00  0.00     0.008 A 
HETATM   29  C   UNL     1     -43.757  54.722 -54.464  1.00  0.00     0.017 A 
ENDBRANCH  20  25
ENDBRANCH  19  20
ENDBRANCH   3  19
TORSDOF 5
ENDMDL
MODEL 2
REMARK VINA RESULT:      -7.1      3.901      8.751
REMARK  5 active torsions:
REMARK  status: ('A' for Active; 'I' for Inactive)
REMARK    1  A    between atoms: C_11  and  N_12 
REMARK       I    between atoms: N_12  and  C_13 
REMARK       I    between atoms: C_13  and  N_14 
REMARK    2  A    between atoms: N_14  and  C_15 
REMARK    3  A    between atoms: C_15  and  C_16 
REMARK    4  A    between atoms: C_16  and  N_17 
REMARK    5  A    between atoms: C_16  and  C_21 
ROOT
HETATM    1  N   UNL     1     -42.553  55.860 -57.540  1.00  0.00    -0.309 N 
HETATM    2  C   UNL     1     -42.487  55.598 -56.212  1.00  0.00     0.320 C 
HETATM    3  N   UNL     1     -43.638  55.364 -55.538  1.00  0.00    -0.341 N 
HETATM    4  O   UNL     1     -41.399  55.594 -55.636  1.00  0.00    -0.247 OA
HETATM    5  H   UNL     1     -41.655  56.168 -57.902  1.00  0.00     0.170 HD
HETATM    6  H   UNL     1     -44.423  55.874 -55.925  1.00  0.00     0.164 HD
ENDROOT
BRANCH   1   7
HETATM    7  C   UNL     1     -43.584  55.774 -58.497  1.00  0.00     0.038 A 
HETATM    8  C   UNL     1     -43.871  54.654 -59.272  1.00  0.00     0.032 A 
HETATM    9  C   UNL     1     -44.951  54.676 -60.163  1.00  0.00     0.036 A 
HETATM   10  C   UNL     1     -45.736  55.808 -60.327  1.00  0.00     0.086 A 
HETATM   11  N   UNL     1     -46.773  55.783 -61.182  1.00  0.00    -0.250 NA
HETATM   12  C   UNL     1     -45.415  56.967 -59.593  1.00  0.00     0.088 A 
HETATM   13  C   UNL     1     -47.492  56.928 -61.319  1.00  0.00     0.055 A 
HETATM   14  C   UNL     1     -48.653  56.878 -62.266  1.00  0.00     0.072 C 
HETATM   15  C   UNL     1     -47.157  58.084 -60.615  1.00  0.00     0.055 A 
HETATM   16  N   UNL     1     -46.119  58.103 -59.739  1.00  0.00    -0.250 NA
HETATM   17  C   UNL     1     -47.915  59.366 -60.780  1.00  0.00     0.072 C 
HETATM   18  C   UNL     1     -44.352  56.929 -58.697  1.00  0.00     0.063 A 
ENDBRANCH   1   7
BRANCH   3  19
HETATM   19  C   UNL     1     -43.733  55.107 -54.099  1.00  0.00     0.163 C 
BRANCH  19  20
HETATM   20  C   UNL     1     -43.432  56.303 -53.130  1.00  0.00     0.244 C 
BRANCH  20  21
HETATM   21  N   UNL     1     -44.676  57.163 -52.876  1.00  0.00    -0.068 N 
HETATM   22  H   UNL     1     -45.460  56.515 -53.103  1.00  0.00     0.279 HD
HETATM   23  C   UNL     1     -44.915  57.625 -51.476  1.00  0.00     0.270 C 
HETATM   24  C   UNL     1     -44.823  58.286 -53.859  1.00  0.00     0.270 C 
ENDBRANCH  20  21
BRANCH  20  25
HETATM   25  C   UNL     1     -42.769  55.830 -51.855  1.00  0.00     0.015 A 
HETATM   26  S   UNL     1     -41.485  56.760 -51.184  1.00  0.00    -0.104 SA
HETATM   27  C   UNL     1     -41.282  55.675 -49.884  1.00  0.00     0.050 A 
HETATM   28  C   UNL     1     -42.158  54.616 -49.955  1.00  0.00     0.008 A 
HETATM   29  C   UNL     1     -43.013  54.702 -51.092  1.00  0.00     0.017 A 
ENDBRANCH  20  25
ENDBRANCH  19  20
ENDBRANCH   3  19
TORSDOF 5
ENDMDL
MODEL 3
REMARK VINA RESULT:      -7.0      3.087      4.086
REMARK  5 active torsions:
REMARK  status: ('A' for Active; 'I' for Inactive)
REMARK    1  A    between atoms: C_11  and  N_12 
REMARK       I    between atoms: N_12  and  C_13 
REMARK       I    between atoms: C_13  and  N_14 
REMARK    2  A    between atoms: N_14  and  C_15 
REMARK    3  A    between atoms: C_15  and  C_16 
REMARK    4  A    between atoms: C_16  and  N_17 
REMARK    5  A    between atoms: C_16  and  C_21 
ROOT
HETATM    1  N   UNL     1     -44.084  56.165 -53.670  1.00  0.00    -0.309 N 
HETATM    2  C   UNL     1     -44.052  56.970 -54.761  1.00  0.00     0.320 C 
HETATM    3  N   UNL     1     -42.858  57.227 -55.345  1.00  0.00    -0.341 N 
HETATM    4  O   UNL     1     -45.093  57.468 -55.191  1.00  0.00    -0.247 OA
HETATM    5  H   UNL     1     -45.001  56.170 -53.233  1.00  0.00     0.170 HD
HETATM    6  H   UNL     1     -42.095  57.230 -54.678  1.00  0.00     0.164 HD
ENDROOT
BRANCH   1   7
HETATM    7  C   UNL     1     -43.132  55.331 -53.051  1.00  0.00     0.038 A 
HETATM    8  C   UNL     1     -42.656  55.480 -51.752  1.00  0.00     0.032 A 
HETATM    9  C   UNL     1     -41.737  54.560 -51.232  1.00  0.00     0.036 A 
HETATM   10  C   UNL     1     -41.250  53.509 -51.993  1.00  0.00     0.086 A 
HETATM   11  N   UNL     1     -40.380  52.639 -51.453  1.00  0.00    -0.250 NA
HETATM   12  C   UNL     1     -41.677  53.386 -53.331  1.00  0.00     0.088 A 
HETATM   13  C   UNL     1     -39.919  51.643 -52.253  1.00  0.00     0.055 A 
HETATM   14  C   UNL     1     -38.959  50.674 -51.629  1.00  0.00     0.072 C 
HETATM   15  C   UNL     1     -40.319  51.538 -53.585  1.00  0.00     0.055 A 
HETATM   16  N   UNL     1     -41.211  52.407 -54.126  1.00  0.00    -0.250 NA
HETATM   17  C   UNL     1     -39.793  50.468 -54.493  1.00  0.00     0.072 C 
HETATM   18  C   UNL     1     -42.604  54.293 -53.832  1.00  0.00     0.063 A 
ENDBRANCH   1   7
BRANCH   3  19
HETATM   19  C   UNL     1     -42.658  58.105 -56.500  1.00  0.00     0.163 C 
BRANCH  19  20
HETATM   20  C   UNL     1     -42.697  57.447 -57.923  1.00  0.00     0.244 C 
BRANCH  20  21
HETATM   21  N   UNL     1     -44.009  56.694 -58.171  1.00  0.00    -0.068 N 
HETATM   22  H   UNL     1     -44.277  56.369 -57.218  1.00  0.00     0.279 HD
HETATM   23  C   UNL     1     -45.169  57.487 -58.678  1.00  0.00     0.270 C 
HETATM   24  C   UNL     1     -43.821  55.430 -58.958  1.00  0.00     0.270 C 
ENDBRANCH  20  21
BRANCH  20  25
HETATM   25  C   UNL     1     -42.377  58.451 -59.007  1.00  0.00     0.015 A 
HETATM   26  S   UNL     1     -42.387  60.129 -58.625  1.00  0.00    -0.104 SA
HETATM   27  C   UNL     1     -41.972  60.570 -60.219  1.00  0.00     0.050 A 
HETATM   28  C   UNL     1     -41.839  59.472 -61.039  1.00  0.00     0.008 A 
HETATM   29  C   UNL     1     -42.076  58.250 -60.343  1.00  0.00     0.017 A 
ENDBRANCH  20  25
ENDBRANCH  19  20
ENDBRANCH   3  19
TORSDOF 5
ENDMDL
MODEL 4
REMARK VINA RESULT:      -6.9      2.922      4.349
REMARK  5 active torsions:
REMARK  status: ('A' for Active; 'I' for Inactive)
REMARK    1  A    between atoms: C_11  and  N_12 
REMARK       I    between atoms: N_12  and  C_13 
REMARK       I    between atoms: C_13  and  N_14 
REMARK    2  A    between atoms: N_14  and  C_15 
REMARK    3  A    between atoms: C_15  and  C_16 
REMARK    4  A    between atoms: C_16  and  N_17 
REMARK    5  A    between atoms: C_16  and  C_21 
ROOT
HETATM    1  N   UNL     1     -44.721  56.337 -54.627  1.00  0.00    -0.309 N 
HETATM    2  C   UNL     1     -44.752  57.495 -55.332  1.00  0.00     0.320 C 
HETATM    3  N   UNL     1     -43.592  57.987 -55.825  1.00  0.00    -0.341 N 
HETATM    4  O   UNL     1     -45.819  58.088 -55.497  1.00  0.00    -0.247 OA
HETATM    5  H   UNL     1     -45.615  56.150 -54.181  1.00  0.00     0.170 HD
HETATM    6  H   UNL     1     -42.796  57.760 -55.240  1.00  0.00     0.164 HD
ENDROOT
BRANCH   1   7
HETATM    7  C   UNL     1     -43.730  55.358 -54.412  1.00  0.00     0.038 A 
HETATM    8  C   UNL     1     -43.208  54.514 -55.387  1.00  0.00     0.032 A 
HETATM    9  C   UNL     1     -42.193  53.606 -55.059  1.00  0.00     0.036 A 
HETATM   10  C   UNL     1     -41.707  53.495 -53.764  1.00  0.00     0.086 A 
HETATM   11  N   UNL     1     -40.722  52.622 -53.493  1.00  0.00    -0.250 NA
HETATM   12  C   UNL     1     -42.273  54.302 -52.757  1.00  0.00     0.088 A 
HETATM   13  C   UNL     1     -40.303  52.540 -52.204  1.00  0.00     0.055 A 
HETATM   14  C   UNL     1     -39.194  51.571 -51.922  1.00  0.00     0.072 C 
HETATM   15  C   UNL     1     -40.882  53.316 -51.201  1.00  0.00     0.055 A 
HETATM   16  N   UNL     1     -41.866  54.211 -51.479  1.00  0.00    -0.250 NA
HETATM   17  C   UNL     1     -40.458  53.213 -49.768  1.00  0.00     0.072 C 
HETATM   18  C   UNL     1     -43.267  55.213 -53.096  1.00  0.00     0.063 A 
ENDBRANCH   1   7
BRANCH   3  19
HETATM   19  C   UNL     1     -43.459  59.242 -56.570  1.00  0.00     0.163 C 
BRANCH  19  20
HETATM   20  C   UNL     1     -43.381  59.149 -58.133  1.00  0.00     0.244 C 
BRANCH  20  21
HETATM   21  N   UNL     1     -42.076  59.740 -58.679  1.00  0.00    -0.068 N 
HETATM   22  H   UNL     1     -41.390  58.970 -58.531  1.00  0.00     0.279 HD
HETATM   23  C   UNL     1     -42.026  60.062 -60.137  1.00  0.00     0.270 C 
HETATM   24  C   UNL     1     -41.551  60.873 -57.846  1.00  0.00     0.270 C 
ENDBRANCH  20  21
BRANCH  20  25
HETATM   25  C   UNL     1     -43.642  57.741 -58.619  1.00  0.00     0.015 A 
HETATM   26  S   UNL     1     -45.221  57.319 -59.157  1.00  0.00    -0.104 SA
HETATM   27  C   UNL     1     -44.754  55.717 -59.506  1.00  0.00     0.050 A 
HETATM   28  C   UNL     1     -43.429  55.491 -59.211  1.00  0.00     0.008 A 
HETATM   29  C   UNL     1     -42.787  56.655 -58.695  1.00  0.00     0.017 A 
ENDBRANCH  20  25
ENDBRANCH  19  20
ENDBRANCH   3  19
TORSDOF 5
ENDMDL
MODEL 5
REMARK VINA RESULT:      -6.9      3.296      5.078
REMARK  5 active torsions:
REMARK  status: ('A' for Active; 'I' for Inactive)
REMARK    1  A    between atoms: C_11  and  N_12 
REMARK       I    between atoms: N_12  and  C_13 
REMARK       I    between atoms: C_13  and  N_14 
REMARK    2  A    between atoms: N_14  and  C_15 
REMARK    3  A    between atoms: C_15  and  C_16 
REMARK    4  A    between atoms: C_16  and  N_17 
REMARK    5  A    between atoms: C_16  and  C_21 
ROOT
HETATM    1  N   UNL     1     -43.428  54.731 -56.684  1.00  0.00    -0.309 N 
HETATM    2  C   UNL     1     -43.150  55.602 -57.685  1.00  0.00     0.320 C 
HETATM    3  N   UNL     1     -42.550  56.776 -57.377  1.00  0.00    -0.341 N 
HETATM    4  O   UNL     1     -43.458  55.328 -58.845  1.00  0.00    -0.247 OA
HETATM    5  H   UNL     1     -44.010  53.964 -57.011  1.00  0.00     0.170 HD
HETATM    6  H   UNL     1     -42.810  57.113 -56.457  1.00  0.00     0.164 HD
ENDROOT
BRANCH   1   7
HETATM    7  C   UNL     1     -43.067  54.668 -55.323  1.00  0.00     0.038 A 
HETATM    8  C   UNL     1     -43.614  55.450 -54.309  1.00  0.00     0.032 A 
HETATM    9  C   UNL     1     -43.201  55.267 -52.983  1.00  0.00     0.036 A 
HETATM   10  C   UNL     1     -42.224  54.342 -52.646  1.00  0.00     0.086 A 
HETATM   11  N   UNL     1     -41.867  54.186 -51.360  1.00  0.00    -0.250 NA
HETATM   12  C   UNL     1     -41.620  53.591 -53.673  1.00  0.00     0.088 A 
HETATM   13  C   UNL     1     -40.888  53.283 -51.092  1.00  0.00     0.055 A 
HETATM   14  C   UNL     1     -40.512  53.113 -49.651  1.00  0.00     0.072 C 
HETATM   15  C   UNL     1     -40.269  52.560 -52.112  1.00  0.00     0.055 A 
HETATM   16  N   UNL     1     -40.643  52.706 -53.409  1.00  0.00    -0.250 NA
HETATM   17  C   UNL     1     -39.163  51.587 -51.840  1.00  0.00     0.072 C 
HETATM   18  C   UNL     1     -42.049  53.766 -54.984  1.00  0.00     0.063 A 
ENDBRANCH   1   7
BRANCH   3  19
HETATM   19  C   UNL     1     -42.223  57.832 -58.338  1.00  0.00     0.163 C 
BRANCH  19  20
HETATM   20  C   UNL     1     -43.180  59.073 -58.403  1.00  0.00     0.244 C 
BRANCH  20  21
HETATM   21  N   UNL     1     -42.828  60.009 -59.565  1.00  0.00    -0.068 N 
HETATM   22  H   UNL     1     -43.758  60.227 -59.981  1.00  0.00     0.279 HD
HETATM   23  C   UNL     1     -42.212  61.326 -59.220  1.00  0.00     0.270 C 
HETATM   24  C   UNL     1     -42.077  59.321 -60.667  1.00  0.00     0.270 C 
ENDBRANCH  20  21
BRANCH  20  25
HETATM   25  C   UNL     1     -44.633  58.652 -58.401  1.00  0.00     0.015 A 
HETATM   26  S   UNL     1     -45.541  58.783 -56.945  1.00  0.00    -0.104 SA
HETATM   27  C   UNL     1     -46.951  58.171 -57.683  1.00  0.00     0.050 A 
HETATM   28  C   UNL     1     -46.745  57.857 -59.007  1.00  0.00     0.008 A 
HETATM   29  C   UNL     1     -45.408  58.130 -59.422  1.00  0.00     0.017 A 
ENDBRANCH  20  25
ENDBRANCH  19  20
ENDBRANCH   3  19
TORSDOF 5
ENDMDL
MODEL 6
REMARK VINA RESULT:      -6.9      1.795      2.447
REMARK  5 active torsions:
REMARK  status: ('A' for Active; 'I' for Inactive)
REMARK    1  A    between atoms: C_11  and  N_12 
REMARK       I    between atoms: N_12  and  C_13 
REMARK       I    between atoms: C_13  and  N_14 
REMARK    2  A    between atoms: N_14  and  C_15 
REMARK    3  A    between atoms: C_15  and  C_16 
REMARK    4  A    between atoms: C_16  and  N_17 
REMARK    5  A    between atoms: C_16  and  C_21 
ROOT
HETATM    1  N   UNL     1     -41.907  57.165 -50.614  1.00  0.00    -0.309 N 
HETATM    2  C   UNL     1     -42.211  57.862 -51.737  1.00  0.00     0.320 C 
HETATM    3  N   UNL     1     -41.899  57.325 -52.940  1.00  0.00    -0.341 N 
HETATM    4  O   UNL     1     -42.744  58.968 -51.651  1.00  0.00    -0.247 OA
HETATM    5  H   UNL     1     -42.045  57.728 -49.780  1.00  0.00     0.170 HD
HETATM    6  H   UNL     1     -41.068  56.746 -52.900  1.00  0.00     0.164 HD
ENDROOT
BRANCH   1   7
HETATM    7  C   UNL     1     -41.468  55.846 -50.379  1.00  0.00     0.038 A 
HETATM    8  C   UNL     1     -41.359  55.246 -49.128  1.00  0.00     0.032 A 
HETATM    9  C   UNL     1     -40.948  53.912 -49.024  1.00  0.00     0.036 A 
HETATM   10  C   UNL     1     -40.607  53.166 -50.142  1.00  0.00     0.086 A 
HETATM   11  N   UNL     1     -40.232  51.883 -50.001  1.00  0.00    -0.250 NA
HETATM   12  C   UNL     1     -40.654  53.784 -51.408  1.00  0.00     0.088 A 
HETATM   13  C   UNL     1     -39.886  51.210 -51.129  1.00  0.00     0.055 A 
HETATM   14  C   UNL     1     -39.483  49.776 -50.954  1.00  0.00     0.072 C 
HETATM   15  C   UNL     1     -39.904  51.829 -52.379  1.00  0.00     0.055 A 
HETATM   16  N   UNL     1     -40.300  53.120 -52.522  1.00  0.00    -0.250 NA
HETATM   17  C   UNL     1     -39.491  51.113 -53.628  1.00  0.00     0.072 C 
HETATM   18  C   UNL     1     -41.081  55.104 -51.503  1.00  0.00     0.063 A 
ENDBRANCH   1   7
BRANCH   3  19
HETATM   19  C   UNL     1     -42.127  57.971 -54.235  1.00  0.00     0.163 C 
BRANCH  19  20
HETATM   20  C   UNL     1     -42.545  57.053 -55.436  1.00  0.00     0.244 C 
BRANCH  20  21
HETATM   21  N   UNL     1     -43.890  56.360 -55.189  1.00  0.00    -0.068 N 
HETATM   22  H   UNL     1     -44.204  56.108 -56.149  1.00  0.00     0.279 HD
HETATM   23  C   UNL     1     -43.870  55.084 -54.413  1.00  0.00     0.270 C 
HETATM   24  C   UNL     1     -44.948  57.296 -54.683  1.00  0.00     0.270 C 
ENDBRANCH  20  21
BRANCH  20  25
HETATM   25  C   UNL     1     -42.497  57.802 -56.749  1.00  0.00     0.015 A 
HETATM   26  S   UNL     1     -42.481  59.523 -56.731  1.00  0.00    -0.104 SA
HETATM   27  C   UNL     1     -42.432  59.613 -58.433  1.00  0.00     0.050 A 
HETATM   28  C   UNL     1     -42.441  58.366 -59.016  1.00  0.00     0.008 A 
HETATM   29  C   UNL     1     -42.483  57.321 -58.046  1.00  0.00     0.017 A 
ENDBRANCH  20  25
ENDBRANCH  19  20
ENDBRANCH   3  19
TORSDOF 5
ENDMDL
MODEL 7
REMARK VINA RESULT:      -6.8      3.314      4.985
REMARK  5 active torsions:
REMARK  status: ('A' for Active; 'I' for Inactive)
REMARK    1  A    between atoms: C_11  and  N_12 
REMARK       I    between atoms: N_12  and  C_13 
REMARK       I    between atoms: C_13  and  N_14 
REMARK    2  A    between atoms: N_14  and  C_15 
REMARK    3  A    between atoms: C_15  and  C_16 
REMARK    4  A    between atoms: C_16  and  N_17 
REMARK    5  A    between atoms: C_16  and  C_21 
ROOT
HETATM    1  N   UNL     1     -43.385  54.929 -56.770  1.00  0.00    -0.309 N 
HETATM    2  C   UNL     1     -43.082  55.813 -57.753  1.00  0.00     0.320 C 
HETATM    3  N   UNL     1     -42.465  56.971 -57.419  1.00  0.00    -0.341 N 
HETATM    4  O   UNL     1     -43.382  55.564 -58.921  1.00  0.00    -0.247 OA
HETATM    5  H   UNL     1     -43.976  54.179 -57.116  1.00  0.00     0.170 HD
HETATM    6  H   UNL     1     -42.728  57.296 -56.496  1.00  0.00     0.164 HD
ENDROOT
BRANCH   1   7
HETATM    7  C   UNL     1     -43.039  54.837 -55.407  1.00  0.00     0.038 A 
HETATM    8  C   UNL     1     -43.583  55.609 -54.385  1.00  0.00     0.032 A 
HETATM    9  C   UNL     1     -43.187  55.396 -53.059  1.00  0.00     0.036 A 
HETATM   10  C   UNL     1     -42.229  54.450 -52.728  1.00  0.00     0.086 A 
HETATM   11  N   UNL     1     -41.887  54.265 -51.442  1.00  0.00    -0.250 NA
HETATM   12  C   UNL     1     -41.626  53.706 -53.763  1.00  0.00     0.088 A 
HETATM   13  C   UNL     1     -40.926  53.342 -51.180  1.00  0.00     0.055 A 
HETATM   14  C   UNL     1     -40.567  53.140 -49.739  1.00  0.00     0.072 C 
HETATM   15  C   UNL     1     -40.308  52.627 -52.206  1.00  0.00     0.055 A 
HETATM   16  N   UNL     1     -40.666  52.801 -53.505  1.00  0.00    -0.250 NA
HETATM   17  C   UNL     1     -39.221  51.631 -51.941  1.00  0.00     0.072 C 
HETATM   18  C   UNL     1     -42.039  53.912 -55.075  1.00  0.00     0.063 A 
ENDBRANCH   1   7
BRANCH   3  19
HETATM   19  C   UNL     1     -42.110  58.037 -58.358  1.00  0.00     0.163 C 
BRANCH  19  20
HETATM   20  C   UNL     1     -41.737  59.436 -57.755  1.00  0.00     0.244 C 
BRANCH  20  21
HETATM   21  N   UNL     1     -41.914  60.567 -58.776  1.00  0.00    -0.068 N 
HETATM   22  H   UNL     1     -42.871  60.923 -58.568  1.00  0.00     0.279 HD
HETATM   23  C   UNL     1     -41.002  61.743 -58.659  1.00  0.00     0.270 C 
HETATM   24  C   UNL     1     -41.998  60.072 -60.190  1.00  0.00     0.270 C 
ENDBRANCH  20  21
BRANCH  20  25
HETATM   25  C   UNL     1     -42.468  59.692 -56.456  1.00  0.00     0.015 A 
HETATM   26  S   UNL     1     -44.132  60.128 -56.502  1.00  0.00    -0.104 SA
HETATM   27  C   UNL     1     -44.225  60.239 -54.803  1.00  0.00     0.050 A 
HETATM   28  C   UNL     1     -43.018  59.966 -54.202  1.00  0.00     0.008 A 
HETATM   29  C   UNL     1     -42.002  59.654 -55.153  1.00  0.00     0.017 A 
ENDBRANCH  20  25
ENDBRANCH  19  20
ENDBRANCH   3  19
TORSDOF 5
ENDMDL
MODEL 8
REMARK VINA RESULT:      -6.8      2.166      3.634
REMARK  5 active torsions:
REMARK  status: ('A' for Active; 'I' for Inactive)
REMARK    1  A    between atoms: C_11  and  N_12 
REMARK       I    between atoms: N_12  and  C_13 
REMARK       I    between atoms: C_13  and  N_14 
REMARK    2  A    between atoms: N_14  and  C_15 
REMARK    3  A    between atoms: C_15  and  C_16 
REMARK    4  A    between atoms: C_16  and  N_17 
REMARK    5  A    between atoms: C_16  and  C_21 
ROOT
HETATM    1  N   UNL     1     -41.342  56.994 -53.089  1.00  0.00    -0.309 N 
HETATM    2  C   UNL     1     -42.116  57.992 -53.583  1.00  0.00     0.320 C 
HETATM    3  N   UNL     1     -42.596  57.879 -54.844  1.00  0.00    -0.341 N 
HETATM    4  O   UNL     1     -42.357  58.984 -52.895  1.00  0.00    -0.247 OA
HETATM    5  H   UNL     1     -40.918  57.257 -52.204  1.00  0.00     0.170 HD
HETATM    6  H   UNL     1     -41.970  57.364 -55.451  1.00  0.00     0.164 HD
ENDROOT
BRANCH   1   7
HETATM    7  C   UNL     1     -41.030  55.695 -53.538  1.00  0.00     0.038 A 
HETATM    8  C   UNL     1     -40.988  55.293 -54.869  1.00  0.00     0.032 A 
HETATM    9  C   UNL     1     -40.624  53.980 -55.194  1.00  0.00     0.036 A 
HETATM   10  C   UNL     1     -40.333  53.042 -54.215  1.00  0.00     0.086 A 
HETATM   11  N   UNL     1     -39.974  51.796 -54.568  1.00  0.00    -0.250 NA
HETATM   12  C   UNL     1     -40.434  53.423 -52.862  1.00  0.00     0.088 A 
HETATM   13  C   UNL     1     -39.724  50.914 -53.566  1.00  0.00     0.055 A 
HETATM   14  C   UNL     1     -39.311  49.533 -53.978  1.00  0.00     0.072 C 
HETATM   15  C   UNL     1     -39.851  51.282 -52.226  1.00  0.00     0.055 A 
HETATM   16  N   UNL     1     -40.198  52.546 -51.870  1.00  0.00    -0.250 NA
HETATM   17  C   UNL     1     -39.615  50.313 -51.108  1.00  0.00     0.072 C 
HETATM   18  C   UNL     1     -40.778  54.733 -52.550  1.00  0.00     0.063 A 
ENDBRANCH   1   7
BRANCH   3  19
HETATM   19  C   UNL     1     -43.411  58.887 -55.527  1.00  0.00     0.163 C 
BRANCH  19  20
HETATM   20  C   UNL     1     -44.967  58.691 -55.510  1.00  0.00     0.244 C 
BRANCH  20  21
HETATM   21  N   UNL     1     -45.694  59.916 -54.943  1.00  0.00    -0.068 N 
HETATM   22  H   UNL     1     -46.689  59.734 -55.192  1.00  0.00     0.279 HD
HETATM   23  C   UNL     1     -45.666  60.103 -53.462  1.00  0.00     0.270 C 
HETATM   24  C   UNL     1     -45.354  61.186 -55.665  1.00  0.00     0.270 C 
ENDBRANCH  20  21
BRANCH  20  25
HETATM   25  C   UNL     1     -45.487  58.269 -56.866  1.00  0.00     0.015 A 
HETATM   26  S   UNL     1     -44.364  57.850 -58.102  1.00  0.00    -0.104 SA
HETATM   27  C   UNL     1     -45.607  57.523 -59.222  1.00  0.00     0.050 A 
HETATM   28  C   UNL     1     -46.855  57.738 -58.684  1.00  0.00     0.008 A 
HETATM   29  C   UNL     1     -46.788  58.172 -57.327  1.00  0.00     0.017 A 
ENDBRANCH  20  25
ENDBRANCH  19  20
ENDBRANCH   3  19
TORSDOF 5
ENDMDL
MODEL 9
REMARK VINA RESULT:      -6.7      1.789      3.246
REMARK  5 active torsions:
REMARK  status: ('A' for Active; 'I' for Inactive)
REMARK    1  A    between atoms: C_11  and  N_12 
REMARK       I    between atoms: N_12  and  C_13 
REMARK       I    between atoms: C_13  and  N_14 
REMARK    2  A    between atoms: N_14  and  C_15 
REMARK    3  A    between atoms: C_15  and  C_16 
REMARK    4  A    between atoms: C_16  and  N_17 
REMARK    5  A    between atoms: C_16  and  C_21 
ROOT
HETATM    1  N   UNL     1     -42.177  57.104 -50.300  1.00  0.00    -0.309 N 
HETATM    2  C   UNL     1     -42.046  58.111 -51.199  1.00  0.00     0.320 C 
HETATM    3  N   UNL     1     -41.081  58.018 -52.144  1.00  0.00    -0.341 N 
HETATM    4  O   UNL     1     -42.785  59.094 -51.136  1.00  0.00    -0.247 OA
HETATM    5  H   UNL     1     -42.822  57.353 -49.556  1.00  0.00     0.170 HD
HETATM    6  H   UNL     1     -40.268  57.509 -51.816  1.00  0.00     0.164 HD
ENDROOT
BRANCH   1   7
HETATM    7  C   UNL     1     -41.626  55.810 -50.205  1.00  0.00     0.038 A 
HETATM    8  C   UNL     1     -41.296  55.162 -49.018  1.00  0.00     0.032 A 
HETATM    9  C   UNL     1     -40.791  53.856 -49.049  1.00  0.00     0.036 A 
HETATM   10  C   UNL     1     -40.572  53.189 -50.245  1.00  0.00     0.086 A 
HETATM   11  N   UNL     1     -40.100  51.931 -50.232  1.00  0.00    -0.250 NA
HETATM   12  C   UNL     1     -40.844  53.860 -51.454  1.00  0.00     0.088 A 
HETATM   13  C   UNL     1     -39.883  51.336 -51.433  1.00  0.00     0.055 A 
HETATM   14  C   UNL     1     -39.369  49.928 -51.399  1.00  0.00     0.072 C 
HETATM   15  C   UNL     1     -40.124  52.009 -52.631  1.00  0.00     0.055 A 
HETATM   16  N   UNL     1     -40.617  53.275 -52.643  1.00  0.00    -0.250 NA
HETATM   17  C   UNL     1     -39.856  51.383 -53.965  1.00  0.00     0.072 C 
HETATM   18  C   UNL     1     -41.363  55.149 -51.412  1.00  0.00     0.063 A 
ENDBRANCH   1   7
BRANCH   3  19
HETATM   19  C   UNL     1     -40.792  59.037 -53.155  1.00  0.00     0.163 C 
BRANCH  19  20
HETATM   20  C   UNL     1     -41.600  58.972 -54.498  1.00  0.00     0.244 C 
BRANCH  20  21
HETATM   21  N   UNL     1     -42.539  57.761 -54.545  1.00  0.00    -0.068 N 
HETATM   22  H   UNL     1     -42.256  57.212 -53.706  1.00  0.00     0.279 HD
HETATM   23  C   UNL     1     -44.001  58.022 -54.394  1.00  0.00     0.270 C 
HETATM   24  C   UNL     1     -42.259  56.846 -55.701  1.00  0.00     0.270 C 
ENDBRANCH  20  21
BRANCH  20  25
HETATM   25  C   UNL     1     -42.305  60.279 -54.784  1.00  0.00     0.015 A 
HETATM   26  S   UNL     1     -42.567  60.749 -56.419  1.00  0.00    -0.104 SA
HETATM   27  C   UNL     1     -43.340  62.196 -55.956  1.00  0.00     0.050 A 
HETATM   28  C   UNL     1     -43.393  62.338 -54.588  1.00  0.00     0.008 A 
HETATM   29  C   UNL     1     -42.793  61.235 -53.911  1.00  0.00     0.017 A 
ENDBRANCH  20  25
ENDBRANCH  19  20
ENDBRANCH   3  19
TORSDOF 5
ENDMDL
MODEL 10
REMARK VINA RESULT:      -6.7      2.589      7.213
REMARK  5 active torsions:
REMARK  status: ('A' for Active; 'I' for Inactive)
REMARK    1  A    between atoms: C_11  and  N_12 
REMARK       I    between atoms: N_12  and  C_13 
REMARK       I    between atoms: C_13  and  N_14 
REMARK    2  A    between atoms: N_14  and  C_15 
REMARK    3  A    between atoms: C_15  and  C_16 
REMARK    4  A    between atoms: C_16  and  N_17 
REMARK    5  A    between atoms: C_16  and  C_21 
ROOT
HETATM    1  N   UNL     1     -41.745  59.493 -54.811  1.00  0.00    -0.309 N 
HETATM    2  C   UNL     1     -41.238  58.927 -53.689  1.00  0.00     0.320 C 
HETATM    3  N   UNL     1     -41.944  57.946 -53.079  1.00  0.00    -0.341 N 
HETATM    4  O   UNL     1     -40.164  59.319 -53.231  1.00  0.00    -0.247 OA
HETATM    5  H   UNL     1     -41.211  60.312 -55.088  1.00  0.00     0.170 HD
HETATM    6  H   UNL     1     -42.944  58.063 -53.192  1.00  0.00     0.164 HD
ENDROOT
BRANCH   1   7
HETATM    7  C   UNL     1     -42.825  59.171 -55.659  1.00  0.00     0.038 A 
HETATM    8  C   UNL     1     -44.049  59.831 -55.687  1.00  0.00     0.032 A 
HETATM    9  C   UNL     1     -45.033  59.444 -56.605  1.00  0.00     0.036 A 
HETATM   10  C   UNL     1     -44.838  58.383 -57.477  1.00  0.00     0.086 A 
HETATM   11  N   UNL     1     -45.802  58.052 -58.353  1.00  0.00    -0.250 NA
HETATM   12  C   UNL     1     -43.626  57.668 -57.412  1.00  0.00     0.088 A 
HETATM   13  C   UNL     1     -45.564  56.990 -59.166  1.00  0.00     0.055 A 
HETATM   14  C   UNL     1     -46.645  56.643 -60.146  1.00  0.00     0.072 C 
HETATM   15  C   UNL     1     -44.377  56.263 -59.082  1.00  0.00     0.055 A 
HETATM   16  N   UNL     1     -43.396  56.609 -58.208  1.00  0.00    -0.250 NA
HETATM   17  C   UNL     1     -44.112  55.067 -59.945  1.00  0.00     0.072 C 
HETATM   18  C   UNL     1     -42.647  58.072 -56.511  1.00  0.00     0.063 A 
ENDBRANCH   1   7
BRANCH   3  19
HETATM   19  C   UNL     1     -41.548  57.268 -51.842  1.00  0.00     0.163 C 
BRANCH  19  20
HETATM   20  C   UNL     1     -41.035  55.790 -51.961  1.00  0.00     0.244 C 
BRANCH  20  21
HETATM   21  N   UNL     1     -41.509  54.922 -50.789  1.00  0.00    -0.068 N 
HETATM   22  H   UNL     1     -42.532  54.828 -50.965  1.00  0.00     0.279 HD
HETATM   23  C   UNL     1     -40.974  53.530 -50.708  1.00  0.00     0.270 C 
HETATM   24  C   UNL     1     -41.421  55.624 -49.466  1.00  0.00     0.270 C 
ENDBRANCH  20  21
BRANCH  20  25
HETATM   25  C   UNL     1     -41.368  55.195 -53.311  1.00  0.00     0.015 A 
HETATM   26  S   UNL     1     -42.979  54.678 -53.625  1.00  0.00    -0.104 SA
HETATM   27  C   UNL     1     -42.587  54.171 -55.204  1.00  0.00     0.050 A 
HETATM   28  C   UNL     1     -41.257  54.373 -55.495  1.00  0.00     0.008 A 
HETATM   29  C   UNL     1     -40.551  54.959 -54.403  1.00  0.00     0.017 A 
ENDBRANCH  20  25
ENDBRANCH  19  20
ENDBRANCH   3  19
TORSDOF 5
ENDMDL
