MODEL 1
REMARK VINA RESULT:      -7.1      0.000      0.000
REMARK  1 active torsions:
REMARK  status: ('A' for Active; 'I' for Inactive)
REMARK    1  A    between atoms: C_8  and  C_9 
ROOT
HETATM    1  C   UNL     1     -40.218  54.121 -55.094  1.00  0.00     0.073 C 
HETATM    2  C   UNL     1     -40.306  53.526 -53.732  1.00  0.00     0.062 A 
HETATM    3  N   UNL     1     -40.013  52.234 -53.576  1.00  0.00    -0.178 NA
HETATM    4  N   UNL     1     -40.099  52.044 -52.261  1.00  0.00    -0.262 N 
HETATM    5  H   UNL     1     -39.879  51.124 -51.900  1.00  0.00     0.191 HD
HETATM    6  C   UNL     1     -40.501  53.146 -51.552  1.00  0.00     0.134 A 
HETATM    7  C   UNL     1     -40.667  54.160 -52.485  1.00  0.00     0.032 A 
HETATM    8  C   UNL     1     -40.954  55.625 -52.332  1.00  0.00     0.121 C 
HETATM    9  S   UNL     1     -41.074  56.313 -50.664  1.00  0.00    -0.140 SA
HETATM   10  C   UNL     1     -42.005  55.077 -49.719  1.00  0.00     0.136 C 
HETATM   11  C   UNL     1     -43.343  54.610 -50.267  1.00  0.00     0.031 C 
HETATM   12  C   UNL     1     -41.133  53.912 -49.290  1.00  0.00     0.236 C 
HETATM   13  O   UNL     1     -40.982  53.652 -48.090  1.00  0.00    -0.272 OA
HETATM   14  N   UNL     1     -40.595  53.041 -50.185  1.00  0.00    -0.311 N 
HETATM   15  H   UNL     1     -40.183  52.236 -49.724  1.00  0.00     0.170 HD
ENDROOT
BRANCH   8  16
HETATM   16  C   UNL     1     -42.097  56.063 -53.252  1.00  0.00    -0.018 A 
HETATM   17  C   UNL     1     -42.086  57.339 -53.859  1.00  0.00     0.041 A 
HETATM   18 CL   UNL     1     -40.788  58.466 -53.643  1.00  0.00    -0.084 Cl
HETATM   19  C   UNL     1     -43.127  57.757 -54.699  1.00  0.00     0.024 A 
HETATM   20  C   UNL     1     -44.206  56.918 -54.954  1.00  0.00     0.002 A 
HETATM   21  C   UNL     1     -44.244  55.657 -54.373  1.00  0.00     0.001 A 
HETATM   22  C   UNL     1     -43.206  55.237 -53.536  1.00  0.00     0.010 A 
ENDBRANCH   8  16
TORSDOF 1
ENDMDL
MODEL 2
REMARK VINA RESULT:      -7.0      2.564      3.945
REMARK  1 active torsions:
REMARK  status: ('A' for Active; 'I' for Inactive)
REMARK    1  A    between atoms: C_8  and  C_9 
ROOT
HETATM    1  C   UNL     1     -41.257  56.163 -49.504  1.00  0.00     0.073 C 
HETATM    2  C   UNL     1     -40.709  55.016 -50.280  1.00  0.00     0.062 A 
HETATM    3  N   UNL     1     -39.741  54.278 -49.735  1.00  0.00    -0.178 NA
HETATM    4  N   UNL     1     -39.545  53.305 -50.623  1.00  0.00    -0.262 N 
HETATM    5  H   UNL     1     -38.862  52.590 -50.400  1.00  0.00     0.191 HD
HETATM    6  C   UNL     1     -40.301  53.412 -51.762  1.00  0.00     0.134 A 
HETATM    7  C   UNL     1     -41.087  54.543 -51.591  1.00  0.00     0.032 A 
HETATM    8  C   UNL     1     -42.211  55.114 -52.406  1.00  0.00     0.121 C 
HETATM    9  S   UNL     1     -42.759  54.211 -53.874  1.00  0.00    -0.140 SA
HETATM   10  C   UNL     1     -41.231  53.641 -54.665  1.00  0.00     0.136 C 
HETATM   11  C   UNL     1     -40.150  54.666 -54.966  1.00  0.00     0.031 C 
HETATM   12  C   UNL     1     -40.665  52.407 -53.989  1.00  0.00     0.236 C 
HETATM   13  O   UNL     1     -40.526  51.353 -54.622  1.00  0.00    -0.272 OA
HETATM   14  N   UNL     1     -40.174  52.436 -52.721  1.00  0.00    -0.311 N 
HETATM   15  H   UNL     1     -39.689  51.576 -52.486  1.00  0.00     0.170 HD
ENDROOT
BRANCH   8  16
HETATM   16  C   UNL     1     -42.007  56.611 -52.656  1.00  0.00    -0.018 A 
HETATM   17  C   UNL     1     -43.001  57.545 -52.286  1.00  0.00     0.041 A 
HETATM   18 CL   UNL     1     -44.477  57.081 -51.505  1.00  0.00    -0.084 Cl
HETATM   19  C   UNL     1     -42.833  58.918 -52.512  1.00  0.00     0.024 A 
HETATM   20  C   UNL     1     -41.674  59.396 -53.113  1.00  0.00     0.002 A 
HETATM   21  C   UNL     1     -40.679  58.502 -53.486  1.00  0.00     0.001 A 
HETATM   22  C   UNL     1     -40.844  57.132 -53.260  1.00  0.00     0.010 A 
ENDBRANCH   8  16
TORSDOF 1
ENDMDL
MODEL 3
REMARK VINA RESULT:      -6.6      3.956      5.145
REMARK  1 active torsions:
REMARK  status: ('A' for Active; 'I' for Inactive)
REMARK    1  A    between atoms: C_8  and  C_9 
ROOT
HETATM    1  C   UNL     1     -39.580  58.779 -52.829  1.00  0.00     0.073 C 
HETATM    2  C   UNL     1     -40.705  59.050 -51.892  1.00  0.00     0.062 A 
HETATM    3  N   UNL     1     -40.466  59.771 -50.794  1.00  0.00    -0.178 NA
HETATM    4  N   UNL     1     -41.666  59.905 -50.234  1.00  0.00    -0.262 N 
HETATM    5  H   UNL     1     -41.734  60.458 -49.387  1.00  0.00     0.191 HD
HETATM    6  C   UNL     1     -42.676  59.245 -50.885  1.00  0.00     0.134 A 
HETATM    7  C   UNL     1     -42.088  58.647 -51.991  1.00  0.00     0.032 A 
HETATM    8  C   UNL     1     -42.674  57.910 -53.161  1.00  0.00     0.121 C 
HETATM    9  S   UNL     1     -44.473  57.763 -53.277  1.00  0.00    -0.140 SA
HETATM   10  C   UNL     1     -45.019  57.410 -51.584  1.00  0.00     0.136 C 
HETATM   11  C   UNL     1     -44.374  56.248 -50.848  1.00  0.00     0.031 C 
HETATM   12  C   UNL     1     -45.071  58.661 -50.729  1.00  0.00     0.236 C 
HETATM   13  O   UNL     1     -46.138  59.028 -50.220  1.00  0.00    -0.272 OA
HETATM   14  N   UNL     1     -43.951  59.350 -50.383  1.00  0.00    -0.311 N 
HETATM   15  H   UNL     1     -44.147  60.056 -49.680  1.00  0.00     0.170 HD
ENDROOT
BRANCH   8  16
HETATM   16  C   UNL     1     -41.941  56.589 -53.404  1.00  0.00    -0.018 A 
HETATM   17  C   UNL     1     -41.680  56.141 -54.719  1.00  0.00     0.041 A 
HETATM   18 CL   UNL     1     -42.127  57.052 -56.124  1.00  0.00    -0.084 Cl
HETATM   19  C   UNL     1     -41.014  54.931 -54.960  1.00  0.00     0.024 A 
HETATM   20  C   UNL     1     -40.594  54.136 -53.899  1.00  0.00     0.002 A 
HETATM   21  C   UNL     1     -40.835  54.551 -52.596  1.00  0.00     0.001 A 
HETATM   22  C   UNL     1     -41.497  55.758 -52.354  1.00  0.00     0.010 A 
ENDBRANCH   8  16
TORSDOF 1
ENDMDL
MODEL 4
REMARK VINA RESULT:      -6.4      3.897      5.287
REMARK  1 active torsions:
REMARK  status: ('A' for Active; 'I' for Inactive)
REMARK    1  A    between atoms: C_8  and  C_9 
ROOT
HETATM    1  C   UNL     1     -44.497  55.272 -54.330  1.00  0.00     0.073 C 
HETATM    2  C   UNL     1     -44.214  56.682 -53.941  1.00  0.00     0.062 A 
HETATM    3  N   UNL     1     -44.929  57.658 -54.502  1.00  0.00    -0.178 NA
HETATM    4  N   UNL     1     -44.502  58.759 -53.888  1.00  0.00    -0.262 N 
HETATM    5  H   UNL     1     -44.939  59.639 -54.135  1.00  0.00     0.191 HD
HETATM    6  C   UNL     1     -43.487  58.553 -52.990  1.00  0.00     0.134 A 
HETATM    7  C   UNL     1     -43.246  57.186 -52.995  1.00  0.00     0.032 A 
HETATM    8  C   UNL     1     -42.366  56.321 -52.140  1.00  0.00     0.121 C 
HETATM    9  S   UNL     1     -41.446  57.093 -50.788  1.00  0.00    -0.140 SA
HETATM   10  C   UNL     1     -40.831  58.653 -51.478  1.00  0.00     0.136 C 
HETATM   11  C   UNL     1     -40.049  58.606 -52.779  1.00  0.00     0.031 C 
HETATM   12  C   UNL     1     -41.902  59.727 -51.502  1.00  0.00     0.236 C 
HETATM   13  O   UNL     1     -41.744  60.783 -50.878  1.00  0.00    -0.272 OA
HETATM   14  N   UNL     1     -43.002  59.636 -52.296  1.00  0.00    -0.311 N 
HETATM   15  H   UNL     1     -43.526  60.506 -52.314  1.00  0.00     0.170 HD
ENDROOT
BRANCH   8  16
HETATM   16  C   UNL     1     -41.512  55.384 -52.998  1.00  0.00    -0.018 A 
HETATM   17  C   UNL     1     -41.240  54.064 -52.572  1.00  0.00     0.041 A 
HETATM   18 CL   UNL     1     -41.870  53.409 -51.097  1.00  0.00    -0.084 Cl
HETATM   19  C   UNL     1     -40.456  53.195 -53.343  1.00  0.00     0.024 A 
HETATM   20  C   UNL     1     -39.920  53.618 -54.554  1.00  0.00     0.002 A 
HETATM   21  C   UNL     1     -40.172  54.909 -55.000  1.00  0.00     0.001 A 
HETATM   22  C   UNL     1     -40.955  55.777 -54.234  1.00  0.00     0.010 A 
ENDBRANCH   8  16
TORSDOF 1
ENDMDL
MODEL 5
REMARK VINA RESULT:      -6.3      2.743      4.278
REMARK  1 active torsions:
REMARK  status: ('A' for Active; 'I' for Inactive)
REMARK    1  A    between atoms: C_8  and  C_9 
ROOT
HETATM    1  C   UNL     1     -44.275  57.143 -51.202  1.00  0.00     0.073 C 
HETATM    2  C   UNL     1     -43.451  55.918 -51.395  1.00  0.00     0.062 A 
HETATM    3  N   UNL     1     -43.070  55.225 -50.320  1.00  0.00    -0.178 NA
HETATM    4  N   UNL     1     -42.442  54.167 -50.830  1.00  0.00    -0.262 N 
HETATM    5  H   UNL     1     -42.090  53.470 -50.185  1.00  0.00     0.191 HD
HETATM    6  C   UNL     1     -42.338  54.171 -52.197  1.00  0.00     0.134 A 
HETATM    7  C   UNL     1     -42.982  55.323 -52.625  1.00  0.00     0.032 A 
HETATM    8  C   UNL     1     -43.332  55.825 -53.996  1.00  0.00     0.121 C 
HETATM    9  S   UNL     1     -42.933  54.788 -55.423  1.00  0.00    -0.140 SA
HETATM   10  C   UNL     1     -41.285  54.123 -55.067  1.00  0.00     0.136 C 
HETATM   11  C   UNL     1     -40.176  55.100 -54.713  1.00  0.00     0.031 C 
HETATM   12  C   UNL     1     -41.337  52.955 -54.101  1.00  0.00     0.236 C 
HETATM   13  O   UNL     1     -40.915  51.842 -54.439  1.00  0.00    -0.272 OA
HETATM   14  N   UNL     1     -41.721  53.103 -52.805  1.00  0.00    -0.311 N 
HETATM   15  H   UNL     1     -41.542  52.264 -52.262  1.00  0.00     0.170 HD
ENDROOT
BRANCH   8  16
HETATM   16  C   UNL     1     -42.914  57.287 -54.172  1.00  0.00    -0.018 A 
HETATM   17  C   UNL     1     -43.796  58.223 -54.757  1.00  0.00     0.041 A 
HETATM   18 CL   UNL     1     -45.397  57.805 -55.273  1.00  0.00    -0.084 Cl
HETATM   19  C   UNL     1     -43.427  59.564 -54.931  1.00  0.00     0.024 A 
HETATM   20  C   UNL     1     -42.171  60.006 -54.530  1.00  0.00     0.002 A 
HETATM   21  C   UNL     1     -41.283  59.109 -53.950  1.00  0.00     0.001 A 
HETATM   22  C   UNL     1     -41.650  57.772 -53.774  1.00  0.00     0.010 A 
ENDBRANCH   8  16
TORSDOF 1
ENDMDL
MODEL 6
REMARK VINA RESULT:      -6.3      3.750      5.398
REMARK  1 active torsions:
REMARK  status: ('A' for Active; 'I' for Inactive)
REMARK    1  A    between atoms: C_8  and  C_9 
ROOT
HETATM    1  C   UNL     1     -40.926  54.858 -52.149  1.00  0.00     0.073 C 
HETATM    2  C   UNL     1     -41.116  54.905 -53.625  1.00  0.00     0.062 A 
HETATM    3  N   UNL     1     -40.356  54.125 -54.395  1.00  0.00    -0.178 NA
HETATM    4  N   UNL     1     -40.827  54.333 -55.623  1.00  0.00    -0.262 N 
HETATM    5  H   UNL     1     -40.414  53.808 -56.384  1.00  0.00     0.191 HD
HETATM    6  C   UNL     1     -41.826  55.269 -55.699  1.00  0.00     0.134 A 
HETATM    7  C   UNL     1     -42.049  55.693 -54.396  1.00  0.00     0.032 A 
HETATM    8  C   UNL     1     -43.096  56.590 -53.800  1.00  0.00     0.121 C 
HETATM    9  S   UNL     1     -44.384  57.253 -54.883  1.00  0.00    -0.140 SA
HETATM   10  C   UNL     1     -43.516  57.717 -56.406  1.00  0.00     0.136 C 
HETATM   11  C   UNL     1     -42.305  58.628 -56.295  1.00  0.00     0.031 C 
HETATM   12  C   UNL     1     -43.241  56.518 -57.293  1.00  0.00     0.236 C 
HETATM   13  O   UNL     1     -43.707  56.465 -58.438  1.00  0.00    -0.272 OA
HETATM   14  N   UNL     1     -42.382  55.528 -56.928  1.00  0.00    -0.311 N 
HETATM   15  H   UNL     1     -42.190  54.895 -57.699  1.00  0.00     0.170 HD
ENDROOT
BRANCH   8  16
HETATM   16  C   UNL     1     -42.464  57.648 -52.892  1.00  0.00    -0.018 A 
HETATM   17  C   UNL     1     -43.103  58.046 -51.696  1.00  0.00     0.041 A 
HETATM   18 CL   UNL     1     -44.600  57.355 -51.161  1.00  0.00    -0.084 Cl
HETATM   19  C   UNL     1     -42.541  59.016 -50.855  1.00  0.00     0.024 A 
HETATM   20  C   UNL     1     -41.331  59.616 -51.184  1.00  0.00     0.002 A 
HETATM   21  C   UNL     1     -40.678  59.244 -52.352  1.00  0.00     0.001 A 
HETATM   22  C   UNL     1     -41.236  58.275 -53.191  1.00  0.00     0.010 A 
ENDBRANCH   8  16
TORSDOF 1
ENDMDL
MODEL 7
REMARK VINA RESULT:      -6.2     15.126     16.654
REMARK  1 active torsions:
REMARK  status: ('A' for Active; 'I' for Inactive)
REMARK    1  A    between atoms: C_8  and  C_9 
ROOT
HETATM    1  C   UNL     1     -38.274  41.364 -54.653  1.00  0.00     0.073 C 
HETATM    2  C   UNL     1     -36.858  41.386 -54.194  1.00  0.00     0.062 A 
HETATM    3  N   UNL     1     -36.515  42.223 -53.213  1.00  0.00    -0.178 NA
HETATM    4  N   UNL     1     -35.235  41.936 -52.983  1.00  0.00    -0.262 N 
HETATM    5  H   UNL     1     -34.764  42.436 -52.238  1.00  0.00     0.191 HD
HETATM    6  C   UNL     1     -34.704  40.988 -53.820  1.00  0.00     0.134 A 
HETATM    7  C   UNL     1     -35.740  40.597 -54.656  1.00  0.00     0.032 A 
HETATM    8  C   UNL     1     -35.840  39.506 -55.683  1.00  0.00     0.121 C 
HETATM    9  S   UNL     1     -34.424  38.406 -55.916  1.00  0.00    -0.140 SA
HETATM   10  C   UNL     1     -32.976  39.494 -55.852  1.00  0.00     0.136 C 
HETATM   11  C   UNL     1     -32.945  40.706 -56.768  1.00  0.00     0.031 C 
HETATM   12  C   UNL     1     -32.596  39.854 -54.428  1.00  0.00     0.236 C 
HETATM   13  O   UNL     1     -31.481  39.553 -53.982  1.00  0.00    -0.272 OA
HETATM   14  N   UNL     1     -33.393  40.620 -53.636  1.00  0.00    -0.311 N 
HETATM   15  H   UNL     1     -32.918  40.900 -52.784  1.00  0.00     0.170 HD
ENDROOT
BRANCH   8  16
HETATM   16  C   UNL     1     -36.419  40.036 -56.997  1.00  0.00    -0.018 A 
HETATM   17  C   UNL     1     -37.237  39.216 -57.808  1.00  0.00     0.041 A 
HETATM   18 CL   UNL     1     -37.667  37.597 -57.366  1.00  0.00    -0.084 Cl
HETATM   19  C   UNL     1     -37.770  39.685 -59.017  1.00  0.00     0.024 A 
HETATM   20  C   UNL     1     -37.502  40.978 -59.450  1.00  0.00     0.002 A 
HETATM   21  C   UNL     1     -36.703  41.808 -58.674  1.00  0.00     0.001 A 
HETATM   22  C   UNL     1     -36.172  41.343 -57.467  1.00  0.00     0.010 A 
ENDBRANCH   8  16
TORSDOF 1
ENDMDL
MODEL 8
REMARK VINA RESULT:      -6.2      2.610      3.115
REMARK  1 active torsions:
REMARK  status: ('A' for Active; 'I' for Inactive)
REMARK    1  A    between atoms: C_8  and  C_9 
ROOT
HETATM    1  C   UNL     1     -42.061  58.212 -54.699  1.00  0.00     0.073 C 
HETATM    2  C   UNL     1     -41.801  56.785 -54.364  1.00  0.00     0.062 A 
HETATM    3  N   UNL     1     -41.718  55.897 -55.356  1.00  0.00    -0.178 NA
HETATM    4  N   UNL     1     -41.396  54.761 -54.741  1.00  0.00    -0.262 N 
HETATM    5  H   UNL     1     -41.244  53.939 -55.314  1.00  0.00     0.191 HD
HETATM    6  C   UNL     1     -41.328  54.853 -53.375  1.00  0.00     0.134 A 
HETATM    7  C   UNL     1     -41.602  56.178 -53.069  1.00  0.00     0.032 A 
HETATM    8  C   UNL     1     -41.544  56.940 -51.776  1.00  0.00     0.121 C 
HETATM    9  S   UNL     1     -40.972  56.079 -50.291  1.00  0.00    -0.140 SA
HETATM   10  C   UNL     1     -41.749  54.444 -50.375  1.00  0.00     0.136 C 
HETATM   11  C   UNL     1     -43.255  54.371 -50.561  1.00  0.00     0.031 C 
HETATM   12  C   UNL     1     -41.018  53.513 -51.323  1.00  0.00     0.236 C 
HETATM   13  O   UNL     1     -40.528  52.455 -50.909  1.00  0.00    -0.272 OA
HETATM   14  N   UNL     1     -40.980  53.728 -52.665  1.00  0.00    -0.311 N 
HETATM   15  H   UNL     1     -40.596  52.931 -53.163  1.00  0.00     0.170 HD
ENDROOT
BRANCH   8  16
HETATM   16  C   UNL     1     -42.824  57.748 -51.553  1.00  0.00    -0.018 A 
HETATM   17  C   UNL     1     -42.761  59.111 -51.184  1.00  0.00     0.041 A 
HETATM   18 CL   UNL     1     -41.263  59.961 -50.996  1.00  0.00    -0.084 Cl
HETATM   19  C   UNL     1     -43.924  59.864 -50.971  1.00  0.00     0.024 A 
HETATM   20  C   UNL     1     -45.178  59.280 -51.118  1.00  0.00     0.002 A 
HETATM   21  C   UNL     1     -45.271  57.943 -51.482  1.00  0.00     0.001 A 
HETATM   22  C   UNL     1     -44.113  57.190 -51.696  1.00  0.00     0.010 A 
ENDBRANCH   8  16
TORSDOF 1
ENDMDL
MODEL 9
REMARK VINA RESULT:      -6.1      3.827      5.451
REMARK  1 active torsions:
REMARK  status: ('A' for Active; 'I' for Inactive)
REMARK    1  A    between atoms: C_8  and  C_9 
ROOT
HETATM    1  C   UNL     1     -43.362  53.833 -55.458  1.00  0.00     0.073 C 
HETATM    2  C   UNL     1     -43.015  55.253 -55.745  1.00  0.00     0.062 A 
HETATM    3  N   UNL     1     -42.834  55.626 -57.013  1.00  0.00    -0.178 NA
HETATM    4  N   UNL     1     -42.633  56.940 -56.932  1.00  0.00    -0.262 N 
HETATM    5  H   UNL     1     -42.504  57.453 -57.797  1.00  0.00     0.191 HD
HETATM    6  C   UNL     1     -42.609  57.435 -55.654  1.00  0.00     0.134 A 
HETATM    7  C   UNL     1     -42.846  56.351 -54.822  1.00  0.00     0.032 A 
HETATM    8  C   UNL     1     -43.079  56.257 -53.341  1.00  0.00     0.121 C 
HETATM    9  S   UNL     1     -43.136  57.786 -52.377  1.00  0.00    -0.140 SA
HETATM   10  C   UNL     1     -41.795  58.806 -53.046  1.00  0.00     0.136 C 
HETATM   11  C   UNL     1     -40.402  58.203 -53.123  1.00  0.00     0.031 C 
HETATM   12  C   UNL     1     -42.189  59.486 -54.343  1.00  0.00     0.236 C 
HETATM   13  O   UNL     1     -42.189  60.720 -54.428  1.00  0.00    -0.272 OA
HETATM   14  N   UNL     1     -42.427  58.787 -55.485  1.00  0.00    -0.311 N 
HETATM   15  H   UNL     1     -42.514  59.400 -56.289  1.00  0.00     0.170 HD
ENDROOT
BRANCH   8  16
HETATM   16  C   UNL     1     -42.199  55.175 -52.711  1.00  0.00    -0.018 A 
HETATM   17  C   UNL     1     -42.585  54.542 -51.507  1.00  0.00     0.041 A 
HETATM   18 CL   UNL     1     -44.069  54.910 -50.692  1.00  0.00    -0.084 Cl
HETATM   19  C   UNL     1     -41.788  53.553 -50.914  1.00  0.00     0.024 A 
HETATM   20  C   UNL     1     -40.588  53.171 -51.502  1.00  0.00     0.002 A 
HETATM   21  C   UNL     1     -40.183  53.773 -52.686  1.00  0.00     0.001 A 
HETATM   22  C   UNL     1     -40.977  54.758 -53.280  1.00  0.00     0.010 A 
ENDBRANCH   8  16
TORSDOF 1
ENDMDL
MODEL 10
REMARK VINA RESULT:      -6.0      3.345      5.135
REMARK  1 active torsions:
REMARK  status: ('A' for Active; 'I' for Inactive)
REMARK    1  A    between atoms: C_8  and  C_9 
ROOT
HETATM    1  C   UNL     1     -40.854  52.566 -52.828  1.00  0.00     0.073 C 
HETATM    2  C   UNL     1     -40.884  53.472 -54.010  1.00  0.00     0.062 A 
HETATM    3  N   UNL     1     -40.046  53.235 -55.021  1.00  0.00    -0.178 NA
HETATM    4  N   UNL     1     -40.382  54.146 -55.932  1.00  0.00    -0.262 N 
HETATM    5  H   UNL     1     -39.889  54.134 -56.817  1.00  0.00     0.191 HD
HETATM    6  C   UNL     1     -41.365  55.015 -55.534  1.00  0.00     0.134 A 
HETATM    7  C   UNL     1     -41.727  54.619 -54.254  1.00  0.00     0.032 A 
HETATM    8  C   UNL     1     -42.830  55.070 -53.341  1.00  0.00     0.121 C 
HETATM    9  S   UNL     1     -43.992  56.319 -53.940  1.00  0.00    -0.140 SA
HETATM   10  C   UNL     1     -42.963  57.522 -54.824  1.00  0.00     0.136 C 
HETATM   11  C   UNL     1     -41.770  58.120 -54.099  1.00  0.00     0.031 C 
HETATM   12  C   UNL     1     -42.596  57.045 -56.216  1.00  0.00     0.236 C 
HETATM   13  O   UNL     1     -42.936  57.696 -57.212  1.00  0.00    -0.272 OA
HETATM   14  N   UNL     1     -41.784  55.974 -56.425  1.00  0.00    -0.311 N 
HETATM   15  H   UNL     1     -41.511  55.894 -57.399  1.00  0.00     0.170 HD
ENDROOT
BRANCH   8  16
HETATM   16  C   UNL     1     -42.298  55.361 -51.935  1.00  0.00    -0.018 A 
HETATM   17  C   UNL     1     -42.875  54.742 -50.803  1.00  0.00     0.041 A 
HETATM   18 CL   UNL     1     -44.175  53.603 -50.922  1.00  0.00    -0.084 Cl
HETATM   19  C   UNL     1     -42.403  55.002 -49.509  1.00  0.00     0.024 A 
HETATM   20  C   UNL     1     -41.349  55.886 -49.308  1.00  0.00     0.002 A 
HETATM   21  C   UNL     1     -40.760  56.508 -50.401  1.00  0.00     0.001 A 
HETATM   22  C   UNL     1     -41.227  56.248 -51.693  1.00  0.00     0.010 A 
ENDBRANCH   8  16
TORSDOF 1
ENDMDL
