MODEL 1
REMARK VINA RESULT:      -7.5      0.000      0.000
REMARK  3 active torsions:
REMARK  status: ('A' for Active; 'I' for Inactive)
REMARK    1  A    between atoms: C_2  and  C_3 
REMARK    2  A    between atoms: C_7  and  N_8 
REMARK       I    between atoms: N_8  and  C_9 
REMARK    3  A    between atoms: C_9  and  C_10 
ROOT
HETATM    1  N   UNL     1     -42.961  55.897 -55.823  1.00  0.00    -0.309 N 
HETATM    2  C   UNL     1     -41.975  55.406 -54.988  1.00  0.00     0.234 C 
HETATM    3  O   UNL     1     -40.766  55.620 -55.061  1.00  0.00    -0.272 OA
HETATM    4  H   UNL     1     -43.920  55.628 -55.654  1.00  0.00     0.170 HD
ENDROOT
BRANCH   2   5
HETATM    5  C   UNL     1     -42.492  54.491 -53.885  1.00  0.00     0.138 C 
HETATM    6  C   UNL     1     -41.530  53.438 -53.463  1.00  0.00    -0.008 A 
HETATM    7  C   UNL     1     -41.006  53.769 -52.222  1.00  0.00     0.076 A 
HETATM    8  C   UNL     1     -41.107  52.304 -54.136  1.00  0.00     0.030 A 
HETATM    9  C   UNL     1     -40.042  52.999 -51.606  1.00  0.00     0.039 A 
HETATM   10  O   UNL     1     -41.496  54.945 -51.717  1.00  0.00    -0.349 OA
HETATM   11  C   UNL     1     -39.609  51.845 -52.266  1.00  0.00     0.022 A 
HETATM   12  C   UNL     1     -40.141  51.505 -53.520  1.00  0.00     0.011 A 
HETATM   13 BR   UNL     1     -39.528  49.945 -54.397  1.00  0.00    -0.051 Br
HETATM   14  C   UNL     1     -42.652  55.229 -52.553  1.00  0.00     0.194 C 
ENDBRANCH   2   5
BRANCH   1  15
HETATM   15  C   UNL     1     -42.766  56.778 -56.867  1.00  0.00     0.158 A 
HETATM   16  N   UNL     1     -42.293  58.015 -56.736  1.00  0.00    -0.156 NA
HETATM   17  N   UNL     1     -42.299  58.519 -57.971  1.00  0.00    -0.280 N 
HETATM   18  C   UNL     1     -42.760  57.649 -58.918  1.00  0.00     0.037 A 
HETATM   19  H   UNL     1     -41.983  59.475 -58.097  1.00  0.00     0.189 HD
HETATM   20  C   UNL     1     -43.060  56.481 -58.234  1.00  0.00     0.010 A 
HETATM   21  C   UNL     1     -43.588  55.216 -58.801  1.00  0.00     0.054 C 
BRANCH  18  22
HETATM   22  C   UNL     1     -42.863  58.032 -60.352  1.00  0.00     0.055 C 
HETATM   23  C   UNL     1     -41.989  59.235 -60.675  1.00  0.00     0.011 C 
ENDBRANCH  18  22
ENDBRANCH   1  15
TORSDOF 3
ENDMDL
MODEL 2
REMARK VINA RESULT:      -7.4      0.977      1.397
REMARK  3 active torsions:
REMARK  status: ('A' for Active; 'I' for Inactive)
REMARK    1  A    between atoms: C_2  and  C_3 
REMARK    2  A    between atoms: C_7  and  N_8 
REMARK       I    between atoms: N_8  and  C_9 
REMARK    3  A    between atoms: C_9  and  C_10 
ROOT
HETATM    1  N   UNL     1     -43.095  55.587 -56.049  1.00  0.00    -0.309 N 
HETATM    2  C   UNL     1     -42.087  55.242 -55.167  1.00  0.00     0.234 C 
HETATM    3  O   UNL     1     -40.894  55.523 -55.257  1.00  0.00    -0.272 OA
HETATM    4  H   UNL     1     -44.036  55.276 -55.858  1.00  0.00     0.170 HD
ENDROOT
BRANCH   2   5
HETATM    5  C   UNL     1     -42.557  54.405 -53.983  1.00  0.00     0.138 C 
HETATM    6  C   UNL     1     -41.562  53.408 -53.506  1.00  0.00    -0.008 A 
HETATM    7  C   UNL     1     -41.015  53.846 -52.308  1.00  0.00     0.076 A 
HETATM    8  C   UNL     1     -41.131  52.233 -54.099  1.00  0.00     0.030 A 
HETATM    9  C   UNL     1     -40.020  53.146 -51.661  1.00  0.00     0.039 A 
HETATM   10  O   UNL     1     -41.519  55.048 -51.884  1.00  0.00    -0.349 OA
HETATM   11  C   UNL     1     -39.578  51.953 -52.239  1.00  0.00     0.022 A 
HETATM   12  C   UNL     1     -40.133  51.505 -53.449  1.00  0.00     0.011 A 
HETATM   13 BR   UNL     1     -39.508  49.893 -54.218  1.00  0.00    -0.051 Br
HETATM   14  C   UNL     1     -42.700  55.242 -52.709  1.00  0.00     0.194 C 
ENDBRANCH   2   5
BRANCH   1  15
HETATM   15  C   UNL     1     -42.945  56.375 -57.172  1.00  0.00     0.158 A 
HETATM   16  N   UNL     1     -43.028  55.934 -58.425  1.00  0.00    -0.156 NA
HETATM   17  N   UNL     1     -42.789  57.005 -59.183  1.00  0.00    -0.280 N 
HETATM   18  C   UNL     1     -42.551  58.144 -58.468  1.00  0.00     0.037 A 
HETATM   19  H   UNL     1     -42.791  56.884 -60.191  1.00  0.00     0.189 HD
HETATM   20  C   UNL     1     -42.665  57.776 -57.137  1.00  0.00     0.010 A 
HETATM   21  C   UNL     1     -42.508  58.648 -55.946  1.00  0.00     0.054 C 
BRANCH  18  22
HETATM   22  C   UNL     1     -42.243  59.439 -59.135  1.00  0.00     0.055 C 
HETATM   23  C   UNL     1     -42.158  59.286 -60.646  1.00  0.00     0.011 C 
ENDBRANCH  18  22
ENDBRANCH   1  15
TORSDOF 3
ENDMDL
MODEL 3
REMARK VINA RESULT:      -7.3     14.626     15.563
REMARK  3 active torsions:
REMARK  status: ('A' for Active; 'I' for Inactive)
REMARK    1  A    between atoms: C_2  and  C_3 
REMARK    2  A    between atoms: C_7  and  N_8 
REMARK       I    between atoms: N_8  and  C_9 
REMARK    3  A    between atoms: C_9  and  C_10 
ROOT
HETATM    1  N   UNL     1     -36.141  42.150 -54.360  1.00  0.00    -0.309 N 
HETATM    2  C   UNL     1     -35.436  41.335 -53.493  1.00  0.00     0.234 C 
HETATM    3  O   UNL     1     -34.711  40.388 -53.789  1.00  0.00    -0.272 OA
HETATM    4  H   UNL     1     -36.712  42.889 -53.976  1.00  0.00     0.170 HD
ENDROOT
BRANCH   2   5
HETATM    5  C   UNL     1     -35.630  41.678 -52.021  1.00  0.00     0.138 C 
HETATM    6  C   UNL     1     -36.129  40.549 -51.190  1.00  0.00    -0.008 A 
HETATM    7  C   UNL     1     -35.094  40.069 -50.402  1.00  0.00     0.076 A 
HETATM    8  C   UNL     1     -37.380  39.956 -51.164  1.00  0.00     0.030 A 
HETATM    9  C   UNL     1     -35.253  38.983 -49.569  1.00  0.00     0.039 A 
HETATM   10  O   UNL     1     -33.912  40.739 -50.583  1.00  0.00    -0.349 OA
HETATM   11  C   UNL     1     -36.511  38.375 -49.521  1.00  0.00     0.022 A 
HETATM   12  C   UNL     1     -37.563  38.862 -50.315  1.00  0.00     0.011 A 
HETATM   13 BR   UNL     1     -39.252  38.013 -50.241  1.00  0.00    -0.051 Br
HETATM   14  C   UNL     1     -34.299  41.938 -51.311  1.00  0.00     0.194 C 
ENDBRANCH   2   5
BRANCH   1  15
HETATM   15  C   UNL     1     -36.102  42.082 -55.738  1.00  0.00     0.158 A 
HETATM   16  N   UNL     1     -35.074  42.469 -56.488  1.00  0.00    -0.156 NA
HETATM   17  N   UNL     1     -35.469  42.264 -57.745  1.00  0.00    -0.280 N 
HETATM   18  C   UNL     1     -36.729  41.748 -57.849  1.00  0.00     0.037 A 
HETATM   19  H   UNL     1     -34.827  42.511 -58.492  1.00  0.00     0.189 HD
HETATM   20  C   UNL     1     -37.175  41.593 -56.546  1.00  0.00     0.010 A 
HETATM   21  C   UNL     1     -38.485  41.058 -56.101  1.00  0.00     0.054 C 
BRANCH  18  22
HETATM   22  C   UNL     1     -37.355  41.468 -59.170  1.00  0.00     0.055 C 
HETATM   23  C   UNL     1     -37.318  42.688 -60.078  1.00  0.00     0.011 C 
ENDBRANCH  18  22
ENDBRANCH   1  15
TORSDOF 3
ENDMDL
MODEL 4
REMARK VINA RESULT:      -7.1      2.894      3.573
REMARK  3 active torsions:
REMARK  status: ('A' for Active; 'I' for Inactive)
REMARK    1  A    between atoms: C_2  and  C_3 
REMARK    2  A    between atoms: C_7  and  N_8 
REMARK       I    between atoms: N_8  and  C_9 
REMARK    3  A    between atoms: C_9  and  C_10 
ROOT
HETATM    1  N   UNL     1     -42.383  56.512 -56.514  1.00  0.00    -0.309 N 
HETATM    2  C   UNL     1     -42.218  55.310 -55.852  1.00  0.00     0.234 C 
HETATM    3  O   UNL     1     -43.023  54.383 -55.787  1.00  0.00    -0.272 OA
HETATM    4  H   UNL     1     -41.640  57.195 -56.475  1.00  0.00     0.170 HD
ENDROOT
BRANCH   2   5
HETATM    5  C   UNL     1     -40.886  55.178 -55.124  1.00  0.00     0.138 C 
HETATM    6  C   UNL     1     -40.942  55.522 -53.678  1.00  0.00    -0.008 A 
HETATM    7  C   UNL     1     -40.870  54.358 -52.928  1.00  0.00     0.076 A 
HETATM    8  C   UNL     1     -41.095  56.756 -53.068  1.00  0.00     0.030 A 
HETATM    9  C   UNL     1     -40.957  54.368 -51.552  1.00  0.00     0.039 A 
HETATM   10  O   UNL     1     -40.767  53.222 -53.689  1.00  0.00    -0.349 OA
HETATM   11  C   UNL     1     -41.102  55.605 -50.917  1.00  0.00     0.022 A 
HETATM   12  C   UNL     1     -41.170  56.786 -51.673  1.00  0.00     0.011 A 
HETATM   13 BR   UNL     1     -41.381  58.445 -50.789  1.00  0.00    -0.051 Br
HETATM   14  C   UNL     1     -40.433  53.719 -55.014  1.00  0.00     0.194 C 
ENDBRANCH   2   5
BRANCH   1  15
HETATM   15  C   UNL     1     -43.474  56.864 -57.284  1.00  0.00     0.158 A 
HETATM   16  N   UNL     1     -44.548  57.504 -56.829  1.00  0.00    -0.156 NA
HETATM   17  N   UNL     1     -45.358  57.607 -57.884  1.00  0.00    -0.280 N 
HETATM   18  C   UNL     1     -44.850  57.056 -59.025  1.00  0.00     0.037 A 
HETATM   19  H   UNL     1     -46.257  58.060 -57.750  1.00  0.00     0.189 HD
HETATM   20  C   UNL     1     -43.599  56.572 -58.677  1.00  0.00     0.010 A 
HETATM   21  C   UNL     1     -42.622  55.886 -59.559  1.00  0.00     0.054 C 
BRANCH  18  22
HETATM   22  C   UNL     1     -45.615  57.053 -60.302  1.00  0.00     0.055 C 
HETATM   23  C   UNL     1     -46.983  56.411 -60.136  1.00  0.00     0.011 C 
ENDBRANCH  18  22
ENDBRANCH   1  15
TORSDOF 3
ENDMDL
MODEL 5
REMARK VINA RESULT:      -7.1      4.114      7.199
REMARK  3 active torsions:
REMARK  status: ('A' for Active; 'I' for Inactive)
REMARK    1  A    between atoms: C_2  and  C_3 
REMARK    2  A    between atoms: C_7  and  N_8 
REMARK       I    between atoms: N_8  and  C_9 
REMARK    3  A    between atoms: C_9  and  C_10 
ROOT
HETATM    1  N   UNL     1     -41.909  54.402 -53.394  1.00  0.00    -0.309 N 
HETATM    2  C   UNL     1     -43.030  54.679 -52.634  1.00  0.00     0.234 C 
HETATM    3  O   UNL     1     -43.579  53.935 -51.823  1.00  0.00    -0.272 OA
HETATM    4  H   UNL     1     -41.570  55.105 -54.034  1.00  0.00     0.170 HD
ENDROOT
BRANCH   2   5
HETATM    5  C   UNL     1     -43.622  56.062 -52.879  1.00  0.00     0.138 C 
HETATM    6  C   UNL     1     -42.641  57.175 -52.770  1.00  0.00    -0.008 A 
HETATM    7  C   UNL     1     -42.347  57.650 -54.039  1.00  0.00     0.076 A 
HETATM    8  C   UNL     1     -42.016  57.697 -51.650  1.00  0.00     0.030 A 
HETATM    9  C   UNL     1     -41.421  58.649 -54.249  1.00  0.00     0.039 A 
HETATM   10  O   UNL     1     -43.017  56.994 -55.038  1.00  0.00    -0.349 OA
HETATM   11  C   UNL     1     -40.785  59.196 -53.130  1.00  0.00     0.022 A 
HETATM   12  C   UNL     1     -41.084  58.719 -51.843  1.00  0.00     0.011 A 
HETATM   13 BR   UNL     1     -40.200  59.467 -50.347  1.00  0.00    -0.051 Br
HETATM   14  C   UNL     1     -44.053  56.253 -54.336  1.00  0.00     0.194 C 
ENDBRANCH   2   5
BRANCH   1  15
HETATM   15  C   UNL     1     -41.160  53.244 -53.330  1.00  0.00     0.158 A 
HETATM   16  N   UNL     1     -41.103  52.323 -54.288  1.00  0.00    -0.156 NA
HETATM   17  N   UNL     1     -40.303  51.372 -53.804  1.00  0.00    -0.280 N 
HETATM   18  C   UNL     1     -39.826  51.638 -52.553  1.00  0.00     0.037 A 
HETATM   19  H   UNL     1     -40.133  50.555 -54.382  1.00  0.00     0.189 HD
HETATM   20  C   UNL     1     -40.351  52.874 -52.211  1.00  0.00     0.010 A 
HETATM   21  C   UNL     1     -40.133  53.628 -50.951  1.00  0.00     0.054 C 
BRANCH  18  22
HETATM   22  C   UNL     1     -38.934  50.687 -51.835  1.00  0.00     0.055 C 
HETATM   23  C   UNL     1     -39.711  49.816 -50.860  1.00  0.00     0.011 C 
ENDBRANCH  18  22
ENDBRANCH   1  15
TORSDOF 3
ENDMDL
MODEL 6
REMARK VINA RESULT:      -7.0      3.633      6.894
REMARK  3 active torsions:
REMARK  status: ('A' for Active; 'I' for Inactive)
REMARK    1  A    between atoms: C_2  and  C_3 
REMARK    2  A    between atoms: C_7  and  N_8 
REMARK       I    between atoms: N_8  and  C_9 
REMARK    3  A    between atoms: C_9  and  C_10 
ROOT
HETATM    1  N   UNL     1     -41.187  55.362 -52.646  1.00  0.00    -0.309 N 
HETATM    2  C   UNL     1     -42.442  55.801 -52.265  1.00  0.00     0.234 C 
HETATM    3  O   UNL     1     -43.368  55.116 -51.833  1.00  0.00    -0.272 OA
HETATM    4  H   UNL     1     -40.522  56.036 -52.996  1.00  0.00     0.170 HD
ENDROOT
BRANCH   2   5
HETATM    5  C   UNL     1     -42.656  57.300 -52.436  1.00  0.00     0.138 C 
HETATM    6  C   UNL     1     -43.136  57.699 -53.786  1.00  0.00    -0.008 A 
HETATM    7  C   UNL     1     -44.476  58.047 -53.709  1.00  0.00     0.076 A 
HETATM    8  C   UNL     1     -42.465  57.708 -54.997  1.00  0.00     0.030 A 
HETATM    9  C   UNL     1     -45.203  58.407 -54.824  1.00  0.00     0.039 A 
HETATM   10  O   UNL     1     -44.999  57.940 -52.447  1.00  0.00    -0.349 OA
HETATM   11  C   UNL     1     -44.541  58.431 -56.055  1.00  0.00     0.022 A 
HETATM   12  C   UNL     1     -43.182  58.083 -56.135  1.00  0.00     0.011 A 
HETATM   13 BR   UNL     1     -42.314  58.111 -57.815  1.00  0.00    -0.051 Br
HETATM   14  C   UNL     1     -43.827  57.814 -51.594  1.00  0.00     0.194 C 
ENDBRANCH   2   5
BRANCH   1  15
HETATM   15  C   UNL     1     -40.725  54.065 -52.548  1.00  0.00     0.158 A 
HETATM   16  N   UNL     1     -40.565  53.402 -51.406  1.00  0.00    -0.156 NA
HETATM   17  N   UNL     1     -40.073  52.215 -51.764  1.00  0.00    -0.280 N 
HETATM   18  C   UNL     1     -39.905  52.072 -53.111  1.00  0.00     0.037 A 
HETATM   19  H   UNL     1     -39.861  51.547 -51.030  1.00  0.00     0.189 HD
HETATM   20  C   UNL     1     -40.343  53.264 -53.667  1.00  0.00     0.010 A 
HETATM   21  C   UNL     1     -40.382  53.625 -55.106  1.00  0.00     0.054 C 
BRANCH  18  22
HETATM   22  C   UNL     1     -39.347  50.826 -53.705  1.00  0.00     0.055 C 
HETATM   23  C   UNL     1     -40.422  50.008 -54.405  1.00  0.00     0.011 C 
ENDBRANCH  18  22
ENDBRANCH   1  15
TORSDOF 3
ENDMDL
MODEL 7
REMARK VINA RESULT:      -6.7      2.110      2.480
REMARK  3 active torsions:
REMARK  status: ('A' for Active; 'I' for Inactive)
REMARK    1  A    between atoms: C_2  and  C_3 
REMARK    2  A    between atoms: C_7  and  N_8 
REMARK       I    between atoms: N_8  and  C_9 
REMARK    3  A    between atoms: C_9  and  C_10 
ROOT
HETATM    1  N   UNL     1     -44.096  55.792 -53.772  1.00  0.00    -0.309 N 
HETATM    2  C   UNL     1     -43.336  55.884 -52.621  1.00  0.00     0.234 C 
HETATM    3  O   UNL     1     -42.666  56.846 -52.249  1.00  0.00    -0.272 OA
HETATM    4  H   UNL     1     -44.590  54.932 -53.961  1.00  0.00     0.170 HD
ENDROOT
BRANCH   2   5
HETATM    5  C   UNL     1     -43.349  54.624 -51.764  1.00  0.00     0.138 C 
HETATM    6  C   UNL     1     -42.089  53.835 -51.818  1.00  0.00    -0.008 A 
HETATM    7  C   UNL     1     -41.393  54.004 -50.631  1.00  0.00     0.076 A 
HETATM    8  C   UNL     1     -41.568  53.069 -52.848  1.00  0.00     0.030 A 
HETATM    9  C   UNL     1     -40.156  53.432 -50.421  1.00  0.00     0.039 A 
HETATM   10  O   UNL     1     -42.026  54.828 -49.738  1.00  0.00    -0.349 OA
HETATM   11  C   UNL     1     -39.617  52.647 -51.445  1.00  0.00     0.022 A 
HETATM   12  C   UNL     1     -40.322  52.470 -52.646  1.00  0.00     0.011 A 
HETATM   13 BR   UNL     1     -39.565  51.414 -54.021  1.00  0.00    -0.051 Br
HETATM   14  C   UNL     1     -43.375  54.946 -50.267  1.00  0.00     0.194 C 
ENDBRANCH   2   5
BRANCH   1  15
HETATM   15  C   UNL     1     -44.289  56.804 -54.691  1.00  0.00     0.158 A 
HETATM   16  N   UNL     1     -45.126  57.825 -54.530  1.00  0.00    -0.156 NA
HETATM   17  N   UNL     1     -45.026  58.534 -55.655  1.00  0.00    -0.280 N 
HETATM   18  C   UNL     1     -44.143  58.012 -56.557  1.00  0.00     0.037 A 
HETATM   19  H   UNL     1     -45.602  59.364 -55.748  1.00  0.00     0.189 HD
HETATM   20  C   UNL     1     -43.619  56.881 -55.951  1.00  0.00     0.010 A 
HETATM   21  C   UNL     1     -42.604  55.951 -56.506  1.00  0.00     0.054 C 
BRANCH  18  22
HETATM   22  C   UNL     1     -43.907  58.648 -57.882  1.00  0.00     0.055 C 
HETATM   23  C   UNL     1     -44.714  57.974 -58.980  1.00  0.00     0.011 C 
ENDBRANCH  18  22
ENDBRANCH   1  15
TORSDOF 3
ENDMDL
MODEL 8
REMARK VINA RESULT:      -6.5     15.163     17.876
REMARK  3 active torsions:
REMARK  status: ('A' for Active; 'I' for Inactive)
REMARK    1  A    between atoms: C_2  and  C_3 
REMARK    2  A    between atoms: C_7  and  N_8 
REMARK       I    between atoms: N_8  and  C_9 
REMARK    3  A    between atoms: C_9  and  C_10 
ROOT
HETATM    1  N   UNL     1     -33.291  40.891 -53.908  1.00  0.00    -0.309 N 
HETATM    2  C   UNL     1     -34.209  40.425 -54.832  1.00  0.00     0.234 C 
HETATM    3  O   UNL     1     -34.762  39.328 -54.839  1.00  0.00    -0.272 OA
HETATM    4  H   UNL     1     -32.904  41.815 -54.031  1.00  0.00     0.170 HD
ENDROOT
BRANCH   2   5
HETATM    5  C   UNL     1     -34.518  41.410 -55.953  1.00  0.00     0.138 C 
HETATM    6  C   UNL     1     -35.488  40.904 -56.961  1.00  0.00    -0.008 A 
HETATM    7  C   UNL     1     -36.709  41.536 -56.778  1.00  0.00     0.076 A 
HETATM    8  C   UNL     1     -35.327  39.930 -57.932  1.00  0.00     0.030 A 
HETATM    9  C   UNL     1     -37.815  41.221 -57.538  1.00  0.00     0.039 A 
HETATM   10  O   UNL     1     -36.709  42.438 -55.747  1.00  0.00    -0.349 OA
HETATM   11  C   UNL     1     -37.671  40.246 -58.529  1.00  0.00     0.022 A 
HETATM   12  C   UNL     1     -36.434  39.609 -58.720  1.00  0.00     0.011 A 
HETATM   13 BR   UNL     1     -36.269  38.283 -60.060  1.00  0.00    -0.051 Br
HETATM   14  C   UNL     1     -35.298  42.628 -55.449  1.00  0.00     0.194 C 
ENDBRANCH   2   5
BRANCH   1  15
HETATM   15  C   UNL     1     -32.875  40.217 -52.778  1.00  0.00     0.158 A 
HETATM   16  N   UNL     1     -31.970  39.242 -52.767  1.00  0.00    -0.156 NA
HETATM   17  N   UNL     1     -31.897  38.855 -51.492  1.00  0.00    -0.280 N 
HETATM   18  C   UNL     1     -32.727  39.548 -50.658  1.00  0.00     0.037 A 
HETATM   19  H   UNL     1     -31.263  38.097 -51.261  1.00  0.00     0.189 HD
HETATM   20  C   UNL     1     -33.375  40.471 -51.464  1.00  0.00     0.010 A 
HETATM   21  C   UNL     1     -34.381  41.480 -51.047  1.00  0.00     0.054 C 
BRANCH  18  22
HETATM   22  C   UNL     1     -32.804  39.249 -49.202  1.00  0.00     0.055 C 
HETATM   23  C   UNL     1     -31.695  39.942 -48.427  1.00  0.00     0.011 C 
ENDBRANCH  18  22
ENDBRANCH   1  15
TORSDOF 3
ENDMDL
MODEL 9
REMARK VINA RESULT:      -6.4      3.444      4.240
REMARK  3 active torsions:
REMARK  status: ('A' for Active; 'I' for Inactive)
REMARK    1  A    between atoms: C_2  and  C_3 
REMARK    2  A    between atoms: C_7  and  N_8 
REMARK       I    between atoms: N_8  and  C_9 
REMARK    3  A    between atoms: C_9  and  C_10 
ROOT
HETATM    1  N   UNL     1     -43.767  58.092 -55.251  1.00  0.00    -0.309 N 
HETATM    2  C   UNL     1     -42.756  58.844 -54.683  1.00  0.00     0.234 C 
HETATM    3  O   UNL     1     -41.714  59.215 -55.221  1.00  0.00    -0.272 OA
HETATM    4  H   UNL     1     -44.567  57.847 -54.686  1.00  0.00     0.170 HD
ENDROOT
BRANCH   2   5
HETATM    5  C   UNL     1     -42.998  59.212 -53.224  1.00  0.00     0.138 C 
HETATM    6  C   UNL     1     -42.641  58.141 -52.256  1.00  0.00    -0.008 A 
HETATM    7  C   UNL     1     -41.467  58.489 -51.603  1.00  0.00     0.076 A 
HETATM    8  C   UNL     1     -43.267  56.933 -52.002  1.00  0.00     0.030 A 
HETATM    9  C   UNL     1     -40.866  57.653 -50.686  1.00  0.00     0.039 A 
HETATM   10  O   UNL     1     -40.954  59.695 -52.004  1.00  0.00    -0.349 OA
HETATM   11  C   UNL     1     -41.488  56.433 -50.409  1.00  0.00     0.022 A 
HETATM   12  C   UNL     1     -42.679  56.080 -51.065  1.00  0.00     0.011 A 
HETATM   13 BR   UNL     1     -43.494  54.416 -50.682  1.00  0.00    -0.051 Br
HETATM   14  C   UNL     1     -42.046  60.310 -52.742  1.00  0.00     0.194 C 
ENDBRANCH   2   5
BRANCH   1  15
HETATM   15  C   UNL     1     -43.814  57.670 -56.564  1.00  0.00     0.158 A 
HETATM   16  N   UNL     1     -44.417  58.328 -57.551  1.00  0.00    -0.156 NA
HETATM   17  N   UNL     1     -44.252  57.559 -58.629  1.00  0.00    -0.280 N 
HETATM   18  C   UNL     1     -43.554  56.411 -58.384  1.00  0.00     0.037 A 
HETATM   19  H   UNL     1     -44.655  57.876 -59.505  1.00  0.00     0.189 HD
HETATM   20  C   UNL     1     -43.228  56.455 -57.038  1.00  0.00     0.010 A 
HETATM   21  C   UNL     1     -42.460  55.449 -56.264  1.00  0.00     0.054 C 
BRANCH  18  22
HETATM   22  C   UNL     1     -43.284  55.414 -59.456  1.00  0.00     0.055 C 
HETATM   23  C   UNL     1     -44.522  54.593 -59.783  1.00  0.00     0.011 C 
ENDBRANCH  18  22
ENDBRANCH   1  15
TORSDOF 3
ENDMDL
MODEL 10
REMARK VINA RESULT:      -6.4     14.880     17.338
REMARK  3 active torsions:
REMARK  status: ('A' for Active; 'I' for Inactive)
REMARK    1  A    between atoms: C_2  and  C_3 
REMARK    2  A    between atoms: C_7  and  N_8 
REMARK       I    between atoms: N_8  and  C_9 
REMARK    3  A    between atoms: C_9  and  C_10 
ROOT
HETATM    1  N   UNL     1     -36.396  40.786 -53.592  1.00  0.00    -0.309 N 
HETATM    2  C   UNL     1     -35.837  42.029 -53.827  1.00  0.00     0.234 C 
HETATM    3  O   UNL     1     -35.683  42.939 -53.016  1.00  0.00    -0.272 OA
HETATM    4  H   UNL     1     -36.472  40.134 -54.359  1.00  0.00     0.170 HD
ENDROOT
BRANCH   2   5
HETATM    5  C   UNL     1     -35.397  42.250 -55.269  1.00  0.00     0.138 C 
HETATM    6  C   UNL     1     -34.543  41.164 -55.821  1.00  0.00    -0.008 A 
HETATM    7  C   UNL     1     -35.286  40.408 -56.715  1.00  0.00     0.076 A 
HETATM    8  C   UNL     1     -33.231  40.833 -55.525  1.00  0.00     0.030 A 
HETATM    9  C   UNL     1     -34.766  39.295 -57.341  1.00  0.00     0.039 A 
HETATM   10  O   UNL     1     -36.578  40.843 -56.859  1.00  0.00    -0.349 OA
HETATM   11  C   UNL     1     -33.440  38.950 -57.062  1.00  0.00     0.022 A 
HETATM   12  C   UNL     1     -32.683  39.716 -56.161  1.00  0.00     0.011 A 
HETATM   13 BR   UNL     1     -30.896  39.219 -55.791  1.00  0.00    -0.051 Br
HETATM   14  C   UNL     1     -36.571  42.164 -56.249  1.00  0.00     0.194 C 
ENDBRANCH   2   5
BRANCH   1  15
HETATM   15  C   UNL     1     -36.831  40.319 -52.368  1.00  0.00     0.158 A 
HETATM   16  N   UNL     1     -38.108  40.178 -52.021  1.00  0.00    -0.156 NA
HETATM   17  N   UNL     1     -38.075  39.739 -50.761  1.00  0.00    -0.280 N 
HETATM   18  C   UNL     1     -36.812  39.583 -50.265  1.00  0.00     0.037 A 
HETATM   19  H   UNL     1     -38.960  39.576 -50.292  1.00  0.00     0.189 HD
HETATM   20  C   UNL     1     -35.961  39.936 -51.301  1.00  0.00     0.010 A 
HETATM   21  C   UNL     1     -34.477  39.934 -51.287  1.00  0.00     0.054 C 
BRANCH  18  22
HETATM   22  C   UNL     1     -36.569  39.122 -48.871  1.00  0.00     0.055 C 
HETATM   23  C   UNL     1     -36.839  37.634 -48.717  1.00  0.00     0.011 C 
ENDBRANCH  18  22
ENDBRANCH   1  15
TORSDOF 3
ENDMDL
