MODEL 1
REMARK VINA RESULT:      -7.9      0.000      0.000
REMARK  2 active torsions:
REMARK  status: ('A' for Active; 'I' for Inactive)
REMARK    1  A    between atoms: C_2  and  C_3 
REMARK    2  A    between atoms: C_6  and  C_7 
ROOT
HETATM    1  C   UNL     1     -41.705  57.222 -53.766  1.00  0.00     0.119 C 
HETATM    2  S   UNL     1     -41.499  57.841 -52.079  1.00  0.00    -0.141 SA
HETATM    3  C   UNL     1     -43.155  58.352 -51.546  1.00  0.00     0.136 C 
HETATM    4  C   UNL     1     -43.637  59.662 -52.157  1.00  0.00     0.031 C 
HETATM    5  C   UNL     1     -44.174  57.233 -51.579  1.00  0.00     0.236 C 
HETATM    6  O   UNL     1     -44.643  56.712 -50.576  1.00  0.00    -0.272 OA
HETATM    7  N   UNL     1     -44.750  56.768 -52.796  1.00  0.00    -0.311 N 
HETATM    8  C   UNL     1     -44.304  57.092 -54.054  1.00  0.00     0.134 C 
HETATM    9  C   UNL     1     -43.015  57.361 -54.468  1.00  0.00     0.032 C 
HETATM   10  N   UNL     1     -45.094  57.154 -55.169  1.00  0.00    -0.262 N 
HETATM   11  H   UNL     1     -46.086  56.963 -55.252  1.00  0.00     0.191 HD
HETATM   12  N   UNL     1     -44.458  57.630 -56.242  1.00  0.00    -0.178 NA
HETATM   13  C   UNL     1     -43.186  57.737 -55.844  1.00  0.00     0.062 C 
HETATM   14  C   UNL     1     -42.153  58.180 -56.820  1.00  0.00     0.073 C 
HETATM   15  H   UNL     1     -45.588  56.208 -52.680  1.00  0.00     0.170 HD
ENDROOT
BRANCH   1  16
HETATM   16  C   UNL     1     -41.335  55.748 -53.907  1.00  0.00    -0.040 A 
HETATM   17  C   UNL     1     -40.634  55.238 -55.015  1.00  0.00     0.009 A 
HETATM   18  C   UNL     1     -40.264  53.892 -55.079  1.00  0.00     0.007 A 
HETATM   19  C   UNL     1     -40.594  53.013 -54.042  1.00  0.00    -0.059 A 
HETATM   20  C   UNL     1     -41.309  53.502 -52.945  1.00  0.00     0.007 A 
HETATM   21  C   UNL     1     -41.678  54.848 -52.882  1.00  0.00     0.009 A 
BRANCH  19  22
HETATM   22  C   UNL     1     -40.153  51.573 -54.091  1.00  0.00     0.034 C 
HETATM   23  C   UNL     1     -39.542  51.131 -52.769  1.00  0.00     0.010 C 
ENDBRANCH  19  22
ENDBRANCH   1  16
TORSDOF 2
ENDMDL
MODEL 2
REMARK VINA RESULT:      -7.6      2.425      3.261
REMARK  2 active torsions:
REMARK  status: ('A' for Active; 'I' for Inactive)
REMARK    1  A    between atoms: C_2  and  C_3 
REMARK    2  A    between atoms: C_6  and  C_7 
ROOT
HETATM    1  C   UNL     1     -42.310  56.876 -51.163  1.00  0.00     0.119 C 
HETATM    2  S   UNL     1     -44.108  56.767 -50.990  1.00  0.00    -0.141 SA
HETATM    3  C   UNL     1     -44.785  57.781 -52.332  1.00  0.00     0.136 C 
HETATM    4  C   UNL     1     -44.676  59.283 -52.104  1.00  0.00     0.031 C 
HETATM    5  C   UNL     1     -44.358  57.324 -53.710  1.00  0.00     0.236 C 
HETATM    6  O   UNL     1     -45.111  56.789 -54.513  1.00  0.00    -0.272 OA
HETATM    7  N   UNL     1     -43.054  57.582 -54.225  1.00  0.00    -0.311 N 
HETATM    8  C   UNL     1     -41.992  58.044 -53.485  1.00  0.00     0.134 C 
HETATM    9  C   UNL     1     -41.702  57.810 -52.156  1.00  0.00     0.032 C 
HETATM   10  N   UNL     1     -40.971  58.806 -53.981  1.00  0.00    -0.262 N 
HETATM   11  H   UNL     1     -40.824  59.125 -54.932  1.00  0.00     0.191 HD
HETATM   12  N   UNL     1     -40.136  59.249 -53.038  1.00  0.00    -0.178 NA
HETATM   13  C   UNL     1     -40.547  58.634 -51.925  1.00  0.00     0.062 C 
HETATM   14  C   UNL     1     -39.792  58.839 -50.659  1.00  0.00     0.073 C 
HETATM   15  H   UNL     1     -42.964  57.461 -55.228  1.00  0.00     0.170 HD
ENDROOT
BRANCH   1  16
HETATM   16  C   UNL     1     -41.657  55.525 -51.440  1.00  0.00    -0.040 A 
HETATM   17  C   UNL     1     -41.943  54.757 -52.583  1.00  0.00     0.009 A 
HETATM   18  C   UNL     1     -41.280  53.551 -52.828  1.00  0.00     0.007 A 
HETATM   19  C   UNL     1     -40.320  53.072 -51.932  1.00  0.00    -0.059 A 
HETATM   20  C   UNL     1     -40.041  53.814 -50.780  1.00  0.00     0.007 A 
HETATM   21  C   UNL     1     -40.704  55.020 -50.537  1.00  0.00     0.009 A 
BRANCH  19  22
HETATM   22  C   UNL     1     -39.572  51.795 -52.220  1.00  0.00     0.034 C 
HETATM   23  C   UNL     1     -39.766  51.350 -53.663  1.00  0.00     0.010 C 
ENDBRANCH  19  22
ENDBRANCH   1  16
TORSDOF 2
ENDMDL
MODEL 3
REMARK VINA RESULT:      -7.5      2.590      3.798
REMARK  2 active torsions:
REMARK  status: ('A' for Active; 'I' for Inactive)
REMARK    1  A    between atoms: C_2  and  C_3 
REMARK    2  A    between atoms: C_6  and  C_7 
ROOT
HETATM    1  C   UNL     1     -42.687  55.525 -52.781  1.00  0.00     0.119 C 
HETATM    2  S   UNL     1     -44.161  55.408 -53.824  1.00  0.00    -0.141 SA
HETATM    3  C   UNL     1     -44.099  56.859 -54.911  1.00  0.00     0.136 C 
HETATM    4  C   UNL     1     -44.466  58.172 -54.232  1.00  0.00     0.031 C 
HETATM    5  C   UNL     1     -42.851  56.923 -55.764  1.00  0.00     0.236 C 
HETATM    6  O   UNL     1     -42.844  56.736 -56.974  1.00  0.00    -0.272 OA
HETATM    7  N   UNL     1     -41.588  57.315 -55.233  1.00  0.00    -0.311 N 
HETATM    8  C   UNL     1     -41.302  57.447 -53.896  1.00  0.00     0.134 C 
HETATM    9  C   UNL     1     -41.820  56.739 -52.831  1.00  0.00     0.032 C 
HETATM   10  N   UNL     1     -40.375  58.310 -53.380  1.00  0.00    -0.262 N 
HETATM   11  H   UNL     1     -39.762  58.949 -53.873  1.00  0.00     0.191 HD
HETATM   12  N   UNL     1     -40.383  58.357 -52.045  1.00  0.00    -0.178 NA
HETATM   13  C   UNL     1     -41.236  57.390 -51.691  1.00  0.00     0.062 C 
HETATM   14  C   UNL     1     -41.447  57.101 -50.247  1.00  0.00     0.073 C 
HETATM   15  H   UNL     1     -40.895  57.565 -55.931  1.00  0.00     0.170 HD
ENDROOT
BRANCH   1  16
HETATM   16  C   UNL     1     -41.732  54.349 -52.970  1.00  0.00    -0.040 A 
HETATM   17  C   UNL     1     -40.978  53.800 -51.917  1.00  0.00     0.009 A 
HETATM   18  C   UNL     1     -40.159  52.685 -52.119  1.00  0.00     0.007 A 
HETATM   19  C   UNL     1     -40.060  52.095 -53.383  1.00  0.00    -0.059 A 
HETATM   20  C   UNL     1     -40.787  52.644 -54.443  1.00  0.00     0.007 A 
HETATM   21  C   UNL     1     -41.607  53.757 -54.240  1.00  0.00     0.009 A 
BRANCH  19  22
HETATM   22  C   UNL     1     -39.213  50.866 -53.589  1.00  0.00     0.034 C 
HETATM   23  C   UNL     1     -39.845  49.914 -54.594  1.00  0.00     0.010 C 
ENDBRANCH  19  22
ENDBRANCH   1  16
TORSDOF 2
ENDMDL
MODEL 4
REMARK VINA RESULT:      -6.8      2.710      4.284
REMARK  2 active torsions:
REMARK  status: ('A' for Active; 'I' for Inactive)
REMARK    1  A    between atoms: C_2  and  C_3 
REMARK    2  A    between atoms: C_6  and  C_7 
ROOT
HETATM    1  C   UNL     1     -41.217  55.791 -52.996  1.00  0.00     0.119 C 
HETATM    2  S   UNL     1     -41.011  54.113 -52.351  1.00  0.00    -0.141 SA
HETATM    3  C   UNL     1     -42.003  54.054 -50.834  1.00  0.00     0.136 C 
HETATM    4  C   UNL     1     -41.382  54.778 -49.645  1.00  0.00     0.031 C 
HETATM    5  C   UNL     1     -43.469  54.361 -51.056  1.00  0.00     0.236 C 
HETATM    6  O   UNL     1     -44.357  53.522 -50.981  1.00  0.00    -0.272 OA
HETATM    7  N   UNL     1     -43.943  55.687 -51.270  1.00  0.00    -0.311 N 
HETATM    8  C   UNL     1     -43.147  56.777 -51.526  1.00  0.00     0.134 C 
HETATM    9  C   UNL     1     -41.942  56.824 -52.199  1.00  0.00     0.032 C 
HETATM   10  N   UNL     1     -43.456  58.065 -51.187  1.00  0.00    -0.262 N 
HETATM   11  H   UNL     1     -44.291  58.415 -50.729  1.00  0.00     0.191 HD
HETATM   12  N   UNL     1     -42.461  58.926 -51.414  1.00  0.00    -0.178 NA
HETATM   13  C   UNL     1     -41.541  58.196 -52.053  1.00  0.00     0.062 C 
HETATM   14  C   UNL     1     -40.296  58.855 -52.534  1.00  0.00     0.073 C 
HETATM   15  H   UNL     1     -44.944  55.802 -51.153  1.00  0.00     0.170 HD
ENDROOT
BRANCH   1  16
HETATM   16  C   UNL     1     -41.872  55.821 -54.373  1.00  0.00    -0.040 A 
HETATM   17  C   UNL     1     -41.894  56.970 -55.185  1.00  0.00     0.009 A 
HETATM   18  C   UNL     1     -42.454  56.940 -56.466  1.00  0.00     0.007 A 
HETATM   19  C   UNL     1     -43.019  55.764 -56.967  1.00  0.00    -0.059 A 
HETATM   20  C   UNL     1     -43.024  54.621 -56.163  1.00  0.00     0.007 A 
HETATM   21  C   UNL     1     -42.463  54.651 -54.884  1.00  0.00     0.009 A 
BRANCH  19  22
HETATM   22  C   UNL     1     -43.581  55.720 -58.365  1.00  0.00     0.034 C 
HETATM   23  C   UNL     1     -42.521  56.061 -59.403  1.00  0.00     0.010 C 
ENDBRANCH  19  22
ENDBRANCH   1  16
TORSDOF 2
ENDMDL
MODEL 5
REMARK VINA RESULT:      -6.6     16.815     18.753
REMARK  2 active torsions:
REMARK  status: ('A' for Active; 'I' for Inactive)
REMARK    1  A    between atoms: C_2  and  C_3 
REMARK    2  A    between atoms: C_6  and  C_7 
ROOT
HETATM    1  C   UNL     1     -34.751  39.005 -53.111  1.00  0.00     0.119 C 
HETATM    2  S   UNL     1     -33.990  37.939 -54.359  1.00  0.00    -0.141 SA
HETATM    3  C   UNL     1     -33.773  38.987 -55.823  1.00  0.00     0.136 C 
HETATM    4  C   UNL     1     -35.057  39.272 -56.592  1.00  0.00     0.031 C 
HETATM    5  C   UNL     1     -32.911  40.206 -55.572  1.00  0.00     0.236 C 
HETATM    6  O   UNL     1     -31.780  40.343 -56.019  1.00  0.00    -0.272 OA
HETATM    7  N   UNL     1     -33.398  41.349 -54.872  1.00  0.00    -0.311 N 
HETATM    8  C   UNL     1     -34.573  41.397 -54.163  1.00  0.00     0.134 C 
HETATM    9  C   UNL     1     -35.201  40.384 -53.467  1.00  0.00     0.032 C 
HETATM   10  N   UNL     1     -35.325  42.524 -53.977  1.00  0.00    -0.262 N 
HETATM   11  H   UNL     1     -35.141  43.467 -54.300  1.00  0.00     0.191 HD
HETATM   12  N   UNL     1     -36.494  42.287 -53.377  1.00  0.00    -0.178 NA
HETATM   13  C   UNL     1     -36.427  40.996 -53.034  1.00  0.00     0.062 C 
HETATM   14  C   UNL     1     -37.548  40.388 -52.268  1.00  0.00     0.073 C 
HETATM   15  H   UNL     1     -32.834  42.184 -54.984  1.00  0.00     0.170 HD
ENDROOT
BRANCH   1  16
HETATM   16  C   UNL     1     -33.880  39.182 -51.871  1.00  0.00    -0.040 A 
HETATM   17  C   UNL     1     -32.517  39.524 -51.935  1.00  0.00     0.009 A 
HETATM   18  C   UNL     1     -31.768  39.733 -50.773  1.00  0.00     0.007 A 
HETATM   19  C   UNL     1     -32.357  39.595 -49.513  1.00  0.00    -0.059 A 
HETATM   20  C   UNL     1     -33.705  39.234 -49.434  1.00  0.00     0.007 A 
HETATM   21  C   UNL     1     -34.454  39.027 -50.596  1.00  0.00     0.009 A 
BRANCH  19  22
HETATM   22  C   UNL     1     -31.561  39.866 -48.262  1.00  0.00     0.034 C 
HETATM   23  C   UNL     1     -31.674  38.718 -47.270  1.00  0.00     0.010 C 
ENDBRANCH  19  22
ENDBRANCH   1  16
TORSDOF 2
ENDMDL
MODEL 6
REMARK VINA RESULT:      -6.5     15.838     18.251
REMARK  2 active torsions:
REMARK  status: ('A' for Active; 'I' for Inactive)
REMARK    1  A    between atoms: C_2  and  C_3 
REMARK    2  A    between atoms: C_6  and  C_7 
ROOT
HETATM    1  C   UNL     1     -34.840  39.426 -53.560  1.00  0.00     0.119 C 
HETATM    2  S   UNL     1     -36.273  39.190 -54.639  1.00  0.00    -0.141 SA
HETATM    3  C   UNL     1     -37.255  40.706 -54.477  1.00  0.00     0.136 C 
HETATM    4  C   UNL     1     -38.032  40.817 -53.171  1.00  0.00     0.031 C 
HETATM    5  C   UNL     1     -36.501  41.960 -54.865  1.00  0.00     0.236 C 
HETATM    6  O   UNL     1     -36.733  42.606 -55.877  1.00  0.00    -0.272 OA
HETATM    7  N   UNL     1     -35.520  42.549 -54.015  1.00  0.00    -0.311 N 
HETATM    8  C   UNL     1     -34.986  41.955 -52.898  1.00  0.00     0.134 C 
HETATM    9  C   UNL     1     -34.758  40.614 -52.661  1.00  0.00     0.032 C 
HETATM   10  N   UNL     1     -34.521  42.630 -51.803  1.00  0.00    -0.262 N 
HETATM   11  H   UNL     1     -34.479  43.632 -51.649  1.00  0.00     0.191 HD
HETATM   12  N   UNL     1     -34.185  41.828 -50.790  1.00  0.00    -0.178 NA
HETATM   13  C   UNL     1     -34.296  40.597 -51.300  1.00  0.00     0.062 C 
HETATM   14  C   UNL     1     -33.926  39.426 -50.460  1.00  0.00     0.073 C 
HETATM   15  H   UNL     1     -35.271  43.502 -54.255  1.00  0.00     0.170 HD
ENDROOT
BRANCH   1  16
HETATM   16  C   UNL     1     -33.516  39.413 -54.321  1.00  0.00    -0.040 A 
HETATM   17  C   UNL     1     -32.383  38.710 -53.872  1.00  0.00     0.009 A 
HETATM   18  C   UNL     1     -31.208  38.677 -54.628  1.00  0.00     0.007 A 
HETATM   19  C   UNL     1     -31.127  39.354 -55.848  1.00  0.00    -0.059 A 
HETATM   20  C   UNL     1     -32.238  40.075 -56.295  1.00  0.00     0.007 A 
HETATM   21  C   UNL     1     -33.413  40.107 -55.540  1.00  0.00     0.009 A 
BRANCH  19  22
HETATM   22  C   UNL     1     -29.874  39.279 -56.683  1.00  0.00     0.034 C 
HETATM   23  C   UNL     1     -28.893  38.258 -56.126  1.00  0.00     0.010 C 
ENDBRANCH  19  22
ENDBRANCH   1  16
TORSDOF 2
ENDMDL
MODEL 7
REMARK VINA RESULT:      -6.5      2.678      3.803
REMARK  2 active torsions:
REMARK  status: ('A' for Active; 'I' for Inactive)
REMARK    1  A    between atoms: C_2  and  C_3 
REMARK    2  A    between atoms: C_6  and  C_7 
ROOT
HETATM    1  C   UNL     1     -43.988  57.192 -54.103  1.00  0.00     0.119 C 
HETATM    2  S   UNL     1     -44.394  57.608 -55.817  1.00  0.00    -0.141 SA
HETATM    3  C   UNL     1     -43.811  59.309 -56.052  1.00  0.00     0.136 C 
HETATM    4  C   UNL     1     -44.687  60.372 -55.399  1.00  0.00     0.031 C 
HETATM    5  C   UNL     1     -42.328  59.481 -55.801  1.00  0.00     0.236 C 
HETATM    6  O   UNL     1     -41.510  59.692 -56.686  1.00  0.00    -0.272 OA
HETATM    7  N   UNL     1     -41.779  59.515 -54.487  1.00  0.00    -0.311 N 
HETATM    8  C   UNL     1     -42.456  59.174 -53.341  1.00  0.00     0.134 C 
HETATM    9  C   UNL     1     -43.454  58.235 -53.178  1.00  0.00     0.032 C 
HETATM   10  N   UNL     1     -42.204  59.697 -52.103  1.00  0.00    -0.262 N 
HETATM   11  H   UNL     1     -41.500  60.376 -51.835  1.00  0.00     0.191 HD
HETATM   12  N   UNL     1     -43.088  59.315 -51.178  1.00  0.00    -0.178 NA
HETATM   13  C   UNL     1     -43.841  58.405 -51.805  1.00  0.00     0.062 C 
HETATM   14  C   UNL     1     -44.909  57.698 -51.047  1.00  0.00     0.073 C 
HETATM   15  H   UNL     1     -40.835  59.882 -54.433  1.00  0.00     0.170 HD
ENDROOT
BRANCH   1  16
HETATM   16  C   UNL     1     -43.011  56.025 -53.991  1.00  0.00    -0.040 A 
HETATM   17  C   UNL     1     -41.899  55.875 -54.839  1.00  0.00     0.009 A 
HETATM   18  C   UNL     1     -40.995  54.823 -54.665  1.00  0.00     0.007 A 
HETATM   19  C   UNL     1     -41.182  53.885 -53.647  1.00  0.00    -0.059 A 
HETATM   20  C   UNL     1     -42.295  54.009 -52.810  1.00  0.00     0.007 A 
HETATM   21  C   UNL     1     -43.198  55.062 -52.983  1.00  0.00     0.009 A 
BRANCH  19  22
HETATM   22  C   UNL     1     -40.182  52.778 -53.432  1.00  0.00     0.034 C 
HETATM   23  C   UNL     1     -40.433  51.608 -54.373  1.00  0.00     0.010 C 
ENDBRANCH  19  22
ENDBRANCH   1  16
TORSDOF 2
ENDMDL
MODEL 8
REMARK VINA RESULT:      -6.2      3.380      4.799
REMARK  2 active torsions:
REMARK  status: ('A' for Active; 'I' for Inactive)
REMARK    1  A    between atoms: C_2  and  C_3 
REMARK    2  A    between atoms: C_6  and  C_7 
ROOT
HETATM    1  C   UNL     1     -43.053  57.223 -57.909  1.00  0.00     0.119 C 
HETATM    2  S   UNL     1     -42.247  58.828 -57.696  1.00  0.00    -0.141 SA
HETATM    3  C   UNL     1     -43.504  60.061 -58.128  1.00  0.00     0.136 C 
HETATM    4  C   UNL     1     -43.771  60.194 -59.622  1.00  0.00     0.031 C 
HETATM    5  C   UNL     1     -44.752  59.978 -57.274  1.00  0.00     0.236 C 
HETATM    6  O   UNL     1     -45.055  60.811 -56.431  1.00  0.00    -0.272 OA
HETATM    7  N   UNL     1     -45.735  58.964 -57.465  1.00  0.00    -0.311 N 
HETATM    8  C   UNL     1     -45.573  57.847 -58.247  1.00  0.00     0.134 C 
HETATM    9  C   UNL     1     -44.419  57.136 -58.505  1.00  0.00     0.032 C 
HETATM   10  N   UNL     1     -46.588  57.192 -58.889  1.00  0.00    -0.262 N 
HETATM   11  H   UNL     1     -47.581  57.401 -58.881  1.00  0.00     0.191 HD
HETATM   12  N   UNL     1     -46.161  56.223 -59.702  1.00  0.00    -0.178 NA
HETATM   13  C   UNL     1     -44.847  56.154 -59.463  1.00  0.00     0.062 C 
HETATM   14  C   UNL     1     -44.036  55.116 -60.155  1.00  0.00     0.073 C 
HETATM   15  H   UNL     1     -46.627  59.152 -57.021  1.00  0.00     0.170 HD
ENDROOT
BRANCH   1  16
HETATM   16  C   UNL     1     -43.136  56.423 -56.612  1.00  0.00    -0.040 A 
HETATM   17  C   UNL     1     -42.932  55.032 -56.557  1.00  0.00     0.009 A 
HETATM   18  C   UNL     1     -42.959  54.346 -55.339  1.00  0.00     0.007 A 
HETATM   19  C   UNL     1     -43.202  55.028 -54.143  1.00  0.00    -0.059 A 
HETATM   20  C   UNL     1     -43.428  56.406 -54.186  1.00  0.00     0.007 A 
HETATM   21  C   UNL     1     -43.400  57.092 -55.403  1.00  0.00     0.009 A 
BRANCH  19  22
HETATM   22  C   UNL     1     -43.185  54.294 -52.827  1.00  0.00     0.034 C 
HETATM   23  C   UNL     1     -41.777  53.855 -52.451  1.00  0.00     0.010 C 
ENDBRANCH  19  22
ENDBRANCH   1  16
TORSDOF 2
ENDMDL
MODEL 9
REMARK VINA RESULT:      -6.1     16.089     18.140
REMARK  2 active torsions:
REMARK  status: ('A' for Active; 'I' for Inactive)
REMARK    1  A    between atoms: C_2  and  C_3 
REMARK    2  A    between atoms: C_6  and  C_7 
ROOT
HETATM    1  C   UNL     1     -36.097  39.340 -53.580  1.00  0.00     0.119 C 
HETATM    2  S   UNL     1     -36.983  40.102 -52.198  1.00  0.00    -0.141 SA
HETATM    3  C   UNL     1     -35.698  40.618 -51.026  1.00  0.00     0.136 C 
HETATM    4  C   UNL     1     -35.076  39.477 -50.231  1.00  0.00     0.031 C 
HETATM    5  C   UNL     1     -34.697  41.589 -51.614  1.00  0.00     0.236 C 
HETATM    6  O   UNL     1     -34.638  42.772 -51.308  1.00  0.00    -0.272 OA
HETATM    7  N   UNL     1     -33.665  41.170 -52.503  1.00  0.00    -0.311 N 
HETATM    8  C   UNL     1     -33.593  39.935 -53.101  1.00  0.00     0.134 C 
HETATM    9  C   UNL     1     -34.625  39.110 -53.499  1.00  0.00     0.032 C 
HETATM   10  N   UNL     1     -32.431  39.313 -53.464  1.00  0.00    -0.262 N 
HETATM   11  H   UNL     1     -31.478  39.650 -53.375  1.00  0.00     0.191 HD
HETATM   12  N   UNL     1     -32.613  38.062 -53.894  1.00  0.00    -0.178 NA
HETATM   13  C   UNL     1     -33.942  37.928 -53.948  1.00  0.00     0.062 C 
HETATM   14  C   UNL     1     -34.524  36.658 -54.460  1.00  0.00     0.073 C 
HETATM   15  H   UNL     1     -32.916  41.843 -52.627  1.00  0.00     0.170 HD
ENDROOT
BRANCH   1  16
HETATM   16  C   UNL     1     -36.310  40.076 -54.900  1.00  0.00    -0.040 A 
HETATM   17  C   UNL     1     -36.618  39.415 -56.103  1.00  0.00     0.009 A 
HETATM   18  C   UNL     1     -36.863  40.131 -57.278  1.00  0.00     0.007 A 
HETATM   19  C   UNL     1     -36.797  41.527 -57.288  1.00  0.00    -0.059 A 
HETATM   20  C   UNL     1     -36.471  42.196 -56.105  1.00  0.00     0.007 A 
HETATM   21  C   UNL     1     -36.227  41.480 -54.930  1.00  0.00     0.009 A 
BRANCH  19  22
HETATM   22  C   UNL     1     -37.107  42.299 -58.545  1.00  0.00     0.034 C 
HETATM   23  C   UNL     1     -37.306  41.371 -59.735  1.00  0.00     0.010 C 
ENDBRANCH  19  22
ENDBRANCH   1  16
TORSDOF 2
ENDMDL
MODEL 10
REMARK VINA RESULT:      -6.1     16.404     18.244
REMARK  2 active torsions:
REMARK  status: ('A' for Active; 'I' for Inactive)
REMARK    1  A    between atoms: C_2  and  C_3 
REMARK    2  A    between atoms: C_6  and  C_7 
ROOT
HETATM    1  C   UNL     1     -34.276  40.886 -56.183  1.00  0.00     0.119 C 
HETATM    2  S   UNL     1     -35.225  42.352 -56.652  1.00  0.00    -0.141 SA
HETATM    3  C   UNL     1     -36.782  41.722 -57.336  1.00  0.00     0.136 C 
HETATM    4  C   UNL     1     -36.664  41.132 -58.735  1.00  0.00     0.031 C 
HETATM    5  C   UNL     1     -37.569  40.870 -56.363  1.00  0.00     0.236 C 
HETATM    6  O   UNL     1     -38.615  41.228 -55.838  1.00  0.00    -0.272 OA
HETATM    7  N   UNL     1     -37.202  39.527 -56.061  1.00  0.00    -0.311 N 
HETATM    8  C   UNL     1     -36.011  38.938 -56.410  1.00  0.00     0.134 C 
HETATM    9  C   UNL     1     -34.767  39.521 -56.538  1.00  0.00     0.032 C 
HETATM   10  N   UNL     1     -35.843  37.602 -56.650  1.00  0.00    -0.262 N 
HETATM   11  H   UNL     1     -36.531  36.859 -56.595  1.00  0.00     0.191 HD
HETATM   12  N   UNL     1     -34.629  37.296 -57.113  1.00  0.00    -0.178 NA
HETATM   13  C   UNL     1     -33.950  38.445 -57.027  1.00  0.00     0.062 C 
HETATM   14  C   UNL     1     -32.509  38.468 -57.399  1.00  0.00     0.073 C 
HETATM   15  H   UNL     1     -37.927  38.982 -55.607  1.00  0.00     0.170 HD
ENDROOT
BRANCH   1  16
HETATM   16  C   UNL     1     -33.981  40.823 -54.687  1.00  0.00    -0.040 A 
HETATM   17  C   UNL     1     -34.935  41.148 -53.705  1.00  0.00     0.009 A 
HETATM   18  C   UNL     1     -34.643  41.021 -52.344  1.00  0.00     0.007 A 
HETATM   19  C   UNL     1     -33.386  40.577 -51.925  1.00  0.00    -0.059 A 
HETATM   20  C   UNL     1     -32.421  40.271 -52.889  1.00  0.00     0.007 A 
HETATM   21  C   UNL     1     -32.714  40.396 -54.249  1.00  0.00     0.009 A 
BRANCH  19  22
HETATM   22  C   UNL     1     -33.088  40.396 -50.458  1.00  0.00     0.034 C 
HETATM   23  C   UNL     1     -31.743  39.717 -50.241  1.00  0.00     0.010 C 
ENDBRANCH  19  22
ENDBRANCH   1  16
TORSDOF 2
ENDMDL
