MODEL 1
REMARK VINA RESULT:      -9.5      0.000      0.000
REMARK  7 active torsions:
REMARK  status: ('A' for Active; 'I' for Inactive)
REMARK    1  A    between atoms: C_3  and  C_4 
REMARK    2  A    between atoms: C_4  and  S_5 
REMARK    3  A    between atoms: S_5  and  C_6 
REMARK    4  A    between atoms: C_6  and  C_7 
REMARK    5  A    between atoms: C_16  and  C_17 
REMARK       I    between atoms: C_17  and  N_18 
REMARK    6  A    between atoms: N_18  and  C_19 
REMARK    7  A    between atoms: C_19  and  C_20 
ROOT
HETATM    1  C   UNL     1     -43.539  55.127 -50.862  1.00  0.00     0.162 C 
HETATM    2  N   UNL     1     -43.625  54.165 -51.995  1.00  0.00    -0.277 NA
HETATM    3  C   UNL     1     -43.444  54.743 -53.266  1.00  0.00     0.036 A 
HETATM    4  C   UNL     1     -43.772  56.092 -53.507  1.00  0.00     0.057 A 
HETATM    5  N   UNL     1     -44.241  56.888 -52.454  1.00  0.00    -0.324 N 
HETATM    6  C   UNL     1     -44.304  56.428 -51.161  1.00  0.00     0.240 C 
HETATM    7  O   UNL     1     -44.881  57.080 -50.292  1.00  0.00    -0.271 OA
HETATM    8  C   UNL     1     -43.088  53.938 -54.352  1.00  0.00     0.027 A 
HETATM    9  C   UNL     1     -42.975  54.487 -55.633  1.00  0.00     0.019 A 
HETATM   10  C   UNL     1     -43.242  55.845 -55.847  1.00  0.00     0.034 A 
HETATM   11  C   UNL     1     -43.675  56.645 -54.784  1.00  0.00     0.048 A 
HETATM   12  H   UNL     1     -43.081  53.317 -51.862  1.00  0.00     0.128 HD
HETATM   13  H   UNL     1     -44.653  57.794 -52.630  1.00  0.00     0.169 HD
ENDROOT
BRANCH  10  14
HETATM   14  C   UNL     1     -43.094  56.393 -57.221  1.00  0.00     0.252 C 
HETATM   15  N   UNL     1     -43.864  55.797 -58.192  1.00  0.00    -0.353 N 
HETATM   16  H   UNL     1     -44.550  55.096 -57.948  1.00  0.00     0.163 HD
HETATM   17  O   UNL     1     -42.346  57.339 -57.434  1.00  0.00    -0.268 OA
BRANCH  15  18
HETATM   18  C   UNL     1     -43.752  56.192 -59.576  1.00  0.00     0.163 C 
BRANCH  18  19
HETATM   19  C   UNL     1     -45.041  56.788 -60.083  1.00  0.00    -0.019 A 
HETATM   20  C   UNL     1     -45.238  58.173 -60.197  1.00  0.00     0.042 A 
HETATM   21 CL   UNL     1     -44.008  59.308 -59.766  1.00  0.00    -0.084 Cl
HETATM   22  C   UNL     1     -46.444  58.683 -60.689  1.00  0.00     0.024 A 
HETATM   23  C   UNL     1     -47.466  57.817 -61.075  1.00  0.00     0.002 A 
HETATM   24  C   UNL     1     -47.283  56.441 -60.973  1.00  0.00     0.001 A 
HETATM   25  C   UNL     1     -46.079  55.930 -60.485  1.00  0.00     0.010 A 
ENDBRANCH  18  19
ENDBRANCH  15  18
ENDBRANCH  10  14
BRANCH   1  26
HETATM   26  C   UNL     1     -42.056  55.402 -50.535  1.00  0.00     0.103 C 
BRANCH  26  27
HETATM   27  S   UNL     1     -40.991  53.974 -50.132  1.00  0.00    -0.162 SA
BRANCH  27  28
HETATM   28  C   UNL     1     -40.227  53.669 -51.756  1.00  0.00     0.112 C 
BRANCH  28  29
HETATM   29  C   UNL     1     -39.985  52.193 -51.979  1.00  0.00    -0.043 A 
HETATM   30  C   UNL     1     -39.888  51.629 -53.270  1.00  0.00    -0.055 A 
HETATM   31  C   UNL     1     -39.996  52.466 -54.517  1.00  0.00     0.049 C 
HETATM   32  C   UNL     1     -39.667  50.247 -53.400  1.00  0.00     0.007 A 
HETATM   33  C   UNL     1     -39.565  49.428 -52.277  1.00  0.00     0.001 A 
HETATM   34  C   UNL     1     -39.679  49.977 -51.005  1.00  0.00     0.001 A 
HETATM   35  C   UNL     1     -39.888  51.349 -50.857  1.00  0.00     0.008 A 
ENDBRANCH  28  29
ENDBRANCH  27  28
ENDBRANCH  26  27
ENDBRANCH   1  26
TORSDOF 7
ENDMDL
MODEL 2
REMARK VINA RESULT:      -9.4      4.211      7.957
REMARK  7 active torsions:
REMARK  status: ('A' for Active; 'I' for Inactive)
REMARK    1  A    between atoms: C_3  and  C_4 
REMARK    2  A    between atoms: C_4  and  S_5 
REMARK    3  A    between atoms: S_5  and  C_6 
REMARK    4  A    between atoms: C_6  and  C_7 
REMARK    5  A    between atoms: C_16  and  C_17 
REMARK       I    between atoms: C_17  and  N_18 
REMARK    6  A    between atoms: N_18  and  C_19 
REMARK    7  A    between atoms: C_19  and  C_20 
ROOT
HETATM    1  C   UNL     1     -43.320  60.577 -52.944  1.00  0.00     0.162 C 
HETATM    2  N   UNL     1     -41.997  59.925 -53.152  1.00  0.00    -0.277 NA
HETATM    3  C   UNL     1     -41.898  58.626 -52.618  1.00  0.00     0.036 A 
HETATM    4  C   UNL     1     -42.670  58.232 -51.508  1.00  0.00     0.057 A 
HETATM    5  N   UNL     1     -43.593  59.130 -50.954  1.00  0.00    -0.324 N 
HETATM    6  C   UNL     1     -43.844  60.359 -51.513  1.00  0.00     0.240 C 
HETATM    7  O   UNL     1     -44.519  61.194 -50.914  1.00  0.00    -0.271 OA
HETATM    8  C   UNL     1     -40.905  57.758 -53.082  1.00  0.00     0.027 A 
HETATM    9  C   UNL     1     -40.749  56.491 -52.512  1.00  0.00     0.019 A 
HETATM   10  C   UNL     1     -41.568  56.088 -51.450  1.00  0.00     0.034 A 
HETATM   11  C   UNL     1     -42.513  56.976 -50.924  1.00  0.00     0.048 A 
HETATM   12  H   UNL     1     -41.647  59.993 -54.103  1.00  0.00     0.128 HD
HETATM   13  H   UNL     1     -44.024  58.947 -50.058  1.00  0.00     0.169 HD
ENDROOT
BRANCH  10  14
HETATM   14  C   UNL     1     -41.381  54.726 -50.882  1.00  0.00     0.252 C 
HETATM   15  N   UNL     1     -40.357  53.985 -51.424  1.00  0.00    -0.353 N 
HETATM   16  H   UNL     1     -39.725  54.394 -52.097  1.00  0.00     0.163 HD
HETATM   17  O   UNL     1     -42.093  54.333 -49.966  1.00  0.00    -0.268 OA
BRANCH  15  18
HETATM   18  C   UNL     1     -40.125  52.623 -51.007  1.00  0.00     0.163 C 
BRANCH  18  19
HETATM   19  C   UNL     1     -39.976  51.703 -52.192  1.00  0.00    -0.019 A 
HETATM   20  C   UNL     1     -39.633  50.348 -52.059  1.00  0.00     0.042 A 
HETATM   21 CL   UNL     1     -39.356  49.626 -50.514  1.00  0.00    -0.084 Cl
HETATM   22  C   UNL     1     -39.523  49.527 -53.186  1.00  0.00     0.024 A 
HETATM   23  C   UNL     1     -39.758  50.047 -54.458  1.00  0.00     0.002 A 
HETATM   24  C   UNL     1     -40.105  51.387 -54.606  1.00  0.00     0.001 A 
HETATM   25  C   UNL     1     -40.217  52.208 -53.482  1.00  0.00     0.010 A 
ENDBRANCH  18  19
ENDBRANCH  15  18
ENDBRANCH  10  14
BRANCH   1  26
HETATM   26  C   UNL     1     -44.319  60.056 -54.000  1.00  0.00     0.103 C 
BRANCH  26  27
HETATM   27  S   UNL     1     -43.679  59.681 -55.669  1.00  0.00    -0.162 SA
BRANCH  27  28
HETATM   28  C   UNL     1     -44.702  58.234 -56.091  1.00  0.00     0.112 C 
BRANCH  28  29
HETATM   29  C   UNL     1     -43.999  56.944 -55.731  1.00  0.00    -0.043 A 
HETATM   30  C   UNL     1     -43.100  56.301 -56.609  1.00  0.00    -0.055 A 
HETATM   31  C   UNL     1     -42.761  56.871 -57.961  1.00  0.00     0.049 C 
HETATM   32  C   UNL     1     -42.488  55.101 -56.208  1.00  0.00     0.007 A 
HETATM   33  C   UNL     1     -42.772  54.531 -54.969  1.00  0.00     0.001 A 
HETATM   34  C   UNL     1     -43.672  55.151 -54.109  1.00  0.00     0.001 A 
HETATM   35  C   UNL     1     -44.281  56.348 -54.487  1.00  0.00     0.008 A 
ENDBRANCH  28  29
ENDBRANCH  27  28
ENDBRANCH  26  27
ENDBRANCH   1  26
TORSDOF 7
ENDMDL
MODEL 3
REMARK VINA RESULT:      -9.2      2.114      2.883
REMARK  7 active torsions:
REMARK  status: ('A' for Active; 'I' for Inactive)
REMARK    1  A    between atoms: C_3  and  C_4 
REMARK    2  A    between atoms: C_4  and  S_5 
REMARK    3  A    between atoms: S_5  and  C_6 
REMARK    4  A    between atoms: C_6  and  C_7 
REMARK    5  A    between atoms: C_16  and  C_17 
REMARK       I    between atoms: C_17  and  N_18 
REMARK    6  A    between atoms: N_18  and  C_19 
REMARK    7  A    between atoms: C_19  and  C_20 
ROOT
HETATM    1  C   UNL     1     -41.315  57.746 -50.586  1.00  0.00     0.162 C 
HETATM    2  N   UNL     1     -42.661  57.418 -51.131  1.00  0.00    -0.277 NA
HETATM    3  C   UNL     1     -42.662  57.008 -52.477  1.00  0.00     0.036 A 
HETATM    4  C   UNL     1     -41.667  57.447 -53.373  1.00  0.00     0.057 A 
HETATM    5  N   UNL     1     -40.629  58.265 -52.908  1.00  0.00    -0.324 N 
HETATM    6  C   UNL     1     -40.488  58.583 -51.579  1.00  0.00     0.240 C 
HETATM    7  O   UNL     1     -39.681  59.440 -51.222  1.00  0.00    -0.271 OA
HETATM    8  C   UNL     1     -43.748  56.289 -52.985  1.00  0.00     0.027 A 
HETATM    9  C   UNL     1     -43.794  55.938 -54.338  1.00  0.00     0.019 A 
HETATM   10  C   UNL     1     -42.765  56.326 -55.205  1.00  0.00     0.034 A 
HETATM   11  C   UNL     1     -41.711  57.113 -54.727  1.00  0.00     0.048 A 
HETATM   12  H   UNL     1     -43.215  56.814 -50.530  1.00  0.00     0.128 HD
HETATM   13  H   UNL     1     -40.011  58.740 -53.552  1.00  0.00     0.169 HD
ENDROOT
BRANCH  10  14
HETATM   14  C   UNL     1     -42.844  55.918 -56.633  1.00  0.00     0.252 C 
HETATM   15  N   UNL     1     -42.632  56.917 -57.555  1.00  0.00    -0.353 N 
HETATM   16  H   UNL     1     -42.348  57.840 -57.259  1.00  0.00     0.163 HD
HETATM   17  O   UNL     1     -43.056  54.750 -56.933  1.00  0.00    -0.268 OA
BRANCH  15  18
HETATM   18  C   UNL     1     -42.757  56.660 -58.970  1.00  0.00     0.163 C 
BRANCH  18  19
HETATM   19  C   UNL     1     -44.169  56.886 -59.447  1.00  0.00    -0.019 A 
HETATM   20  C   UNL     1     -45.024  55.831 -59.803  1.00  0.00     0.042 A 
HETATM   21 CL   UNL     1     -44.520  54.180 -59.718  1.00  0.00    -0.084 Cl
HETATM   22  C   UNL     1     -46.333  56.086 -60.223  1.00  0.00     0.024 A 
HETATM   23  C   UNL     1     -46.806  57.396 -60.290  1.00  0.00     0.002 A 
HETATM   24  C   UNL     1     -45.972  58.452 -59.934  1.00  0.00     0.001 A 
HETATM   25  C   UNL     1     -44.665  58.200 -59.512  1.00  0.00     0.010 A 
ENDBRANCH  18  19
ENDBRANCH  15  18
ENDBRANCH  10  14
BRANCH   1  26
HETATM   26  C   UNL     1     -40.587  56.442 -50.199  1.00  0.00     0.103 C 
BRANCH  26  27
HETATM   27  S   UNL     1     -41.580  54.914 -50.072  1.00  0.00    -0.162 SA
BRANCH  27  28
HETATM   28  C   UNL     1     -40.279  53.661 -50.297  1.00  0.00     0.112 C 
BRANCH  28  29
HETATM   29  C   UNL     1     -40.252  53.149 -51.720  1.00  0.00    -0.043 A 
HETATM   30  C   UNL     1     -39.915  51.815 -52.038  1.00  0.00    -0.055 A 
HETATM   31  C   UNL     1     -39.580  50.802 -50.976  1.00  0.00     0.049 C 
HETATM   32  C   UNL     1     -39.906  51.412 -53.384  1.00  0.00     0.007 A 
HETATM   33  C   UNL     1     -40.204  52.313 -54.405  1.00  0.00     0.001 A 
HETATM   34  C   UNL     1     -40.518  53.632 -54.096  1.00  0.00     0.001 A 
HETATM   35  C   UNL     1     -40.541  54.047 -52.765  1.00  0.00     0.008 A 
ENDBRANCH  28  29
ENDBRANCH  27  28
ENDBRANCH  26  27
ENDBRANCH   1  26
TORSDOF 7
ENDMDL
MODEL 4
REMARK VINA RESULT:      -9.0      2.361      3.318
REMARK  7 active torsions:
REMARK  status: ('A' for Active; 'I' for Inactive)
REMARK    1  A    between atoms: C_3  and  C_4 
REMARK    2  A    between atoms: C_4  and  S_5 
REMARK    3  A    between atoms: S_5  and  C_6 
REMARK    4  A    between atoms: C_6  and  C_7 
REMARK    5  A    between atoms: C_16  and  C_17 
REMARK       I    between atoms: C_17  and  N_18 
REMARK    6  A    between atoms: N_18  and  C_19 
REMARK    7  A    between atoms: C_19  and  C_20 
ROOT
HETATM    1  C   UNL     1     -41.061  57.980 -50.593  1.00  0.00     0.162 C 
HETATM    2  N   UNL     1     -42.542  58.076 -50.714  1.00  0.00    -0.277 NA
HETATM    3  C   UNL     1     -43.019  58.080 -52.039  1.00  0.00     0.036 A 
HETATM    4  C   UNL     1     -42.228  58.569 -53.097  1.00  0.00     0.057 A 
HETATM    5  N   UNL     1     -40.925  59.012 -52.839  1.00  0.00    -0.324 N 
HETATM    6  C   UNL     1     -40.347  58.901 -51.597  1.00  0.00     0.240 C 
HETATM    7  O   UNL     1     -39.276  59.455 -51.353  1.00  0.00    -0.271 OA
HETATM    8  C   UNL     1     -44.353  57.751 -52.298  1.00  0.00     0.027 A 
HETATM    9  C   UNL     1     -44.859  57.821 -53.600  1.00  0.00     0.019 A 
HETATM   10  C   UNL     1     -44.042  58.247 -54.654  1.00  0.00     0.034 A 
HETATM   11  C   UNL     1     -42.729  58.655 -54.396  1.00  0.00     0.048 A 
HETATM   12  H   UNL     1     -43.050  57.436 -50.110  1.00  0.00     0.128 HD
HETATM   13  H   UNL     1     -40.404  59.532 -53.533  1.00  0.00     0.169 HD
ENDROOT
BRANCH  10  14
HETATM   14  C   UNL     1     -44.613  58.292 -56.027  1.00  0.00     0.252 C 
HETATM   15  N   UNL     1     -43.705  58.409 -57.052  1.00  0.00    -0.353 N 
HETATM   16  H   UNL     1     -42.712  58.369 -56.869  1.00  0.00     0.163 HD
HETATM   17  O   UNL     1     -45.823  58.196 -56.198  1.00  0.00    -0.268 OA
BRANCH  15  18
HETATM   18  C   UNL     1     -44.143  58.537 -58.422  1.00  0.00     0.163 C 
BRANCH  18  19
HETATM   19  C   UNL     1     -44.490  57.196 -59.015  1.00  0.00    -0.019 A 
HETATM   20  C   UNL     1     -45.713  56.949 -59.660  1.00  0.00     0.042 A 
HETATM   21 CL   UNL     1     -46.920  58.175 -59.825  1.00  0.00    -0.084 Cl
HETATM   22  C   UNL     1     -45.986  55.693 -60.212  1.00  0.00     0.024 A 
HETATM   23  C   UNL     1     -45.043  54.671 -60.131  1.00  0.00     0.002 A 
HETATM   24  C   UNL     1     -43.823  54.902 -59.500  1.00  0.00     0.001 A 
HETATM   25  C   UNL     1     -43.547  56.155 -58.950  1.00  0.00     0.010 A 
ENDBRANCH  18  19
ENDBRANCH  15  18
ENDBRANCH  10  14
BRANCH   1  26
HETATM   26  C   UNL     1     -40.628  56.508 -50.763  1.00  0.00     0.103 C 
BRANCH  26  27
HETATM   27  S   UNL     1     -41.341  55.270 -49.626  1.00  0.00    -0.162 SA
BRANCH  27  28
HETATM   28  C   UNL     1     -42.429  54.366 -50.773  1.00  0.00     0.112 C 
BRANCH  28  29
HETATM   29  C   UNL     1     -41.627  53.632 -51.825  1.00  0.00    -0.043 A 
HETATM   30  C   UNL     1     -41.920  53.729 -53.203  1.00  0.00    -0.055 A 
HETATM   31  C   UNL     1     -43.040  54.590 -53.722  1.00  0.00     0.049 C 
HETATM   32  C   UNL     1     -41.134  53.014 -54.123  1.00  0.00     0.007 A 
HETATM   33  C   UNL     1     -40.088  52.200 -53.693  1.00  0.00     0.001 A 
HETATM   34  C   UNL     1     -39.810  52.088 -52.335  1.00  0.00     0.001 A 
HETATM   35  C   UNL     1     -40.573  52.797 -51.408  1.00  0.00     0.008 A 
ENDBRANCH  28  29
ENDBRANCH  27  28
ENDBRANCH  26  27
ENDBRANCH   1  26
TORSDOF 7
ENDMDL
MODEL 5
REMARK VINA RESULT:      -8.8      3.758      8.434
REMARK  7 active torsions:
REMARK  status: ('A' for Active; 'I' for Inactive)
REMARK    1  A    between atoms: C_3  and  C_4 
REMARK    2  A    between atoms: C_4  and  S_5 
REMARK    3  A    between atoms: S_5  and  C_6 
REMARK    4  A    between atoms: C_6  and  C_7 
REMARK    5  A    between atoms: C_16  and  C_17 
REMARK       I    between atoms: C_17  and  N_18 
REMARK    6  A    between atoms: N_18  and  C_19 
REMARK    7  A    between atoms: C_19  and  C_20 
ROOT
HETATM    1  C   UNL     1     -43.534  58.472 -57.895  1.00  0.00     0.162 C 
HETATM    2  N   UNL     1     -44.510  57.944 -56.901  1.00  0.00    -0.277 NA
HETATM    3  C   UNL     1     -43.941  57.138 -55.897  1.00  0.00     0.036 A 
HETATM    4  C   UNL     1     -42.763  56.403 -56.133  1.00  0.00     0.057 A 
HETATM    5  N   UNL     1     -42.115  56.512 -57.370  1.00  0.00    -0.324 N 
HETATM    6  C   UNL     1     -42.534  57.389 -58.340  1.00  0.00     0.240 C 
HETATM    7  O   UNL     1     -42.062  57.341 -59.475  1.00  0.00    -0.271 OA
HETATM    8  C   UNL     1     -44.633  56.927 -54.701  1.00  0.00     0.027 A 
HETATM    9  C   UNL     1     -44.113  56.071 -53.724  1.00  0.00     0.019 A 
HETATM   10  C   UNL     1     -42.907  55.396 -53.946  1.00  0.00     0.034 A 
HETATM   11  C   UNL     1     -42.244  55.537 -55.170  1.00  0.00     0.048 A 
HETATM   12  H   UNL     1     -45.149  58.645 -56.536  1.00  0.00     0.128 HD
HETATM   13  H   UNL     1     -41.381  55.868 -57.632  1.00  0.00     0.169 HD
ENDROOT
BRANCH  10  14
HETATM   14  C   UNL     1     -42.380  54.508 -52.875  1.00  0.00     0.252 C 
HETATM   15  N   UNL     1     -41.019  54.312 -52.873  1.00  0.00    -0.353 N 
HETATM   16  H   UNL     1     -40.423  54.824 -53.509  1.00  0.00     0.163 HD
HETATM   17  O   UNL     1     -43.138  54.022 -52.044  1.00  0.00    -0.268 OA
BRANCH  15  18
HETATM   18  C   UNL     1     -40.399  53.411 -51.930  1.00  0.00     0.163 C 
BRANCH  18  19
HETATM   19  C   UNL     1     -40.081  52.082 -52.567  1.00  0.00    -0.019 A 
HETATM   20  C   UNL     1     -39.932  50.903 -51.820  1.00  0.00     0.042 A 
HETATM   21 CL   UNL     1     -40.104  50.885 -50.100  1.00  0.00    -0.084 Cl
HETATM   22  C   UNL     1     -39.654  49.688 -52.454  1.00  0.00     0.024 A 
HETATM   23  C   UNL     1     -39.526  49.634 -53.841  1.00  0.00     0.002 A 
HETATM   24  C   UNL     1     -39.678  50.794 -54.596  1.00  0.00     0.001 A 
HETATM   25  C   UNL     1     -39.957  52.008 -53.966  1.00  0.00     0.010 A 
ENDBRANCH  18  19
ENDBRANCH  15  18
ENDBRANCH  10  14
BRANCH   1  26
HETATM   26  C   UNL     1     -42.814  59.702 -57.303  1.00  0.00     0.103 C 
BRANCH  26  27
HETATM   27  S   UNL     1     -43.546  60.493 -55.828  1.00  0.00    -0.162 SA
BRANCH  27  28
HETATM   28  C   UNL     1     -42.160  60.342 -54.657  1.00  0.00     0.112 C 
BRANCH  28  29
HETATM   29  C   UNL     1     -42.599  59.673 -53.374  1.00  0.00    -0.043 A 
HETATM   30  C   UNL     1     -41.779  58.754 -52.681  1.00  0.00    -0.055 A 
HETATM   31  C   UNL     1     -40.399  58.395 -53.163  1.00  0.00     0.049 C 
HETATM   32  C   UNL     1     -42.256  58.167 -51.496  1.00  0.00     0.007 A 
HETATM   33  C   UNL     1     -43.529  58.463 -51.010  1.00  0.00     0.001 A 
HETATM   34  C   UNL     1     -44.345  59.352 -51.700  1.00  0.00     0.001 A 
HETATM   35  C   UNL     1     -43.884  59.952 -52.872  1.00  0.00     0.008 A 
ENDBRANCH  28  29
ENDBRANCH  27  28
ENDBRANCH  26  27
ENDBRANCH   1  26
TORSDOF 7
ENDMDL
MODEL 6
REMARK VINA RESULT:      -8.8      3.893      7.804
REMARK  7 active torsions:
REMARK  status: ('A' for Active; 'I' for Inactive)
REMARK    1  A    between atoms: C_3  and  C_4 
REMARK    2  A    between atoms: C_4  and  S_5 
REMARK    3  A    between atoms: S_5  and  C_6 
REMARK    4  A    between atoms: C_6  and  C_7 
REMARK    5  A    between atoms: C_16  and  C_17 
REMARK       I    between atoms: C_17  and  N_18 
REMARK    6  A    between atoms: N_18  and  C_19 
REMARK    7  A    between atoms: C_19  and  C_20 
ROOT
HETATM    1  C   UNL     1     -45.407  59.537 -55.989  1.00  0.00     0.162 C 
HETATM    2  N   UNL     1     -45.628  58.143 -55.515  1.00  0.00    -0.277 NA
HETATM    3  C   UNL     1     -44.450  57.391 -55.347  1.00  0.00     0.036 A 
HETATM    4  C   UNL     1     -43.296  57.663 -56.108  1.00  0.00     0.057 A 
HETATM    5  N   UNL     1     -43.301  58.733 -57.012  1.00  0.00    -0.324 N 
HETATM    6  C   UNL     1     -44.365  59.595 -57.120  1.00  0.00     0.240 C 
HETATM    7  O   UNL     1     -44.419  60.412 -58.039  1.00  0.00    -0.271 OA
HETATM    8  C   UNL     1     -44.462  56.252 -54.537  1.00  0.00     0.027 A 
HETATM    9  C   UNL     1     -43.320  55.455 -54.418  1.00  0.00     0.019 A 
HETATM   10  C   UNL     1     -42.157  55.775 -55.130  1.00  0.00     0.034 A 
HETATM   11  C   UNL     1     -42.156  56.866 -56.006  1.00  0.00     0.048 A 
HETATM   12  H   UNL     1     -46.264  58.070 -54.726  1.00  0.00     0.128 HD
HETATM   13  H   UNL     1     -42.563  58.840 -57.696  1.00  0.00     0.169 HD
ENDROOT
BRANCH  10  14
HETATM   14  C   UNL     1     -40.958  54.911 -54.964  1.00  0.00     0.252 C 
HETATM   15  N   UNL     1     -41.204  53.572 -54.769  1.00  0.00    -0.353 N 
HETATM   16  H   UNL     1     -42.144  53.206 -54.833  1.00  0.00     0.163 HD
HETATM   17  O   UNL     1     -39.834  55.392 -55.033  1.00  0.00    -0.268 OA
BRANCH  15  18
HETATM   18  C   UNL     1     -40.125  52.647 -54.520  1.00  0.00     0.163 C 
BRANCH  18  19
HETATM   19  C   UNL     1     -40.130  52.169 -53.090  1.00  0.00    -0.019 A 
HETATM   20  C   UNL     1     -39.744  50.869 -52.727  1.00  0.00     0.042 A 
HETATM   21 CL   UNL     1     -39.228  49.710 -53.900  1.00  0.00    -0.084 Cl
HETATM   22  C   UNL     1     -39.748  50.473 -51.386  1.00  0.00     0.024 A 
HETATM   23  C   UNL     1     -40.132  51.370 -50.390  1.00  0.00     0.002 A 
HETATM   24  C   UNL     1     -40.511  52.665 -50.734  1.00  0.00     0.001 A 
HETATM   25  C   UNL     1     -40.507  53.063 -52.072  1.00  0.00     0.010 A 
ENDBRANCH  18  19
ENDBRANCH  15  18
ENDBRANCH  10  14
BRANCH   1  26
HETATM   26  C   UNL     1     -44.999  60.426 -54.795  1.00  0.00     0.103 C 
BRANCH  26  27
HETATM   27  S   UNL     1     -45.277  59.775 -53.111  1.00  0.00    -0.162 SA
BRANCH  27  28
HETATM   28  C   UNL     1     -43.579  59.833 -52.456  1.00  0.00     0.112 C 
BRANCH  28  29
HETATM   29  C   UNL     1     -43.150  58.482 -51.929  1.00  0.00    -0.043 A 
HETATM   30  C   UNL     1     -41.835  57.991 -52.090  1.00  0.00    -0.055 A 
HETATM   31  C   UNL     1     -40.763  58.791 -52.779  1.00  0.00     0.049 C 
HETATM   32  C   UNL     1     -41.510  56.722 -51.578  1.00  0.00     0.007 A 
HETATM   33  C   UNL     1     -42.468  55.940 -50.936  1.00  0.00     0.001 A 
HETATM   34  C   UNL     1     -43.768  56.413 -50.793  1.00  0.00     0.001 A 
HETATM   35  C   UNL     1     -44.106  57.674 -51.286  1.00  0.00     0.008 A 
ENDBRANCH  28  29
ENDBRANCH  27  28
ENDBRANCH  26  27
ENDBRANCH   1  26
TORSDOF 7
ENDMDL
MODEL 7
REMARK VINA RESULT:      -8.8      3.860      8.421
REMARK  7 active torsions:
REMARK  status: ('A' for Active; 'I' for Inactive)
REMARK    1  A    between atoms: C_3  and  C_4 
REMARK    2  A    between atoms: C_4  and  S_5 
REMARK    3  A    between atoms: S_5  and  C_6 
REMARK    4  A    between atoms: C_6  and  C_7 
REMARK    5  A    between atoms: C_16  and  C_17 
REMARK       I    between atoms: C_17  and  N_18 
REMARK    6  A    between atoms: N_18  and  C_19 
REMARK    7  A    between atoms: C_19  and  C_20 
ROOT
HETATM    1  C   UNL     1     -43.152  60.545 -53.175  1.00  0.00     0.162 C 
HETATM    2  N   UNL     1     -42.333  60.319 -51.952  1.00  0.00    -0.277 NA
HETATM    3  C   UNL     1     -42.106  58.964 -51.644  1.00  0.00     0.036 A 
HETATM    4  C   UNL     1     -43.023  57.966 -52.029  1.00  0.00     0.057 A 
HETATM    5  N   UNL     1     -44.156  58.317 -52.775  1.00  0.00    -0.324 N 
HETATM    6  C   UNL     1     -44.363  59.596 -53.232  1.00  0.00     0.240 C 
HETATM    7  O   UNL     1     -45.442  59.917 -53.727  1.00  0.00    -0.271 OA
HETATM    8  C   UNL     1     -41.046  58.609 -50.805  1.00  0.00     0.027 A 
HETATM    9  C   UNL     1     -40.853  57.275 -50.434  1.00  0.00     0.019 A 
HETATM   10  C   UNL     1     -41.735  56.283 -50.878  1.00  0.00     0.034 A 
HETATM   11  C   UNL     1     -42.845  56.634 -51.653  1.00  0.00     0.048 A 
HETATM   12  H   UNL     1     -41.490  60.884 -51.908  1.00  0.00     0.128 HD
HETATM   13  H   UNL     1     -44.915  57.663 -52.908  1.00  0.00     0.169 HD
ENDROOT
BRANCH  10  14
HETATM   14  C   UNL     1     -41.485  54.873 -50.474  1.00  0.00     0.252 C 
HETATM   15  N   UNL     1     -40.342  54.298 -50.978  1.00  0.00    -0.353 N 
HETATM   16  H   UNL     1     -39.680  54.846 -51.509  1.00  0.00     0.163 HD
HETATM   17  O   UNL     1     -42.255  54.301 -49.713  1.00  0.00    -0.268 OA
BRANCH  15  18
HETATM   18  C   UNL     1     -40.031  52.913 -50.718  1.00  0.00     0.163 C 
BRANCH  18  19
HETATM   19  C   UNL     1     -39.992  52.110 -51.993  1.00  0.00    -0.019 A 
HETATM   20  C   UNL     1     -39.759  50.725 -52.007  1.00  0.00     0.042 A 
HETATM   21 CL   UNL     1     -39.500  49.830 -50.552  1.00  0.00    -0.084 Cl
HETATM   22  C   UNL     1     -39.749  50.017 -53.212  1.00  0.00     0.024 A 
HETATM   23  C   UNL     1     -39.975  50.679 -54.418  1.00  0.00     0.002 A 
HETATM   24  C   UNL     1     -40.214  52.051 -54.419  1.00  0.00     0.001 A 
HETATM   25  C   UNL     1     -40.226  52.760 -53.217  1.00  0.00     0.010 A 
ENDBRANCH  18  19
ENDBRANCH  15  18
ENDBRANCH  10  14
BRANCH   1  26
HETATM   26  C   UNL     1     -42.258  60.402 -54.424  1.00  0.00     0.103 C 
BRANCH  26  27
HETATM   27  S   UNL     1     -43.032  59.797 -55.964  1.00  0.00    -0.162 SA
BRANCH  27  28
HETATM   28  C   UNL     1     -42.402  58.088 -55.994  1.00  0.00     0.112 C 
BRANCH  28  29
HETATM   29  C   UNL     1     -42.653  57.436 -57.335  1.00  0.00    -0.043 A 
HETATM   30  C   UNL     1     -42.906  56.053 -57.468  1.00  0.00    -0.055 A 
HETATM   31  C   UNL     1     -42.964  55.134 -56.277  1.00  0.00     0.049 C 
HETATM   32  C   UNL     1     -43.125  55.516 -58.748  1.00  0.00     0.007 A 
HETATM   33  C   UNL     1     -43.077  56.324 -59.883  1.00  0.00     0.001 A 
HETATM   34  C   UNL     1     -42.810  57.682 -59.757  1.00  0.00     0.001 A 
HETATM   35  C   UNL     1     -42.599  58.234 -58.493  1.00  0.00     0.008 A 
ENDBRANCH  28  29
ENDBRANCH  27  28
ENDBRANCH  26  27
ENDBRANCH   1  26
TORSDOF 7
ENDMDL
MODEL 8
REMARK VINA RESULT:      -8.7      2.604      3.667
REMARK  7 active torsions:
REMARK  status: ('A' for Active; 'I' for Inactive)
REMARK    1  A    between atoms: C_3  and  C_4 
REMARK    2  A    between atoms: C_4  and  S_5 
REMARK    3  A    between atoms: S_5  and  C_6 
REMARK    4  A    between atoms: C_6  and  C_7 
REMARK    5  A    between atoms: C_16  and  C_17 
REMARK       I    between atoms: C_17  and  N_18 
REMARK    6  A    between atoms: N_18  and  C_19 
REMARK    7  A    between atoms: C_19  and  C_20 
ROOT
HETATM    1  C   UNL     1     -41.073  57.982 -50.551  1.00  0.00     0.162 C 
HETATM    2  N   UNL     1     -42.556  58.086 -50.634  1.00  0.00    -0.277 NA
HETATM    3  C   UNL     1     -43.065  58.126 -51.946  1.00  0.00     0.036 A 
HETATM    4  C   UNL     1     -42.298  58.639 -53.010  1.00  0.00     0.057 A 
HETATM    5  N   UNL     1     -40.986  59.072 -52.772  1.00  0.00    -0.324 N 
HETATM    6  C   UNL     1     -40.380  58.926 -51.548  1.00  0.00     0.240 C 
HETATM    7  O   UNL     1     -39.301  59.470 -51.315  1.00  0.00    -0.271 OA
HETATM    8  C   UNL     1     -44.406  57.808 -52.182  1.00  0.00     0.027 A 
HETATM    9  C   UNL     1     -44.942  57.913 -53.469  1.00  0.00     0.019 A 
HETATM   10  C   UNL     1     -44.149  58.364 -54.532  1.00  0.00     0.034 A 
HETATM   11  C   UNL     1     -42.828  58.760 -54.295  1.00  0.00     0.048 A 
HETATM   12  H   UNL     1     -43.052  57.432 -50.034  1.00  0.00     0.128 HD
HETATM   13  H   UNL     1     -40.480  59.607 -53.465  1.00  0.00     0.169 HD
ENDROOT
BRANCH  10  14
HETATM   14  C   UNL     1     -44.753  58.446 -55.888  1.00  0.00     0.252 C 
HETATM   15  N   UNL     1     -44.327  57.502 -56.793  1.00  0.00    -0.353 N 
HETATM   16  H   UNL     1     -43.714  56.752 -56.506  1.00  0.00     0.163 HD
HETATM   17  O   UNL     1     -45.598  59.296 -56.140  1.00  0.00    -0.268 OA
BRANCH  15  18
HETATM   18  C   UNL     1     -44.785  57.525 -58.162  1.00  0.00     0.163 C 
BRANCH  18  19
HETATM   19  C   UNL     1     -43.789  58.211 -59.062  1.00  0.00    -0.019 A 
HETATM   20  C   UNL     1     -42.790  57.509 -59.757  1.00  0.00     0.042 A 
HETATM   21 CL   UNL     1     -42.628  55.793 -59.633  1.00  0.00    -0.084 Cl
HETATM   22  C   UNL     1     -41.897  58.184 -60.595  1.00  0.00     0.024 A 
HETATM   23  C   UNL     1     -41.992  59.566 -60.754  1.00  0.00     0.002 A 
HETATM   24  C   UNL     1     -42.981  60.274 -60.077  1.00  0.00     0.001 A 
HETATM   25  C   UNL     1     -43.874  59.603 -59.241  1.00  0.00     0.010 A 
ENDBRANCH  18  19
ENDBRANCH  15  18
ENDBRANCH  10  14
BRANCH   1  26
HETATM   26  C   UNL     1     -40.650  56.514 -50.770  1.00  0.00     0.103 C 
BRANCH  26  27
HETATM   27  S   UNL     1     -41.424  55.236 -49.719  1.00  0.00    -0.162 SA
BRANCH  27  28
HETATM   28  C   UNL     1     -42.518  54.435 -50.935  1.00  0.00     0.112 C 
BRANCH  28  29
HETATM   29  C   UNL     1     -41.720  53.722 -52.004  1.00  0.00    -0.043 A 
HETATM   30  C   UNL     1     -42.046  53.807 -53.375  1.00  0.00    -0.055 A 
HETATM   31  C   UNL     1     -43.202  54.635 -53.870  1.00  0.00     0.049 C 
HETATM   32  C   UNL     1     -41.261  53.113 -54.312  1.00  0.00     0.007 A 
HETATM   33  C   UNL     1     -40.182  52.330 -53.904  1.00  0.00     0.001 A 
HETATM   34  C   UNL     1     -39.870  52.229 -52.553  1.00  0.00     0.001 A 
HETATM   35  C   UNL     1     -40.633  52.919 -51.610  1.00  0.00     0.008 A 
ENDBRANCH  28  29
ENDBRANCH  27  28
ENDBRANCH  26  27
ENDBRANCH   1  26
TORSDOF 7
ENDMDL
MODEL 9
REMARK VINA RESULT:      -8.6      2.825      3.492
REMARK  7 active torsions:
REMARK  status: ('A' for Active; 'I' for Inactive)
REMARK    1  A    between atoms: C_3  and  C_4 
REMARK    2  A    between atoms: C_4  and  S_5 
REMARK    3  A    between atoms: S_5  and  C_6 
REMARK    4  A    between atoms: C_6  and  C_7 
REMARK    5  A    between atoms: C_16  and  C_17 
REMARK       I    between atoms: C_17  and  N_18 
REMARK    6  A    between atoms: N_18  and  C_19 
REMARK    7  A    between atoms: C_19  and  C_20 
ROOT
HETATM    1  C   UNL     1     -42.142  56.554 -50.800  1.00  0.00     0.162 C 
HETATM    2  N   UNL     1     -43.220  56.019 -51.677  1.00  0.00    -0.277 NA
HETATM    3  C   UNL     1     -43.035  56.272 -53.049  1.00  0.00     0.036 A 
HETATM    4  C   UNL     1     -42.308  57.396 -53.491  1.00  0.00     0.057 A 
HETATM    5  N   UNL     1     -41.716  58.250 -52.552  1.00  0.00    -0.324 N 
HETATM    6  C   UNL     1     -41.735  57.982 -51.205  1.00  0.00     0.240 C 
HETATM    7  O   UNL     1     -41.368  58.829 -50.392  1.00  0.00    -0.271 OA
HETATM    8  C   UNL     1     -43.712  55.500 -53.997  1.00  0.00     0.027 A 
HETATM    9  C   UNL     1     -43.593  55.786 -55.360  1.00  0.00     0.019 A 
HETATM   10  C   UNL     1     -42.814  56.868 -55.790  1.00  0.00     0.034 A 
HETATM   11  C   UNL     1     -42.195  57.697 -54.848  1.00  0.00     0.048 A 
HETATM   12  H   UNL     1     -43.474  55.055 -51.480  1.00  0.00     0.128 HD
HETATM   13  H   UNL     1     -41.350  59.152 -52.826  1.00  0.00     0.169 HD
ENDROOT
BRANCH  10  14
HETATM   14  C   UNL     1     -42.700  57.130 -57.249  1.00  0.00     0.252 C 
HETATM   15  N   UNL     1     -42.523  58.445 -57.612  1.00  0.00    -0.353 N 
HETATM   16  H   UNL     1     -42.386  59.159 -56.911  1.00  0.00     0.163 HD
HETATM   17  O   UNL     1     -42.736  56.203 -58.049  1.00  0.00    -0.268 OA
BRANCH  15  18
HETATM   18  C   UNL     1     -42.475  58.832 -59.002  1.00  0.00     0.163 C 
BRANCH  18  19
HETATM   19  C   UNL     1     -41.836  60.187 -59.172  1.00  0.00    -0.019 A 
HETATM   20  C   UNL     1     -41.736  60.823 -60.420  1.00  0.00     0.042 A 
HETATM   21 CL   UNL     1     -42.346  60.097 -61.865  1.00  0.00    -0.084 Cl
HETATM   22  C   UNL     1     -41.151  62.088 -60.529  1.00  0.00     0.024 A 
HETATM   23  C   UNL     1     -40.661  62.735 -59.395  1.00  0.00     0.002 A 
HETATM   24  C   UNL     1     -40.759  62.120 -58.151  1.00  0.00     0.001 A 
HETATM   25  C   UNL     1     -41.344  60.857 -58.038  1.00  0.00     0.010 A 
ENDBRANCH  18  19
ENDBRANCH  15  18
ENDBRANCH  10  14
BRANCH   1  26
HETATM   26  C   UNL     1     -40.937  55.591 -50.824  1.00  0.00     0.103 C 
BRANCH  26  27
HETATM   27  S   UNL     1     -41.274  53.797 -50.758  1.00  0.00    -0.162 SA
BRANCH  27  28
HETATM   28  C   UNL     1     -39.643  53.142 -51.231  1.00  0.00     0.112 C 
BRANCH  28  29
HETATM   29  C   UNL     1     -39.775  52.014 -52.230  1.00  0.00    -0.043 A 
HETATM   30  C   UNL     1     -40.138  52.236 -53.577  1.00  0.00    -0.055 A 
HETATM   31  C   UNL     1     -40.399  53.617 -54.116  1.00  0.00     0.049 C 
HETATM   32  C   UNL     1     -40.247  51.138 -54.448  1.00  0.00     0.007 A 
HETATM   33  C   UNL     1     -40.020  49.839 -53.996  1.00  0.00     0.001 A 
HETATM   34  C   UNL     1     -39.681  49.616 -52.666  1.00  0.00     0.001 A 
HETATM   35  C   UNL     1     -39.559  50.695 -51.790  1.00  0.00     0.008 A 
ENDBRANCH  28  29
ENDBRANCH  27  28
ENDBRANCH  26  27
ENDBRANCH   1  26
TORSDOF 7
ENDMDL
MODEL 10
REMARK VINA RESULT:      -8.4      5.286      8.764
REMARK  7 active torsions:
REMARK  status: ('A' for Active; 'I' for Inactive)
REMARK    1  A    between atoms: C_3  and  C_4 
REMARK    2  A    between atoms: C_4  and  S_5 
REMARK    3  A    between atoms: S_5  and  C_6 
REMARK    4  A    between atoms: C_6  and  C_7 
REMARK    5  A    between atoms: C_16  and  C_17 
REMARK       I    between atoms: C_17  and  N_18 
REMARK    6  A    between atoms: N_18  and  C_19 
REMARK    7  A    between atoms: C_19  and  C_20 
ROOT
HETATM    1  C   UNL     1     -41.400  56.017 -52.226  1.00  0.00     0.162 C 
HETATM    2  N   UNL     1     -41.009  57.454 -52.211  1.00  0.00    -0.277 NA
HETATM    3  C   UNL     1     -41.989  58.319 -51.690  1.00  0.00     0.036 A 
HETATM    4  C   UNL     1     -43.359  58.000 -51.767  1.00  0.00     0.057 A 
HETATM    5  N   UNL     1     -43.754  56.777 -52.325  1.00  0.00    -0.324 N 
HETATM    6  C   UNL     1     -42.845  55.826 -52.720  1.00  0.00     0.240 C 
HETATM    7  O   UNL     1     -43.208  54.844 -53.366  1.00  0.00    -0.271 OA
HETATM    8  C   UNL     1     -41.624  59.590 -51.235  1.00  0.00     0.027 A 
HETATM    9  C   UNL     1     -42.596  60.486 -50.782  1.00  0.00     0.019 A 
HETATM   10  C   UNL     1     -43.951  60.131 -50.803  1.00  0.00     0.034 A 
HETATM   11  C   UNL     1     -44.337  58.893 -51.329  1.00  0.00     0.048 A 
HETATM   12  H   UNL     1     -40.082  57.627 -51.832  1.00  0.00     0.128 HD
HETATM   13  H   UNL     1     -44.722  56.600 -52.559  1.00  0.00     0.169 HD
ENDROOT
BRANCH  10  14
HETATM   14  C   UNL     1     -44.953  61.106 -50.297  1.00  0.00     0.252 C 
HETATM   15  N   UNL     1     -45.176  61.088 -48.940  1.00  0.00    -0.353 N 
HETATM   16  H   UNL     1     -44.616  60.507 -48.333  1.00  0.00     0.163 HD
HETATM   17  O   UNL     1     -45.503  61.885 -51.066  1.00  0.00    -0.268 OA
BRANCH  15  18
HETATM   18  C   UNL     1     -46.179  61.936 -48.341  1.00  0.00     0.163 C 
BRANCH  18  19
HETATM   19  C   UNL     1     -45.642  62.647 -47.125  1.00  0.00    -0.019 A 
HETATM   20  C   UNL     1     -45.420  61.991 -45.904  1.00  0.00     0.042 A 
HETATM   21 CL   UNL     1     -45.746  60.306 -45.701  1.00  0.00    -0.084 Cl
HETATM   22  C   UNL     1     -44.904  62.687 -44.806  1.00  0.00     0.024 A 
HETATM   23  C   UNL     1     -44.599  64.043 -44.914  1.00  0.00     0.002 A 
HETATM   24  C   UNL     1     -44.809  64.705 -46.120  1.00  0.00     0.001 A 
HETATM   25  C   UNL     1     -45.322  64.013 -47.218  1.00  0.00     0.010 A 
ENDBRANCH  18  19
ENDBRANCH  15  18
ENDBRANCH  10  14
BRANCH   1  26
HETATM   26  C   UNL     1     -41.196  55.416 -50.819  1.00  0.00     0.103 C 
BRANCH  26  27
HETATM   27  S   UNL     1     -41.581  53.646 -50.582  1.00  0.00    -0.162 SA
BRANCH  27  28
HETATM   28  C   UNL     1     -39.941  52.914 -50.884  1.00  0.00     0.112 C 
BRANCH  28  29
HETATM   29  C   UNL     1     -39.958  52.017 -52.101  1.00  0.00    -0.043 A 
HETATM   30  C   UNL     1     -39.707  50.630 -52.022  1.00  0.00    -0.055 A 
HETATM   31  C   UNL     1     -39.426  49.943 -50.713  1.00  0.00     0.049 C 
HETATM   32  C   UNL     1     -39.735  49.859 -53.198  1.00  0.00     0.007 A 
HETATM   33  C   UNL     1     -39.985  50.449 -54.436  1.00  0.00     0.001 A 
HETATM   34  C   UNL     1     -40.214  51.817 -54.519  1.00  0.00     0.001 A 
HETATM   35  C   UNL     1     -40.200  52.596 -53.362  1.00  0.00     0.008 A 
ENDBRANCH  28  29
ENDBRANCH  27  28
ENDBRANCH  26  27
ENDBRANCH   1  26
TORSDOF 7
ENDMDL
