MODEL 1
REMARK VINA RESULT:      -8.3      0.000      0.000
REMARK  10 active torsions:
REMARK  status: ('A' for Active; 'I' for Inactive)
REMARK    1  A    between atoms: C_4  and  C_5 
REMARK    2  A    between atoms: C_6  and  O_7 
REMARK    3  A    between atoms: C_14  and  C_15 
REMARK    4  A    between atoms: C_18  and  C_19 
REMARK    5  A    between atoms: C_19  and  N_20 
REMARK    6  A    between atoms: N_20  and  C_21 
REMARK    7  A    between atoms: C_21  and  N_22 
REMARK    8  A    between atoms: N_22  and  C_23 
REMARK    9  A    between atoms: C_25  and  C_26 
REMARK   10  A    between atoms: C_26  and  O_27 
ROOT
HETATM    1  C   UNL     1     -42.327  58.517 -52.751  1.00  0.00     0.067 C 
HETATM    2  C   UNL     1     -43.754  58.869 -53.258  1.00  0.00     0.001 C 
HETATM    3  C   UNL     1     -43.924  58.456 -54.739  1.00  0.00     0.040 C 
HETATM    4  C   UNL     1     -42.980  59.270 -55.636  1.00  0.00     0.206 C 
HETATM    5  N   UNL     1     -42.010  60.026 -54.723  1.00  0.00    -0.065 N 
HETATM    6  H   UNL     1     -41.291  60.473 -55.310  1.00  0.00     0.280 HD
HETATM    7  C   UNL     1     -41.296  59.118 -53.734  1.00  0.00     0.246 C 
HETATM    8  C   UNL     1     -43.903  60.406 -53.188  1.00  0.00     0.033 C 
HETATM    9  C   UNL     1     -42.776  61.095 -53.965  1.00  0.00     0.236 C 
ENDROOT
BRANCH   4  10
HETATM   10  C   UNL     1     -42.259  58.483 -56.749  1.00  0.00     0.155 C 
BRANCH  10  11
HETATM   11  N   UNL     1     -41.914  57.106 -56.413  1.00  0.00    -0.365 N 
HETATM   12  H   UNL     1     -41.518  56.946 -55.492  1.00  0.00     0.161 HD
BRANCH  11  13
HETATM   13  C   UNL     1     -42.527  55.996 -56.929  1.00  0.00     0.172 C 
HETATM   14  S   UNL     1     -43.223  54.807 -55.988  1.00  0.00    -0.041 SA
BRANCH  13  15
HETATM   15  N   UNL     1     -42.667  55.949 -58.290  1.00  0.00    -0.333 N 
HETATM   16  H   UNL     1     -41.786  55.996 -58.797  1.00  0.00     0.168 HD
BRANCH  15  17
HETATM   17  C   UNL     1     -43.833  55.988 -59.088  1.00  0.00     0.035 A 
HETATM   18  C   UNL     1     -44.686  57.091 -59.140  1.00  0.00     0.047 A 
HETATM   19  C   UNL     1     -45.859  57.069 -59.906  1.00  0.00     0.041 A 
HETATM   20  C   UNL     1     -46.151  55.951 -60.689  1.00  0.00     0.018 A 
HETATM   21  C   UNL     1     -45.269  54.867 -60.695  1.00  0.00     0.003 A 
HETATM   22  C   UNL     1     -44.116  54.887 -59.899  1.00  0.00     0.029 A 
BRANCH  19  23
HETATM   23  C   UNL     1     -46.754  58.249 -59.799  1.00  0.00     0.293 C 
HETATM   24  O   UNL     1     -47.309  58.557 -58.753  1.00  0.00    -0.259 OA
BRANCH  23  25
HETATM   25  O   UNL     1     -46.852  58.893 -60.984  1.00  0.00    -0.323 OA
HETATM   26  C   UNL     1     -48.181  58.953 -61.505  1.00  0.00     0.213 C 
ENDBRANCH  23  25
ENDBRANCH  19  23
ENDBRANCH  15  17
ENDBRANCH  13  15
ENDBRANCH  11  13
ENDBRANCH  10  11
ENDBRANCH   4  10
BRANCH   1  27
HETATM   27  C   UNL     1     -42.096  57.054 -52.487  1.00  0.00     0.038 C 
HETATM   28  N   UNL     1     -42.925  56.277 -51.704  1.00  0.00    -0.277 N 
HETATM   29  C   UNL     1     -44.166  56.642 -51.057  1.00  0.00     0.179 C 
HETATM   30  N   UNL     1     -42.495  55.020 -51.553  1.00  0.00    -0.172 NA
HETATM   31  C   UNL     1     -41.488  54.896 -52.424  1.00  0.00     0.092 C 
HETATM   32  C   UNL     1     -41.170  56.155 -52.993  1.00  0.00     0.061 C 
BRANCH  31  33
HETATM   33  C   UNL     1     -40.851  53.615 -52.680  1.00  0.00     0.028 A 
HETATM   34  C   UNL     1     -39.977  53.035 -51.743  1.00  0.00     0.080 A 
HETATM   35  C   UNL     1     -39.387  51.798 -52.020  1.00  0.00     0.037 A 
HETATM   36  C   UNL     1     -39.642  51.151 -53.232  1.00  0.00     0.003 A 
HETATM   37  C   UNL     1     -40.498  51.730 -54.167  1.00  0.00     0.001 A 
HETATM   38  C   UNL     1     -41.104  52.956 -53.891  1.00  0.00     0.017 A 
BRANCH  34  39
HETATM   39  O   UNL     1     -39.795  53.679 -50.542  1.00  0.00    -0.355 OA
HETATM   40  C   UNL     1     -40.402  53.025 -49.431  1.00  0.00     0.210 C 
ENDBRANCH  34  39
ENDBRANCH  31  33
ENDBRANCH   1  27
TORSDOF 10
ENDMDL
MODEL 2
REMARK VINA RESULT:      -8.3      2.944      7.685
REMARK  10 active torsions:
REMARK  status: ('A' for Active; 'I' for Inactive)
REMARK    1  A    between atoms: C_4  and  C_5 
REMARK    2  A    between atoms: C_6  and  O_7 
REMARK    3  A    between atoms: C_14  and  C_15 
REMARK    4  A    between atoms: C_18  and  C_19 
REMARK    5  A    between atoms: C_19  and  N_20 
REMARK    6  A    between atoms: N_20  and  C_21 
REMARK    7  A    between atoms: C_21  and  N_22 
REMARK    8  A    between atoms: N_22  and  C_23 
REMARK    9  A    between atoms: C_25  and  C_26 
REMARK   10  A    between atoms: C_26  and  O_27 
ROOT
HETATM    1  C   UNL     1     -45.128  60.016 -52.874  1.00  0.00     0.067 C 
HETATM    2  C   UNL     1     -44.329  61.221 -52.301  1.00  0.00     0.001 C 
HETATM    3  C   UNL     1     -42.844  60.842 -52.092  1.00  0.00     0.040 C 
HETATM    4  C   UNL     1     -42.714  59.744 -51.025  1.00  0.00     0.206 C 
HETATM    5  N   UNL     1     -44.122  59.222 -50.723  1.00  0.00    -0.065 N 
HETATM    6  H   UNL     1     -44.041  58.401 -50.107  1.00  0.00     0.280 HD
HETATM    7  C   UNL     1     -44.874  58.787 -51.971  1.00  0.00     0.246 C 
HETATM    8  C   UNL     1     -44.921  61.549 -50.910  1.00  0.00     0.033 C 
HETATM    9  C   UNL     1     -44.910  60.308 -50.012  1.00  0.00     0.236 C 
ENDROOT
BRANCH   4  10
HETATM   10  C   UNL     1     -41.714  58.613 -51.336  1.00  0.00     0.155 C 
BRANCH  10  11
HETATM   11  N   UNL     1     -41.530  57.634 -50.269  1.00  0.00    -0.365 N 
HETATM   12  H   UNL     1     -41.776  57.932 -49.330  1.00  0.00     0.161 HD
BRANCH  11  13
HETATM   13  C   UNL     1     -41.590  56.277 -50.431  1.00  0.00     0.172 C 
HETATM   14  S   UNL     1     -41.212  55.187 -49.226  1.00  0.00    -0.041 SA
BRANCH  13  15
HETATM   15  N   UNL     1     -42.109  55.823 -51.614  1.00  0.00    -0.333 N 
HETATM   16  H   UNL     1     -43.121  55.899 -51.678  1.00  0.00     0.168 HD
BRANCH  15  17
HETATM   17  C   UNL     1     -41.480  55.148 -52.686  1.00  0.00     0.035 A 
HETATM   18  C   UNL     1     -41.096  53.807 -52.623  1.00  0.00     0.047 A 
HETATM   19  C   UNL     1     -40.430  53.189 -53.689  1.00  0.00     0.041 A 
HETATM   20  C   UNL     1     -40.203  53.904 -54.867  1.00  0.00     0.018 A 
HETATM   21  C   UNL     1     -40.642  55.227 -54.964  1.00  0.00     0.003 A 
HETATM   22  C   UNL     1     -41.277  55.844 -53.879  1.00  0.00     0.029 A 
BRANCH  19  23
HETATM   23  C   UNL     1     -39.963  51.797 -53.473  1.00  0.00     0.293 C 
HETATM   24  O   UNL     1     -39.281  51.477 -52.510  1.00  0.00    -0.259 OA
BRANCH  23  25
HETATM   25  O   UNL     1     -40.391  50.982 -54.465  1.00  0.00    -0.323 OA
HETATM   26  C   UNL     1     -39.707  49.730 -54.525  1.00  0.00     0.213 C 
ENDBRANCH  23  25
ENDBRANCH  19  23
ENDBRANCH  15  17
ENDBRANCH  13  15
ENDBRANCH  11  13
ENDBRANCH  10  11
ENDBRANCH   4  10
BRANCH   1  27
HETATM   27  C   UNL     1     -44.879  59.732 -54.330  1.00  0.00     0.038 C 
HETATM   28  N   UNL     1     -45.349  60.526 -55.357  1.00  0.00    -0.277 N 
HETATM   29  C   UNL     1     -46.077  61.773 -55.278  1.00  0.00     0.179 C 
HETATM   30  N   UNL     1     -45.064  60.051 -56.573  1.00  0.00    -0.172 NA
HETATM   31  C   UNL     1     -44.207  59.048 -56.356  1.00  0.00     0.092 C 
HETATM   32  C   UNL     1     -44.101  58.780 -54.969  1.00  0.00     0.061 C 
BRANCH  31  33
HETATM   33  C   UNL     1     -43.532  58.368 -57.451  1.00  0.00     0.028 A 
HETATM   34  C   UNL     1     -42.305  58.838 -57.953  1.00  0.00     0.080 A 
HETATM   35  C   UNL     1     -41.680  58.155 -59.002  1.00  0.00     0.037 A 
HETATM   36  C   UNL     1     -42.283  57.028 -59.567  1.00  0.00     0.003 A 
HETATM   37  C   UNL     1     -43.505  56.570 -59.079  1.00  0.00     0.001 A 
HETATM   38  C   UNL     1     -44.127  57.235 -58.022  1.00  0.00     0.017 A 
BRANCH  34  39
HETATM   39  O   UNL     1     -41.721  59.917 -57.334  1.00  0.00    -0.355 OA
HETATM   40  C   UNL     1     -41.542  61.049 -58.182  1.00  0.00     0.210 C 
ENDBRANCH  34  39
ENDBRANCH  31  33
ENDBRANCH   1  27
TORSDOF 10
ENDMDL
MODEL 3
REMARK VINA RESULT:      -8.2      2.295      3.360
REMARK  10 active torsions:
REMARK  status: ('A' for Active; 'I' for Inactive)
REMARK    1  A    between atoms: C_4  and  C_5 
REMARK    2  A    between atoms: C_6  and  O_7 
REMARK    3  A    between atoms: C_14  and  C_15 
REMARK    4  A    between atoms: C_18  and  C_19 
REMARK    5  A    between atoms: C_19  and  N_20 
REMARK    6  A    between atoms: N_20  and  C_21 
REMARK    7  A    between atoms: C_21  and  N_22 
REMARK    8  A    between atoms: N_22  and  C_23 
REMARK    9  A    between atoms: C_25  and  C_26 
REMARK   10  A    between atoms: C_26  and  O_27 
ROOT
HETATM    1  C   UNL     1     -43.310  57.713 -51.378  1.00  0.00     0.067 C 
HETATM    2  C   UNL     1     -44.591  58.017 -52.207  1.00  0.00     0.001 C 
HETATM    3  C   UNL     1     -44.252  58.903 -53.429  1.00  0.00     0.040 C 
HETATM    4  C   UNL     1     -43.748  60.280 -52.972  1.00  0.00     0.206 C 
HETATM    5  N   UNL     1     -43.508  60.208 -51.461  1.00  0.00    -0.065 N 
HETATM    6  H   UNL     1     -43.049  61.080 -51.161  1.00  0.00     0.280 HD
HETATM    7  C   UNL     1     -42.606  59.052 -51.057  1.00  0.00     0.246 C 
HETATM    8  C   UNL     1     -45.547  58.827 -51.301  1.00  0.00     0.033 C 
HETATM    9  C   UNL     1     -44.845  60.075 -50.753  1.00  0.00     0.236 C 
ENDROOT
BRANCH   4  10
HETATM   10  C   UNL     1     -42.537  60.846 -53.740  1.00  0.00     0.155 C 
BRANCH  10  11
HETATM   11  N   UNL     1     -42.825  61.330 -55.086  1.00  0.00    -0.365 N 
HETATM   12  H   UNL     1     -42.336  62.169 -55.383  1.00  0.00     0.161 HD
BRANCH  11  13
HETATM   13  C   UNL     1     -43.221  60.545 -56.134  1.00  0.00     0.172 C 
HETATM   14  S   UNL     1     -44.628  60.797 -56.995  1.00  0.00    -0.041 SA
BRANCH  13  15
HETATM   15  N   UNL     1     -42.336  59.587 -56.551  1.00  0.00    -0.333 N 
HETATM   16  H   UNL     1     -41.420  59.952 -56.801  1.00  0.00     0.168 HD
BRANCH  15  17
HETATM   17  C   UNL     1     -42.538  58.213 -56.816  1.00  0.00     0.035 A 
HETATM   18  C   UNL     1     -42.665  57.695 -58.106  1.00  0.00     0.047 A 
HETATM   19  C   UNL     1     -42.915  56.334 -58.324  1.00  0.00     0.041 A 
HETATM   20  C   UNL     1     -42.971  55.461 -57.235  1.00  0.00     0.018 A 
HETATM   21  C   UNL     1     -42.779  55.959 -55.944  1.00  0.00     0.003 A 
HETATM   22  C   UNL     1     -42.564  57.327 -55.737  1.00  0.00     0.029 A 
BRANCH  19  23
HETATM   23  C   UNL     1     -43.150  55.910 -59.726  1.00  0.00     0.293 C 
HETATM   24  O   UNL     1     -42.703  56.529 -60.682  1.00  0.00    -0.259 OA
BRANCH  23  25
HETATM   25  O   UNL     1     -43.900  54.785 -59.774  1.00  0.00    -0.323 OA
HETATM   26  C   UNL     1     -45.143  54.944 -60.461  1.00  0.00     0.213 C 
ENDBRANCH  23  25
ENDBRANCH  19  23
ENDBRANCH  15  17
ENDBRANCH  13  15
ENDBRANCH  11  13
ENDBRANCH  10  11
ENDBRANCH   4  10
BRANCH   1  27
HETATM   27  C   UNL     1     -42.385  56.701 -51.997  1.00  0.00     0.038 C 
HETATM   28  N   UNL     1     -41.191  57.027 -52.607  1.00  0.00    -0.277 N 
HETATM   29  C   UNL     1     -40.554  58.321 -52.720  1.00  0.00     0.179 C 
HETATM   30  N   UNL     1     -40.561  55.978 -53.145  1.00  0.00    -0.172 NA
HETATM   31  C   UNL     1     -41.232  54.911 -52.699  1.00  0.00     0.092 C 
HETATM   32  C   UNL     1     -42.408  55.316 -52.020  1.00  0.00     0.061 C 
BRANCH  31  33
HETATM   33  C   UNL     1     -40.759  53.556 -52.935  1.00  0.00     0.028 A 
HETATM   34  C   UNL     1     -39.949  52.894 -51.996  1.00  0.00     0.080 A 
HETATM   35  C   UNL     1     -39.518  51.588 -52.253  1.00  0.00     0.037 A 
HETATM   36  C   UNL     1     -39.866  50.954 -53.449  1.00  0.00     0.003 A 
HETATM   37  C   UNL     1     -40.658  51.614 -54.386  1.00  0.00     0.001 A 
HETATM   38  C   UNL     1     -41.106  52.910 -54.130  1.00  0.00     0.017 A 
BRANCH  34  39
HETATM   39  O   UNL     1     -39.673  53.534 -50.811  1.00  0.00    -0.355 OA
HETATM   40  C   UNL     1     -40.403  53.033 -49.694  1.00  0.00     0.210 C 
ENDBRANCH  34  39
ENDBRANCH  31  33
ENDBRANCH   1  27
TORSDOF 10
ENDMDL
MODEL 4
REMARK VINA RESULT:      -8.2      2.013      8.032
REMARK  10 active torsions:
REMARK  status: ('A' for Active; 'I' for Inactive)
REMARK    1  A    between atoms: C_4  and  C_5 
REMARK    2  A    between atoms: C_6  and  O_7 
REMARK    3  A    between atoms: C_14  and  C_15 
REMARK    4  A    between atoms: C_18  and  C_19 
REMARK    5  A    between atoms: C_19  and  N_20 
REMARK    6  A    between atoms: N_20  and  C_21 
REMARK    7  A    between atoms: C_21  and  N_22 
REMARK    8  A    between atoms: N_22  and  C_23 
REMARK    9  A    between atoms: C_25  and  C_26 
REMARK   10  A    between atoms: C_26  and  O_27 
ROOT
HETATM    1  C   UNL     1     -43.816  60.429 -55.155  1.00  0.00     0.067 C 
HETATM    2  C   UNL     1     -42.556  60.185 -54.275  1.00  0.00     0.001 C 
HETATM    3  C   UNL     1     -42.656  58.828 -53.541  1.00  0.00     0.040 C 
HETATM    4  C   UNL     1     -43.829  58.839 -52.548  1.00  0.00     0.206 C 
HETATM    5  N   UNL     1     -44.653  60.101 -52.819  1.00  0.00    -0.065 N 
HETATM    6  H   UNL     1     -45.511  60.059 -52.250  1.00  0.00     0.280 HD
HETATM    7  C   UNL     1     -45.071  60.237 -54.274  1.00  0.00     0.246 C 
HETATM    8  C   UNL     1     -42.525  61.293 -53.196  1.00  0.00     0.033 C 
HETATM    9  C   UNL     1     -43.842  61.318 -52.411  1.00  0.00     0.236 C 
ENDROOT
BRANCH   4  10
HETATM   10  C   UNL     1     -44.692  57.562 -52.508  1.00  0.00     0.155 C 
BRANCH  10  11
HETATM   11  N   UNL     1     -44.385  56.637 -51.422  1.00  0.00    -0.365 N 
HETATM   12  H   UNL     1     -45.153  56.380 -50.810  1.00  0.00     0.161 HD
BRANCH  11  13
HETATM   13  C   UNL     1     -43.389  55.699 -51.449  1.00  0.00     0.172 C 
HETATM   14  S   UNL     1     -42.315  55.459 -50.196  1.00  0.00    -0.041 SA
BRANCH  13  15
HETATM   15  N   UNL     1     -43.378  54.848 -52.522  1.00  0.00    -0.333 N 
HETATM   16  H   UNL     1     -44.271  54.394 -52.698  1.00  0.00     0.168 HD
BRANCH  15  17
HETATM   17  C   UNL     1     -42.300  54.405 -53.322  1.00  0.00     0.035 A 
HETATM   18  C   UNL     1     -41.654  53.183 -53.123  1.00  0.00     0.047 A 
HETATM   19  C   UNL     1     -40.557  52.803 -53.907  1.00  0.00     0.041 A 
HETATM   20  C   UNL     1     -40.138  53.628 -54.953  1.00  0.00     0.018 A 
HETATM   21  C   UNL     1     -40.820  54.822 -55.202  1.00  0.00     0.003 A 
HETATM   22  C   UNL     1     -41.894  55.207 -54.391  1.00  0.00     0.029 A 
BRANCH  19  23
HETATM   23  C   UNL     1     -39.872  51.540 -53.536  1.00  0.00     0.293 C 
HETATM   24  O   UNL     1     -39.692  50.632 -54.336  1.00  0.00    -0.259 OA
BRANCH  23  25
HETATM   25  O   UNL     1     -39.498  51.554 -52.236  1.00  0.00    -0.323 OA
HETATM   26  C   UNL     1     -39.454  50.261 -51.629  1.00  0.00     0.213 C 
ENDBRANCH  23  25
ENDBRANCH  19  23
ENDBRANCH  15  17
ENDBRANCH  13  15
ENDBRANCH  11  13
ENDBRANCH  10  11
ENDBRANCH   4  10
BRANCH   1  27
HETATM   27  C   UNL     1     -43.863  59.619 -56.422  1.00  0.00     0.038 C 
HETATM   28  N   UNL     1     -43.078  59.877 -57.527  1.00  0.00    -0.277 N 
HETATM   29  C   UNL     1     -42.042  60.873 -57.689  1.00  0.00     0.179 C 
HETATM   30  N   UNL     1     -43.331  59.072 -58.563  1.00  0.00    -0.172 NA
HETATM   31  C   UNL     1     -44.137  58.125 -58.072  1.00  0.00     0.092 C 
HETATM   32  C   UNL     1     -44.537  58.453 -56.753  1.00  0.00     0.061 C 
BRANCH  31  33
HETATM   33  C   UNL     1     -44.516  56.960 -58.856  1.00  0.00     0.028 A 
HETATM   34  C   UNL     1     -45.703  56.944 -59.609  1.00  0.00     0.080 A 
HETATM   35  C   UNL     1     -46.032  55.808 -60.357  1.00  0.00     0.037 A 
HETATM   36  C   UNL     1     -45.201  54.685 -60.335  1.00  0.00     0.003 A 
HETATM   37  C   UNL     1     -44.031  54.695 -59.578  1.00  0.00     0.001 A 
HETATM   38  C   UNL     1     -43.687  55.830 -58.843  1.00  0.00     0.017 A 
BRANCH  34  39
HETATM   39  O   UNL     1     -46.464  58.088 -59.644  1.00  0.00    -0.355 OA
HETATM   40  C   UNL     1     -47.226  58.246 -60.839  1.00  0.00     0.210 C 
ENDBRANCH  34  39
ENDBRANCH  31  33
ENDBRANCH   1  27
TORSDOF 10
ENDMDL
MODEL 5
REMARK VINA RESULT:      -8.1      2.804      3.797
REMARK  10 active torsions:
REMARK  status: ('A' for Active; 'I' for Inactive)
REMARK    1  A    between atoms: C_4  and  C_5 
REMARK    2  A    between atoms: C_6  and  O_7 
REMARK    3  A    between atoms: C_14  and  C_15 
REMARK    4  A    between atoms: C_18  and  C_19 
REMARK    5  A    between atoms: C_19  and  N_20 
REMARK    6  A    between atoms: N_20  and  C_21 
REMARK    7  A    between atoms: C_21  and  N_22 
REMARK    8  A    between atoms: N_22  and  C_23 
REMARK    9  A    between atoms: C_25  and  C_26 
REMARK   10  A    between atoms: C_26  and  O_27 
ROOT
HETATM    1  C   UNL     1     -43.573  59.812 -51.261  1.00  0.00     0.067 C 
HETATM    2  C   UNL     1     -45.073  59.452 -51.460  1.00  0.00     0.001 C 
HETATM    3  C   UNL     1     -45.456  59.516 -52.957  1.00  0.00     0.040 C 
HETATM    4  C   UNL     1     -45.327  60.953 -53.485  1.00  0.00     0.206 C 
HETATM    5  N   UNL     1     -44.612  61.778 -52.411  1.00  0.00    -0.065 N 
HETATM    6  H   UNL     1     -44.403  62.709 -52.799  1.00  0.00     0.280 HD
HETATM    7  C   UNL     1     -43.296  61.161 -51.964  1.00  0.00     0.246 C 
HETATM    8  C   UNL     1     -45.908  60.526 -50.724  1.00  0.00     0.033 C 
HETATM    9  C   UNL     1     -45.531  61.930 -51.211  1.00  0.00     0.236 C 
ENDROOT
BRANCH   4  10
HETATM   10  C   UNL     1     -44.684  61.107 -54.878  1.00  0.00     0.155 C 
BRANCH  10  11
HETATM   11  N   UNL     1     -45.624  61.187 -55.991  1.00  0.00    -0.365 N 
HETATM   12  H   UNL     1     -46.098  62.075 -56.124  1.00  0.00     0.161 HD
BRANCH  11  13
HETATM   13  C   UNL     1     -45.544  60.449 -57.140  1.00  0.00     0.172 C 
HETATM   14  S   UNL     1     -45.080  61.082 -58.612  1.00  0.00    -0.041 SA
BRANCH  13  15
HETATM   15  N   UNL     1     -45.744  59.100 -57.017  1.00  0.00    -0.333 N 
HETATM   16  H   UNL     1     -46.679  58.848 -56.707  1.00  0.00     0.168 HD
BRANCH  15  17
HETATM   17  C   UNL     1     -44.825  58.030 -57.118  1.00  0.00     0.035 A 
HETATM   18  C   UNL     1     -44.451  57.458 -58.335  1.00  0.00     0.047 A 
HETATM   19  C   UNL     1     -43.575  56.365 -58.387  1.00  0.00     0.041 A 
HETATM   20  C   UNL     1     -43.010  55.878 -57.207  1.00  0.00     0.018 A 
HETATM   21  C   UNL     1     -43.327  56.487 -55.990  1.00  0.00     0.003 A 
HETATM   22  C   UNL     1     -44.229  57.557 -55.947  1.00  0.00     0.029 A 
BRANCH  19  23
HETATM   23  C   UNL     1     -43.336  55.759 -59.720  1.00  0.00     0.293 C 
HETATM   24  O   UNL     1     -42.424  56.122 -60.451  1.00  0.00    -0.259 OA
BRANCH  23  25
HETATM   25  O   UNL     1     -44.244  54.791 -59.984  1.00  0.00    -0.323 OA
HETATM   26  C   UNL     1     -44.957  54.980 -61.208  1.00  0.00     0.213 C 
ENDBRANCH  23  25
ENDBRANCH  19  23
ENDBRANCH  15  17
ENDBRANCH  13  15
ENDBRANCH  11  13
ENDBRANCH  10  11
ENDBRANCH   4  10
BRANCH   1  27
HETATM   27  C   UNL     1     -42.608  58.732 -51.670  1.00  0.00     0.038 C 
HETATM   28  N   UNL     1     -41.338  58.602 -51.147  1.00  0.00    -0.277 N 
HETATM   29  C   UNL     1     -40.705  59.373 -50.100  1.00  0.00     0.179 C 
HETATM   30  N   UNL     1     -40.631  57.612 -51.700  1.00  0.00    -0.172 NA
HETATM   31  C   UNL     1     -41.513  56.935 -52.443  1.00  0.00     0.092 C 
HETATM   32  C   UNL     1     -42.748  57.627 -52.495  1.00  0.00     0.061 C 
BRANCH  31  33
HETATM   33  C   UNL     1     -41.166  55.679 -53.088  1.00  0.00     0.028 A 
HETATM   34  C   UNL     1     -41.463  54.444 -52.484  1.00  0.00     0.080 A 
HETATM   35  C   UNL     1     -41.120  53.255 -53.137  1.00  0.00     0.037 A 
HETATM   36  C   UNL     1     -40.463  53.291 -54.369  1.00  0.00     0.003 A 
HETATM   37  C   UNL     1     -40.157  54.515 -54.963  1.00  0.00     0.001 A 
HETATM   38  C   UNL     1     -40.510  55.705 -54.327  1.00  0.00     0.017 A 
BRANCH  34  39
HETATM   39  O   UNL     1     -42.156  54.453 -51.298  1.00  0.00    -0.355 OA
HETATM   40  C   UNL     1     -43.492  53.966 -51.399  1.00  0.00     0.210 C 
ENDBRANCH  34  39
ENDBRANCH  31  33
ENDBRANCH   1  27
TORSDOF 10
ENDMDL
MODEL 6
REMARK VINA RESULT:      -8.1      1.711      1.812
REMARK  10 active torsions:
REMARK  status: ('A' for Active; 'I' for Inactive)
REMARK    1  A    between atoms: C_4  and  C_5 
REMARK    2  A    between atoms: C_6  and  O_7 
REMARK    3  A    between atoms: C_14  and  C_15 
REMARK    4  A    between atoms: C_18  and  C_19 
REMARK    5  A    between atoms: C_19  and  N_20 
REMARK    6  A    between atoms: N_20  and  C_21 
REMARK    7  A    between atoms: C_21  and  N_22 
REMARK    8  A    between atoms: N_22  and  C_23 
REMARK    9  A    between atoms: C_25  and  C_26 
REMARK   10  A    between atoms: C_26  and  O_27 
ROOT
HETATM    1  C   UNL     1     -42.911  59.054 -52.963  1.00  0.00     0.067 C 
HETATM    2  C   UNL     1     -44.243  59.308 -53.723  1.00  0.00     0.001 C 
HETATM    3  C   UNL     1     -44.105  58.920 -55.213  1.00  0.00     0.040 C 
HETATM    4  C   UNL     1     -43.079  59.825 -55.912  1.00  0.00     0.206 C 
HETATM    5  N   UNL     1     -42.357  60.630 -54.827  1.00  0.00    -0.065 N 
HETATM    6  H   UNL     1     -41.580  61.145 -55.265  1.00  0.00     0.280 HD
HETATM    7  C   UNL     1     -41.768  59.755 -53.731  1.00  0.00     0.246 C 
HETATM    8  C   UNL     1     -44.525  60.827 -53.666  1.00  0.00     0.033 C 
HETATM    9  C   UNL     1     -43.332  61.619 -54.213  1.00  0.00     0.236 C 
ENDROOT
BRANCH   4  10
HETATM   10  C   UNL     1     -42.104  59.123 -56.879  1.00  0.00     0.155 C 
BRANCH  10  11
HETATM   11  N   UNL     1     -41.895  59.802 -58.153  1.00  0.00    -0.365 N 
HETATM   12  H   UNL     1     -41.198  60.540 -58.168  1.00  0.00     0.161 HD
BRANCH  11  13
HETATM   13  C   UNL     1     -42.102  59.242 -59.384  1.00  0.00     0.172 C 
HETATM   14  S   UNL     1     -42.144  60.121 -60.802  1.00  0.00    -0.041 SA
BRANCH  13  15
HETATM   15  N   UNL     1     -42.152  57.875 -59.435  1.00  0.00    -0.333 N 
HETATM   16  H   UNL     1     -41.238  57.427 -59.424  1.00  0.00     0.168 HD
BRANCH  15  17
HETATM   17  C   UNL     1     -43.252  57.010 -59.638  1.00  0.00     0.035 A 
HETATM   18  C   UNL     1     -44.549  57.467 -59.877  1.00  0.00     0.047 A 
HETATM   19  C   UNL     1     -45.620  56.576 -60.024  1.00  0.00     0.041 A 
HETATM   20  C   UNL     1     -45.381  55.201 -59.999  1.00  0.00     0.018 A 
HETATM   21  C   UNL     1     -44.076  54.733 -59.826  1.00  0.00     0.003 A 
HETATM   22  C   UNL     1     -43.018  55.633 -59.648  1.00  0.00     0.029 A 
BRANCH  19  23
HETATM   23  C   UNL     1     -46.974  57.169 -60.156  1.00  0.00     0.293 C 
HETATM   24  O   UNL     1     -47.238  58.295 -59.756  1.00  0.00    -0.259 OA
BRANCH  23  25
HETATM   25  O   UNL     1     -47.824  56.308 -60.760  1.00  0.00    -0.323 OA
HETATM   26  C   UNL     1     -48.169  56.671 -62.098  1.00  0.00     0.213 C 
ENDBRANCH  23  25
ENDBRANCH  19  23
ENDBRANCH  15  17
ENDBRANCH  13  15
ENDBRANCH  11  13
ENDBRANCH  10  11
ENDBRANCH   4  10
BRANCH   1  27
HETATM   27  C   UNL     1     -42.617  57.606 -52.675  1.00  0.00     0.038 C 
HETATM   28  N   UNL     1     -43.366  56.829 -51.815  1.00  0.00    -0.277 N 
HETATM   29  C   UNL     1     -44.571  57.177 -51.095  1.00  0.00     0.179 C 
HETATM   30  N   UNL     1     -42.888  55.590 -51.660  1.00  0.00    -0.172 NA
HETATM   31  C   UNL     1     -41.939  55.471 -52.594  1.00  0.00     0.092 C 
HETATM   32  C   UNL     1     -41.701  56.720 -53.218  1.00  0.00     0.061 C 
BRANCH  31  33
HETATM   33  C   UNL     1     -41.281  54.201 -52.859  1.00  0.00     0.028 A 
HETATM   34  C   UNL     1     -40.411  53.622 -51.917  1.00  0.00     0.080 A 
HETATM   35  C   UNL     1     -39.801  52.396 -52.203  1.00  0.00     0.037 A 
HETATM   36  C   UNL     1     -40.032  51.761 -53.426  1.00  0.00     0.003 A 
HETATM   37  C   UNL     1     -40.884  52.340 -54.365  1.00  0.00     0.001 A 
HETATM   38  C   UNL     1     -41.510  53.555 -54.081  1.00  0.00     0.017 A 
BRANCH  34  39
HETATM   39  O   UNL     1     -40.253  54.253 -50.707  1.00  0.00    -0.355 OA
HETATM   40  C   UNL     1     -40.494  53.417 -49.577  1.00  0.00     0.210 C 
ENDBRANCH  34  39
ENDBRANCH  31  33
ENDBRANCH   1  27
TORSDOF 10
ENDMDL
MODEL 7
REMARK VINA RESULT:      -8.1      1.877      2.364
REMARK  10 active torsions:
REMARK  status: ('A' for Active; 'I' for Inactive)
REMARK    1  A    between atoms: C_4  and  C_5 
REMARK    2  A    between atoms: C_6  and  O_7 
REMARK    3  A    between atoms: C_14  and  C_15 
REMARK    4  A    between atoms: C_18  and  C_19 
REMARK    5  A    between atoms: C_19  and  N_20 
REMARK    6  A    between atoms: N_20  and  C_21 
REMARK    7  A    between atoms: C_21  and  N_22 
REMARK    8  A    between atoms: N_22  and  C_23 
REMARK    9  A    between atoms: C_25  and  C_26 
REMARK   10  A    between atoms: C_26  and  O_27 
ROOT
HETATM    1  C   UNL     1     -42.526  58.864 -52.588  1.00  0.00     0.067 C 
HETATM    2  C   UNL     1     -43.911  59.222 -53.197  1.00  0.00     0.001 C 
HETATM    3  C   UNL     1     -43.934  58.921 -54.714  1.00  0.00     0.040 C 
HETATM    4  C   UNL     1     -42.937  59.823 -55.457  1.00  0.00     0.206 C 
HETATM    5  N   UNL     1     -42.077  60.528 -54.404  1.00  0.00    -0.065 N 
HETATM    6  H   UNL     1     -41.321  61.036 -54.886  1.00  0.00     0.280 HD
HETATM    7  C   UNL     1     -41.429  59.563 -53.424  1.00  0.00     0.246 C 
HETATM    8  C   UNL     1     -44.112  60.745 -53.026  1.00  0.00     0.033 C 
HETATM    9  C   UNL     1     -42.940  61.518 -53.642  1.00  0.00     0.236 C 
ENDROOT
BRANCH   4  10
HETATM   10  C   UNL     1     -42.095  59.141 -56.554  1.00  0.00     0.155 C 
BRANCH  10  11
HETATM   11  N   UNL     1     -41.882  59.936 -57.759  1.00  0.00    -0.365 N 
HETATM   12  H   UNL     1     -41.154  60.642 -57.717  1.00  0.00     0.161 HD
BRANCH  11  13
HETATM   13  C   UNL     1     -42.138  59.512 -59.034  1.00  0.00     0.172 C 
HETATM   14  S   UNL     1     -42.377  60.547 -60.320  1.00  0.00    -0.041 SA
BRANCH  13  15
HETATM   15  N   UNL     1     -42.068  58.163 -59.257  1.00  0.00    -0.333 N 
HETATM   16  H   UNL     1     -41.120  57.813 -59.377  1.00  0.00     0.168 HD
BRANCH  15  17
HETATM   17  C   UNL     1     -43.098  57.221 -59.481  1.00  0.00     0.035 A 
HETATM   18  C   UNL     1     -44.443  57.575 -59.604  1.00  0.00     0.047 A 
HETATM   19  C   UNL     1     -45.439  56.605 -59.775  1.00  0.00     0.041 A 
HETATM   20  C   UNL     1     -45.079  55.261 -59.895  1.00  0.00     0.018 A 
HETATM   21  C   UNL     1     -43.730  54.904 -59.840  1.00  0.00     0.003 A 
HETATM   22  C   UNL     1     -42.745  55.878 -59.635  1.00  0.00     0.029 A 
BRANCH  19  23
HETATM   23  C   UNL     1     -46.845  57.079 -59.776  1.00  0.00     0.293 C 
HETATM   24  O   UNL     1     -47.187  58.117 -59.225  1.00  0.00    -0.259 OA
BRANCH  23  25
HETATM   25  O   UNL     1     -47.646  56.222 -60.449  1.00  0.00    -0.323 OA
HETATM   26  C   UNL     1     -47.989  56.657 -61.766  1.00  0.00     0.213 C 
ENDBRANCH  23  25
ENDBRANCH  19  23
ENDBRANCH  15  17
ENDBRANCH  13  15
ENDBRANCH  11  13
ENDBRANCH  10  11
ENDBRANCH   4  10
BRANCH   1  27
HETATM   27  C   UNL     1     -42.276  57.391 -52.414  1.00  0.00     0.038 C 
HETATM   28  N   UNL     1     -43.083  56.560 -51.663  1.00  0.00    -0.277 N 
HETATM   29  C   UNL     1     -44.316  56.874 -50.975  1.00  0.00     0.179 C 
HETATM   30  N   UNL     1     -42.639  55.302 -51.594  1.00  0.00    -0.172 NA
HETATM   31  C   UNL     1     -41.646  55.240 -52.488  1.00  0.00     0.092 C 
HETATM   32  C   UNL     1     -41.351  56.533 -52.988  1.00  0.00     0.061 C 
BRANCH  31  33
HETATM   33  C   UNL     1     -41.002  53.982 -52.830  1.00  0.00     0.028 A 
HETATM   34  C   UNL     1     -41.025  53.486 -54.146  1.00  0.00     0.080 A 
HETATM   35  C   UNL     1     -40.389  52.276 -54.440  1.00  0.00     0.037 A 
HETATM   36  C   UNL     1     -39.756  51.548 -53.429  1.00  0.00     0.003 A 
HETATM   37  C   UNL     1     -39.744  52.032 -52.122  1.00  0.00     0.001 A 
HETATM   38  C   UNL     1     -40.361  53.247 -51.823  1.00  0.00     0.017 A 
BRANCH  34  39
HETATM   39  O   UNL     1     -41.613  54.258 -55.119  1.00  0.00    -0.355 OA
HETATM   40  C   UNL     1     -42.988  53.963 -55.348  1.00  0.00     0.210 C 
ENDBRANCH  34  39
ENDBRANCH  31  33
ENDBRANCH   1  27
TORSDOF 10
ENDMDL
MODEL 8
REMARK VINA RESULT:      -8.0      2.003      8.166
REMARK  10 active torsions:
REMARK  status: ('A' for Active; 'I' for Inactive)
REMARK    1  A    between atoms: C_4  and  C_5 
REMARK    2  A    between atoms: C_6  and  O_7 
REMARK    3  A    between atoms: C_14  and  C_15 
REMARK    4  A    between atoms: C_18  and  C_19 
REMARK    5  A    between atoms: C_19  and  N_20 
REMARK    6  A    between atoms: N_20  and  C_21 
REMARK    7  A    between atoms: C_21  and  N_22 
REMARK    8  A    between atoms: N_22  and  C_23 
REMARK    9  A    between atoms: C_25  and  C_26 
REMARK   10  A    between atoms: C_26  and  O_27 
ROOT
HETATM    1  C   UNL     1     -44.365  60.133 -54.814  1.00  0.00     0.067 C 
HETATM    2  C   UNL     1     -42.879  60.549 -54.620  1.00  0.00     0.001 C 
HETATM    3  C   UNL     1     -41.973  59.302 -54.505  1.00  0.00     0.040 C 
HETATM    4  C   UNL     1     -42.320  58.500 -53.241  1.00  0.00     0.206 C 
HETATM    5  N   UNL     1     -43.620  59.074 -52.671  1.00  0.00    -0.065 N 
HETATM    6  H   UNL     1     -43.935  58.467 -51.900  1.00  0.00     0.280 HD
HETATM    7  C   UNL     1     -44.743  59.135 -53.695  1.00  0.00     0.246 C 
HETATM    8  C   UNL     1     -42.784  61.314 -53.280  1.00  0.00     0.033 C 
HETATM    9  C   UNL     1     -43.351  60.469 -52.134  1.00  0.00     0.236 C 
ENDROOT
BRANCH   4  10
HETATM   10  C   UNL     1     -42.368  56.967 -53.405  1.00  0.00     0.155 C 
BRANCH  10  11
HETATM   11  N   UNL     1     -41.411  56.413 -54.356  1.00  0.00    -0.365 N 
HETATM   12  H   UNL     1     -40.430  56.609 -54.183  1.00  0.00     0.161 HD
BRANCH  11  13
HETATM   13  C   UNL     1     -41.604  55.275 -55.091  1.00  0.00     0.172 C 
HETATM   14  S   UNL     1     -42.831  55.095 -56.207  1.00  0.00    -0.041 SA
BRANCH  13  15
HETATM   15  N   UNL     1     -40.652  54.299 -54.971  1.00  0.00    -0.333 N 
HETATM   16  H   UNL     1     -40.148  54.104 -55.833  1.00  0.00     0.168 HD
BRANCH  15  17
HETATM   17  C   UNL     1     -40.361  53.437 -53.888  1.00  0.00     0.035 A 
HETATM   18  C   UNL     1     -40.544  53.802 -52.553  1.00  0.00     0.047 A 
HETATM   19  C   UNL     1     -40.197  52.936 -51.507  1.00  0.00     0.041 A 
HETATM   20  C   UNL     1     -39.722  51.656 -51.801  1.00  0.00     0.018 A 
HETATM   21  C   UNL     1     -39.598  51.258 -53.134  1.00  0.00     0.003 A 
HETATM   22  C   UNL     1     -39.916  52.144 -54.171  1.00  0.00     0.029 A 
BRANCH  19  23
HETATM   23  C   UNL     1     -40.321  53.466 -50.127  1.00  0.00     0.293 C 
HETATM   24  O   UNL     1     -40.532  52.742 -49.163  1.00  0.00    -0.259 OA
BRANCH  23  25
HETATM   25  O   UNL     1     -40.173  54.811 -50.108  1.00  0.00    -0.323 OA
HETATM   26  C   UNL     1     -41.226  55.503 -49.435  1.00  0.00     0.213 C 
ENDBRANCH  23  25
ENDBRANCH  19  23
ENDBRANCH  15  17
ENDBRANCH  13  15
ENDBRANCH  11  13
ENDBRANCH  10  11
ENDBRANCH   4  10
BRANCH   1  27
HETATM   27  C   UNL     1     -44.701  59.622 -56.189  1.00  0.00     0.038 C 
HETATM   28  N   UNL     1     -44.846  60.436 -57.294  1.00  0.00    -0.277 N 
HETATM   29  C   UNL     1     -44.649  61.865 -57.400  1.00  0.00     0.179 C 
HETATM   30  N   UNL     1     -45.207  59.777 -58.399  1.00  0.00    -0.172 NA
HETATM   31  C   UNL     1     -45.088  58.484 -58.081  1.00  0.00     0.092 C 
HETATM   32  C   UNL     1     -44.823  58.338 -56.697  1.00  0.00     0.061 C 
BRANCH  31  33
HETATM   33  C   UNL     1     -45.241  57.434 -59.076  1.00  0.00     0.028 A 
HETATM   34  C   UNL     1     -44.120  56.810 -59.654  1.00  0.00     0.080 A 
HETATM   35  C   UNL     1     -44.305  55.799 -60.603  1.00  0.00     0.037 A 
HETATM   36  C   UNL     1     -45.593  55.428 -60.995  1.00  0.00     0.003 A 
HETATM   37  C   UNL     1     -46.704  56.054 -60.433  1.00  0.00     0.001 A 
HETATM   38  C   UNL     1     -46.529  57.052 -59.473  1.00  0.00     0.017 A 
BRANCH  34  39
HETATM   39  O   UNL     1     -42.873  57.169 -59.201  1.00  0.00    -0.355 OA
HETATM   40  C   UNL     1     -42.034  57.745 -60.198  1.00  0.00     0.210 C 
ENDBRANCH  34  39
ENDBRANCH  31  33
ENDBRANCH   1  27
TORSDOF 10
ENDMDL
MODEL 9
REMARK VINA RESULT:      -7.9      4.589      8.856
REMARK  10 active torsions:
REMARK  status: ('A' for Active; 'I' for Inactive)
REMARK    1  A    between atoms: C_4  and  C_5 
REMARK    2  A    between atoms: C_6  and  O_7 
REMARK    3  A    between atoms: C_14  and  C_15 
REMARK    4  A    between atoms: C_18  and  C_19 
REMARK    5  A    between atoms: C_19  and  N_20 
REMARK    6  A    between atoms: N_20  and  C_21 
REMARK    7  A    between atoms: C_21  and  N_22 
REMARK    8  A    between atoms: N_22  and  C_23 
REMARK    9  A    between atoms: C_25  and  C_26 
REMARK   10  A    between atoms: C_26  and  O_27 
ROOT
HETATM    1  C   UNL     1     -44.623  61.121 -52.885  1.00  0.00     0.067 C 
HETATM    2  C   UNL     1     -45.204  59.732 -53.276  1.00  0.00     0.001 C 
HETATM    3  C   UNL     1     -44.563  58.612 -52.425  1.00  0.00     0.040 C 
HETATM    4  C   UNL     1     -43.060  58.504 -52.723  1.00  0.00     0.206 C 
HETATM    5  N   UNL     1     -42.667  59.718 -53.570  1.00  0.00    -0.065 N 
HETATM    6  H   UNL     1     -41.642  59.728 -53.670  1.00  0.00     0.280 HD
HETATM    7  C   UNL     1     -43.081  61.039 -52.942  1.00  0.00     0.246 C 
HETATM    8  C   UNL     1     -44.819  59.469 -54.751  1.00  0.00     0.033 C 
HETATM    9  C   UNL     1     -43.303  59.590 -54.943  1.00  0.00     0.236 C 
ENDROOT
BRANCH   4  10
HETATM   10  C   UNL     1     -42.140  58.308 -51.501  1.00  0.00     0.155 C 
BRANCH  10  11
HETATM   11  N   UNL     1     -42.574  57.287 -50.554  1.00  0.00    -0.365 N 
HETATM   12  H   UNL     1     -43.512  57.382 -50.178  1.00  0.00     0.161 HD
BRANCH  11  13
HETATM   13  C   UNL     1     -42.118  55.997 -50.528  1.00  0.00     0.172 C 
HETATM   14  S   UNL     1     -41.275  55.342 -49.245  1.00  0.00    -0.041 SA
BRANCH  13  15
HETATM   15  N   UNL     1     -42.495  55.193 -51.570  1.00  0.00    -0.333 N 
HETATM   16  H   UNL     1     -43.477  54.929 -51.554  1.00  0.00     0.168 HD
BRANCH  15  17
HETATM   17  C   UNL     1     -41.713  54.569 -52.569  1.00  0.00     0.035 A 
HETATM   18  C   UNL     1     -41.076  53.341 -52.384  1.00  0.00     0.047 A 
HETATM   19  C   UNL     1     -40.269  52.781 -53.383  1.00  0.00     0.041 A 
HETATM   20  C   UNL     1     -40.150  53.426 -54.615  1.00  0.00     0.018 A 
HETATM   21  C   UNL     1     -40.837  54.623 -54.833  1.00  0.00     0.003 A 
HETATM   22  C   UNL     1     -41.614  55.190 -53.816  1.00  0.00     0.029 A 
BRANCH  19  23
HETATM   23  C   UNL     1     -39.545  51.532 -53.040  1.00  0.00     0.293 C 
HETATM   24  O   UNL     1     -39.337  51.191 -51.883  1.00  0.00    -0.259 OA
BRANCH  23  25
HETATM   25  O   UNL     1     -39.170  50.866 -54.156  1.00  0.00    -0.323 OA
HETATM   26  C   UNL     1     -39.991  49.738 -54.465  1.00  0.00     0.213 C 
ENDBRANCH  23  25
ENDBRANCH  19  23
ENDBRANCH  15  17
ENDBRANCH  13  15
ENDBRANCH  11  13
ENDBRANCH  10  11
ENDBRANCH   4  10
BRANCH   1  27
HETATM   27  C   UNL     1     -45.130  61.669 -51.578  1.00  0.00     0.038 C 
HETATM   28  N   UNL     1     -46.442  62.034 -51.358  1.00  0.00    -0.277 N 
HETATM   29  C   UNL     1     -47.578  61.914 -52.245  1.00  0.00     0.179 C 
HETATM   30  N   UNL     1     -46.656  62.555 -50.145  1.00  0.00    -0.172 NA
HETATM   31  C   UNL     1     -45.523  62.332 -49.473  1.00  0.00     0.092 C 
HETATM   32  C   UNL     1     -44.524  61.826 -50.341  1.00  0.00     0.061 C 
BRANCH  31  33
HETATM   33  C   UNL     1     -45.409  62.612 -48.050  1.00  0.00     0.028 A 
HETATM   34  C   UNL     1     -45.719  61.634 -47.088  1.00  0.00     0.080 A 
HETATM   35  C   UNL     1     -45.592  61.937 -45.728  1.00  0.00     0.037 A 
HETATM   36  C   UNL     1     -45.186  63.212 -45.325  1.00  0.00     0.003 A 
HETATM   37  C   UNL     1     -44.891  64.186 -46.277  1.00  0.00     0.001 A 
HETATM   38  C   UNL     1     -44.999  63.887 -47.636  1.00  0.00     0.017 A 
BRANCH  34  39
HETATM   39  O   UNL     1     -46.063  60.379 -47.528  1.00  0.00    -0.355 OA
HETATM   40  C   UNL     1     -46.441  59.479 -46.488  1.00  0.00     0.210 C 
ENDBRANCH  34  39
ENDBRANCH  31  33
ENDBRANCH   1  27
TORSDOF 10
ENDMDL
MODEL 10
REMARK VINA RESULT:      -7.9      2.189      7.766
REMARK  10 active torsions:
REMARK  status: ('A' for Active; 'I' for Inactive)
REMARK    1  A    between atoms: C_4  and  C_5 
REMARK    2  A    between atoms: C_6  and  O_7 
REMARK    3  A    between atoms: C_14  and  C_15 
REMARK    4  A    between atoms: C_18  and  C_19 
REMARK    5  A    between atoms: C_19  and  N_20 
REMARK    6  A    between atoms: N_20  and  C_21 
REMARK    7  A    between atoms: C_21  and  N_22 
REMARK    8  A    between atoms: N_22  and  C_23 
REMARK    9  A    between atoms: C_25  and  C_26 
REMARK   10  A    between atoms: C_26  and  O_27 
ROOT
HETATM    1  C   UNL     1     -44.693  60.917 -53.917  1.00  0.00     0.067 C 
HETATM    2  C   UNL     1     -43.447  61.015 -52.991  1.00  0.00     0.001 C 
HETATM    3  C   UNL     1     -43.157  59.652 -52.320  1.00  0.00     0.040 C 
HETATM    4  C   UNL     1     -44.309  59.258 -51.383  1.00  0.00     0.206 C 
HETATM    5  N   UNL     1     -45.466  60.229 -51.637  1.00  0.00    -0.065 N 
HETATM    6  H   UNL     1     -46.289  59.901 -51.112  1.00  0.00     0.280 HD
HETATM    7  C   UNL     1     -45.860  60.312 -53.103  1.00  0.00     0.246 C 
HETATM    8  C   UNL     1     -43.785  62.020 -51.866  1.00  0.00     0.033 C 
HETATM    9  C   UNL     1     -45.071  61.609 -51.142  1.00  0.00     0.236 C 
ENDROOT
BRANCH   4  10
HETATM   10  C   UNL     1     -44.749  57.781 -51.436  1.00  0.00     0.155 C 
BRANCH  10  11
HETATM   11  N   UNL     1     -43.935  56.861 -50.649  1.00  0.00    -0.365 N 
HETATM   12  H   UNL     1     -44.388  56.411 -49.860  1.00  0.00     0.161 HD
BRANCH  11  13
HETATM   13  C   UNL     1     -42.871  56.147 -51.130  1.00  0.00     0.172 C 
HETATM   14  S   UNL     1     -41.521  55.779 -50.221  1.00  0.00    -0.041 SA
BRANCH  13  15
HETATM   15  N   UNL     1     -43.006  55.617 -52.385  1.00  0.00    -0.333 N 
HETATM   16  H   UNL     1     -43.965  55.600 -52.726  1.00  0.00     0.168 HD
BRANCH  15  17
HETATM   17  C   UNL     1     -42.055  54.972 -53.209  1.00  0.00     0.035 A 
HETATM   18  C   UNL     1     -41.616  53.665 -52.990  1.00  0.00     0.047 A 
HETATM   19  C   UNL     1     -40.635  53.081 -53.801  1.00  0.00     0.041 A 
HETATM   20  C   UNL     1     -40.132  53.789 -54.894  1.00  0.00     0.018 A 
HETATM   21  C   UNL     1     -40.614  55.073 -55.161  1.00  0.00     0.003 A 
HETATM   22  C   UNL     1     -41.570  55.660 -54.323  1.00  0.00     0.029 A 
BRANCH  19  23
HETATM   23  C   UNL     1     -40.155  51.732 -53.409  1.00  0.00     0.293 C 
HETATM   24  O   UNL     1     -39.530  51.533 -52.377  1.00  0.00    -0.259 OA
BRANCH  23  25
HETATM   25  O   UNL     1     -40.503  50.806 -54.332  1.00  0.00    -0.323 OA
HETATM   26  C   UNL     1     -39.528  49.780 -54.524  1.00  0.00     0.213 C 
ENDBRANCH  23  25
ENDBRANCH  19  23
ENDBRANCH  15  17
ENDBRANCH  13  15
ENDBRANCH  11  13
ENDBRANCH  10  11
ENDBRANCH   4  10
BRANCH   1  27
HETATM   27  C   UNL     1     -44.455  60.200 -55.217  1.00  0.00     0.038 C 
HETATM   28  N   UNL     1     -43.804  60.763 -56.296  1.00  0.00    -0.277 N 
HETATM   29  C   UNL     1     -43.173  62.061 -56.397  1.00  0.00     0.179 C 
HETATM   30  N   UNL     1     -43.761  59.969 -57.370  1.00  0.00    -0.172 NA
HETATM   31  C   UNL     1     -44.193  58.781 -56.934  1.00  0.00     0.092 C 
HETATM   32  C   UNL     1     -44.685  58.890 -55.610  1.00  0.00     0.061 C 
BRANCH  31  33
HETATM   33  C   UNL     1     -44.145  57.594 -57.773  1.00  0.00     0.028 A 
HETATM   34  C   UNL     1     -45.071  57.400 -58.814  1.00  0.00     0.080 A 
HETATM   35  C   UNL     1     -44.990  56.249 -59.606  1.00  0.00     0.037 A 
HETATM   36  C   UNL     1     -44.013  55.285 -59.349  1.00  0.00     0.003 A 
HETATM   37  C   UNL     1     -43.103  55.470 -58.310  1.00  0.00     0.001 A 
HETATM   38  C   UNL     1     -43.165  56.623 -57.526  1.00  0.00     0.017 A 
BRANCH  34  39
HETATM   39  O   UNL     1     -45.982  58.398 -59.065  1.00  0.00    -0.355 OA
HETATM   40  C   UNL     1     -46.879  58.113 -60.136  1.00  0.00     0.210 C 
ENDBRANCH  34  39
ENDBRANCH  31  33
ENDBRANCH   1  27
TORSDOF 10
ENDMDL
