MODEL 1
REMARK VINA RESULT:      -8.1      0.000      0.000
REMARK  5 active torsions:
REMARK  status: ('A' for Active; 'I' for Inactive)
REMARK    1  A    between atoms: C_2  and  N_3 
REMARK    2  A    between atoms: C_2  and  C_14 
REMARK       I    between atoms: N_3  and  C_4 
REMARK       I    between atoms: C_4  and  N_5 
REMARK    3  A    between atoms: N_5  and  C_6 
REMARK    4  A    between atoms: C_6  and  C_7 
REMARK    5  A    between atoms: C_16  and  C_17 
ROOT
HETATM    1  C   UNL     1     -45.038  57.626 -51.279  1.00  0.00     0.041 C 
HETATM    2  C   UNL     1     -44.064  57.575 -52.455  1.00  0.00     0.153 C 
ENDROOT
BRANCH   2   3
HETATM    3  N   UNL     1     -44.748  57.248 -53.689  1.00  0.00    -0.332 N 
HETATM    4  C   UNL     1     -44.606  58.030 -54.800  1.00  0.00     0.317 C 
HETATM    5  N   UNL     1     -45.447  57.650 -55.806  1.00  0.00    -0.339 N 
HETATM    6  O   UNL     1     -43.820  58.965 -54.872  1.00  0.00    -0.247 OA
HETATM    7  H   UNL     1     -45.757  56.691 -55.799  1.00  0.00     0.164 HD
HETATM    8  H   UNL     1     -45.584  56.686 -53.603  1.00  0.00     0.165 HD
BRANCH   5   9
HETATM    9  C   UNL     1     -45.368  58.296 -57.096  1.00  0.00     0.162 C 
BRANCH   9  10
HETATM   10  C   UNL     1     -44.898  57.336 -58.156  1.00  0.00    -0.040 A 
HETATM   11  C   UNL     1     -43.627  56.748 -58.057  1.00  0.00     0.009 A 
HETATM   12  C   UNL     1     -43.186  55.845 -59.025  1.00  0.00     0.001 A 
HETATM   13  C   UNL     1     -44.008  55.522 -60.102  1.00  0.00     0.000 A 
HETATM   14  C   UNL     1     -45.270  56.103 -60.215  1.00  0.00     0.001 A 
HETATM   15  C   UNL     1     -45.714  57.008 -59.247  1.00  0.00     0.009 A 
ENDBRANCH   9  10
ENDBRANCH   5   9
ENDBRANCH   2   3
BRANCH   2  16
HETATM   16  C   UNL     1     -43.018  56.536 -52.229  1.00  0.00     0.145 A 
HETATM   17  N   UNL     1     -42.759  55.456 -52.940  1.00  0.00    -0.210 NA
HETATM   18  C   UNL     1     -41.701  54.870 -52.276  1.00  0.00     0.181 A 
HETATM   19  N   UNL     1     -41.309  55.547 -51.184  1.00  0.00    -0.152 NA
HETATM   20  N   UNL     1     -42.145  56.593 -51.184  1.00  0.00    -0.261 N 
HETATM   21  H   UNL     1     -42.064  57.293 -50.455  1.00  0.00     0.190 HD
BRANCH  18  22
HETATM   22  C   UNL     1     -41.077  53.631 -52.735  1.00  0.00     0.014 A 
HETATM   23  C   UNL     1     -40.210  52.918 -51.892  1.00  0.00     0.017 A 
HETATM   24  C   UNL     1     -39.617  51.728 -52.323  1.00  0.00     0.025 A 
HETATM   25  C   UNL     1     -39.885  51.243 -53.601  1.00  0.00     0.034 A 
HETATM   26 CL   UNL     1     -39.157  49.777 -54.131  1.00  0.00    -0.084 Cl
HETATM   27  C   UNL     1     -40.741  51.938 -54.452  1.00  0.00     0.025 A 
HETATM   28  C   UNL     1     -41.334  53.128 -54.020  1.00  0.00     0.017 A 
ENDBRANCH  18  22
ENDBRANCH   2  16
TORSDOF 5
ENDMDL
MODEL 2
REMARK VINA RESULT:      -8.1      4.175      7.503
REMARK  5 active torsions:
REMARK  status: ('A' for Active; 'I' for Inactive)
REMARK    1  A    between atoms: C_2  and  N_3 
REMARK    2  A    between atoms: C_2  and  C_14 
REMARK       I    between atoms: N_3  and  C_4 
REMARK       I    between atoms: C_4  and  N_5 
REMARK    3  A    between atoms: N_5  and  C_6 
REMARK    4  A    between atoms: C_6  and  C_7 
REMARK    5  A    between atoms: C_16  and  C_17 
ROOT
HETATM    1  C   UNL     1     -40.609  59.121 -52.185  1.00  0.00     0.041 C 
HETATM    2  C   UNL     1     -41.961  58.448 -51.957  1.00  0.00     0.153 C 
ENDROOT
BRANCH   2   3
HETATM    3  N   UNL     1     -42.605  58.956 -50.762  1.00  0.00    -0.332 N 
HETATM    4  C   UNL     1     -43.459  60.019 -50.823  1.00  0.00     0.317 C 
HETATM    5  N   UNL     1     -43.838  60.446 -49.583  1.00  0.00    -0.339 N 
HETATM    6  O   UNL     1     -43.830  60.530 -51.872  1.00  0.00    -0.247 OA
HETATM    7  H   UNL     1     -43.799  59.765 -48.839  1.00  0.00     0.164 HD
HETATM    8  H   UNL     1     -42.138  58.766 -49.887  1.00  0.00     0.165 HD
BRANCH   5   9
HETATM    9  C   UNL     1     -44.820  61.496 -49.448  1.00  0.00     0.162 C 
BRANCH   9  10
HETATM   10  C   UNL     1     -44.932  61.955 -48.018  1.00  0.00    -0.040 A 
HETATM   11  C   UNL     1     -44.990  63.326 -47.723  1.00  0.00     0.009 A 
HETATM   12  C   UNL     1     -45.109  63.765 -46.404  1.00  0.00     0.001 A 
HETATM   13  C   UNL     1     -45.171  62.837 -45.366  1.00  0.00     0.000 A 
HETATM   14  C   UNL     1     -45.109  61.473 -45.645  1.00  0.00     0.001 A 
HETATM   15  C   UNL     1     -44.989  61.033 -46.965  1.00  0.00     0.009 A 
ENDBRANCH   9  10
ENDBRANCH   5   9
ENDBRANCH   2   3
BRANCH   2  16
HETATM   16  C   UNL     1     -41.796  56.975 -51.790  1.00  0.00     0.145 A 
HETATM   17  N   UNL     1     -41.226  56.110 -52.606  1.00  0.00    -0.210 NA
HETATM   18  C   UNL     1     -41.359  54.903 -51.951  1.00  0.00     0.181 A 
HETATM   19  N   UNL     1     -41.995  54.997 -50.771  1.00  0.00    -0.152 NA
HETATM   20  N   UNL     1     -42.248  56.309 -50.690  1.00  0.00    -0.261 N 
HETATM   21  H   UNL     1     -42.724  56.674 -49.872  1.00  0.00     0.190 HD
BRANCH  18  22
HETATM   22  C   UNL     1     -40.848  53.651 -52.503  1.00  0.00     0.014 A 
HETATM   23  C   UNL     1     -41.202  53.251 -53.801  1.00  0.00     0.017 A 
HETATM   24  C   UNL     1     -40.708  52.057 -54.338  1.00  0.00     0.025 A 
HETATM   25  C   UNL     1     -39.859  51.255 -53.580  1.00  0.00     0.034 A 
HETATM   26 CL   UNL     1     -39.250  49.788 -54.240  1.00  0.00    -0.084 Cl
HETATM   27  C   UNL     1     -39.499  51.635 -52.288  1.00  0.00     0.025 A 
HETATM   28  C   UNL     1     -39.992  52.829 -51.753  1.00  0.00     0.017 A 
ENDBRANCH  18  22
ENDBRANCH   2  16
TORSDOF 5
ENDMDL
MODEL 3
REMARK VINA RESULT:      -8.0      1.616      1.830
REMARK  5 active torsions:
REMARK  status: ('A' for Active; 'I' for Inactive)
REMARK    1  A    between atoms: C_2  and  N_3 
REMARK    2  A    between atoms: C_2  and  C_14 
REMARK       I    between atoms: N_3  and  C_4 
REMARK       I    between atoms: C_4  and  N_5 
REMARK    3  A    between atoms: N_5  and  C_6 
REMARK    4  A    between atoms: C_6  and  C_7 
REMARK    5  A    between atoms: C_16  and  C_17 
ROOT
HETATM    1  C   UNL     1     -44.006  58.319 -51.204  1.00  0.00     0.041 C 
HETATM    2  C   UNL     1     -42.803  58.204 -52.138  1.00  0.00     0.153 C 
ENDROOT
BRANCH   2   3
HETATM    3  N   UNL     1     -43.215  58.212 -53.527  1.00  0.00    -0.332 N 
HETATM    4  C   UNL     1     -42.418  58.757 -54.493  1.00  0.00     0.317 C 
HETATM    5  N   UNL     1     -43.044  58.812 -55.705  1.00  0.00    -0.339 N 
HETATM    6  O   UNL     1     -41.279  59.156 -54.285  1.00  0.00    -0.247 OA
HETATM    7  H   UNL     1     -43.785  58.146 -55.861  1.00  0.00     0.164 HD
HETATM    8  H   UNL     1     -44.209  58.161 -53.700  1.00  0.00     0.165 HD
BRANCH   5   9
HETATM    9  C   UNL     1     -42.321  59.264 -56.872  1.00  0.00     0.162 C 
BRANCH   9  10
HETATM   10  C   UNL     1     -42.380  58.242 -57.976  1.00  0.00    -0.040 A 
HETATM   11  C   UNL     1     -41.963  58.584 -59.272  1.00  0.00     0.009 A 
HETATM   12  C   UNL     1     -41.997  57.643 -60.301  1.00  0.00     0.001 A 
HETATM   13  C   UNL     1     -42.450  56.350 -60.046  1.00  0.00     0.000 A 
HETATM   14  C   UNL     1     -42.872  55.999 -58.765  1.00  0.00     0.001 A 
HETATM   15  C   UNL     1     -42.839  56.941 -57.733  1.00  0.00     0.009 A 
ENDBRANCH   9  10
ENDBRANCH   5   9
ENDBRANCH   2   3
BRANCH   2  16
HETATM   16  C   UNL     1     -42.065  56.931 -51.893  1.00  0.00     0.145 A 
HETATM   17  N   UNL     1     -41.881  55.913 -52.711  1.00  0.00    -0.210 NA
HETATM   18  C   UNL     1     -41.135  55.022 -51.965  1.00  0.00     0.181 A 
HETATM   19  N   UNL     1     -40.864  55.455 -50.723  1.00  0.00    -0.152 NA
HETATM   20  N   UNL     1     -41.449  56.659 -50.708  1.00  0.00    -0.261 N 
HETATM   21  H   UNL     1     -41.391  57.230 -49.872  1.00  0.00     0.190 HD
BRANCH  18  22
HETATM   22  C   UNL     1     -40.690  53.736 -52.495  1.00  0.00     0.014 A 
HETATM   23  C   UNL     1     -39.982  52.839 -51.680  1.00  0.00     0.017 A 
HETATM   24  C   UNL     1     -39.561  51.603 -52.181  1.00  0.00     0.025 A 
HETATM   25  C   UNL     1     -39.844  51.256 -53.499  1.00  0.00     0.034 A 
HETATM   26 CL   UNL     1     -39.328  49.734 -54.114  1.00  0.00    -0.084 Cl
HETATM   27  C   UNL     1     -40.544  52.134 -54.323  1.00  0.00     0.025 A 
HETATM   28  C   UNL     1     -40.966  53.370 -53.822  1.00  0.00     0.017 A 
ENDBRANCH  18  22
ENDBRANCH   2  16
TORSDOF 5
ENDMDL
MODEL 4
REMARK VINA RESULT:      -7.8      1.792      2.399
REMARK  5 active torsions:
REMARK  status: ('A' for Active; 'I' for Inactive)
REMARK    1  A    between atoms: C_2  and  N_3 
REMARK    2  A    between atoms: C_2  and  C_14 
REMARK       I    between atoms: N_3  and  C_4 
REMARK       I    between atoms: C_4  and  N_5 
REMARK    3  A    between atoms: N_5  and  C_6 
REMARK    4  A    between atoms: C_6  and  C_7 
REMARK    5  A    between atoms: C_16  and  C_17 
ROOT
HETATM    1  C   UNL     1     -42.418  58.231 -52.899  1.00  0.00     0.041 C 
HETATM    2  C   UNL     1     -42.150  57.787 -54.335  1.00  0.00     0.153 C 
ENDROOT
BRANCH   2   3
HETATM    3  N   UNL     1     -43.367  57.794 -55.122  1.00  0.00    -0.332 N 
HETATM    4  C   UNL     1     -43.373  58.268 -56.403  1.00  0.00     0.317 C 
HETATM    5  N   UNL     1     -44.635  58.338 -56.919  1.00  0.00    -0.339 N 
HETATM    6  O   UNL     1     -42.361  58.597 -57.007  1.00  0.00    -0.247 OA
HETATM    7  H   UNL     1     -45.322  57.717 -56.518  1.00  0.00     0.164 HD
HETATM    8  H   UNL     1     -44.235  57.802 -54.604  1.00  0.00     0.165 HD
BRANCH   5   9
HETATM    9  C   UNL     1     -44.832  58.719 -58.298  1.00  0.00     0.162 C 
BRANCH   9  10
HETATM   10  C   UNL     1     -45.071  57.512 -59.166  1.00  0.00    -0.040 A 
HETATM   11  C   UNL     1     -46.378  57.168 -59.546  1.00  0.00     0.009 A 
HETATM   12  C   UNL     1     -46.611  56.062 -60.363  1.00  0.00     0.001 A 
HETATM   13  C   UNL     1     -45.542  55.287 -60.807  1.00  0.00     0.000 A 
HETATM   14  C   UNL     1     -44.240  55.615 -60.433  1.00  0.00     0.001 A 
HETATM   15  C   UNL     1     -44.004  56.722 -59.614  1.00  0.00     0.009 A 
ENDBRANCH   9  10
ENDBRANCH   5   9
ENDBRANCH   2   3
BRANCH   2  16
HETATM   16  C   UNL     1     -41.601  56.400 -54.365  1.00  0.00     0.145 A 
HETATM   17  N   UNL     1     -41.329  55.598 -53.355  1.00  0.00    -0.210 NA
HETATM   18  C   UNL     1     -40.849  54.455 -53.962  1.00  0.00     0.181 A 
HETATM   19  N   UNL     1     -40.811  54.533 -55.303  1.00  0.00    -0.152 NA
HETATM   20  N   UNL     1     -41.298  55.759 -55.529  1.00  0.00    -0.261 N 
HETATM   21  H   UNL     1     -41.394  56.088 -56.484  1.00  0.00     0.190 HD
BRANCH  18  22
HETATM   22  C   UNL     1     -40.429  53.281 -53.202  1.00  0.00     0.014 A 
HETATM   23  C   UNL     1     -40.437  53.303 -51.799  1.00  0.00     0.017 A 
HETATM   24  C   UNL     1     -40.044  52.179 -51.066  1.00  0.00     0.025 A 
HETATM   25  C   UNL     1     -39.639  51.025 -51.732  1.00  0.00     0.034 A 
HETATM   26 CL   UNL     1     -39.158  49.640 -50.831  1.00  0.00    -0.084 Cl
HETATM   27  C   UNL     1     -39.623  50.984 -53.125  1.00  0.00     0.025 A 
HETATM   28  C   UNL     1     -40.017  52.109 -53.856  1.00  0.00     0.017 A 
ENDBRANCH  18  22
ENDBRANCH   2  16
TORSDOF 5
ENDMDL
MODEL 5
REMARK VINA RESULT:      -7.7      3.389      8.096
REMARK  5 active torsions:
REMARK  status: ('A' for Active; 'I' for Inactive)
REMARK    1  A    between atoms: C_2  and  N_3 
REMARK    2  A    between atoms: C_2  and  C_14 
REMARK       I    between atoms: N_3  and  C_4 
REMARK       I    between atoms: C_4  and  N_5 
REMARK    3  A    between atoms: N_5  and  C_6 
REMARK    4  A    between atoms: C_6  and  C_7 
REMARK    5  A    between atoms: C_16  and  C_17 
ROOT
HETATM    1  C   UNL     1     -42.095  59.490 -55.093  1.00  0.00     0.041 C 
HETATM    2  C   UNL     1     -42.698  58.089 -55.023  1.00  0.00     0.153 C 
ENDROOT
BRANCH   2   3
HETATM    3  N   UNL     1     -41.735  57.128 -54.524  1.00  0.00    -0.332 N 
HETATM    4  C   UNL     1     -42.053  56.280 -53.502  1.00  0.00     0.317 C 
HETATM    5  N   UNL     1     -40.972  55.566 -53.072  1.00  0.00    -0.339 N 
HETATM    6  O   UNL     1     -43.177  56.184 -53.028  1.00  0.00    -0.247 OA
HETATM    7  H   UNL     1     -40.226  55.431 -53.737  1.00  0.00     0.164 HD
HETATM    8  H   UNL     1     -40.761  57.350 -54.676  1.00  0.00     0.165 HD
BRANCH   5   9
HETATM    9  C   UNL     1     -41.137  54.542 -52.065  1.00  0.00     0.162 C 
BRANCH   9  10
HETATM   10  C   UNL     1     -40.613  53.216 -52.549  1.00  0.00    -0.040 A 
HETATM   11  C   UNL     1     -39.954  52.354 -51.657  1.00  0.00     0.009 A 
HETATM   12  C   UNL     1     -39.477  51.116 -52.088  1.00  0.00     0.001 A 
HETATM   13  C   UNL     1     -39.652  50.727 -53.414  1.00  0.00     0.000 A 
HETATM   14  C   UNL     1     -40.299  51.575 -54.311  1.00  0.00     0.001 A 
HETATM   15  C   UNL     1     -40.777  52.816 -53.881  1.00  0.00     0.009 A 
ENDBRANCH   9  10
ENDBRANCH   5   9
ENDBRANCH   2   3
BRANCH   2  16
HETATM   16  C   UNL     1     -43.132  57.633 -56.375  1.00  0.00     0.145 A 
HETATM   17  N   UNL     1     -44.320  57.735 -56.939  1.00  0.00    -0.210 NA
HETATM   18  C   UNL     1     -44.147  57.151 -58.178  1.00  0.00     0.181 A 
HETATM   19  N   UNL     1     -42.903  56.691 -58.387  1.00  0.00    -0.152 NA
HETATM   20  N   UNL     1     -42.284  57.016 -57.245  1.00  0.00    -0.261 N 
HETATM   21  H   UNL     1     -41.302  56.790 -57.130  1.00  0.00     0.190 HD
BRANCH  18  22
HETATM   22  C   UNL     1     -45.228  57.054 -59.156  1.00  0.00     0.014 A 
HETATM   23  C   UNL     1     -45.317  55.943 -60.008  1.00  0.00     0.017 A 
HETATM   24  C   UNL     1     -46.354  55.841 -60.940  1.00  0.00     0.025 A 
HETATM   25  C   UNL     1     -47.308  56.851 -61.028  1.00  0.00     0.034 A 
HETATM   26 CL   UNL     1     -48.586  56.726 -62.173  1.00  0.00    -0.084 Cl
HETATM   27  C   UNL     1     -47.235  57.964 -60.192  1.00  0.00     0.025 A 
HETATM   28  C   UNL     1     -46.198  58.064 -59.259  1.00  0.00     0.017 A 
ENDBRANCH  18  22
ENDBRANCH   2  16
TORSDOF 5
ENDMDL
MODEL 6
REMARK VINA RESULT:      -7.7      3.112      7.570
REMARK  5 active torsions:
REMARK  status: ('A' for Active; 'I' for Inactive)
REMARK    1  A    between atoms: C_2  and  N_3 
REMARK    2  A    between atoms: C_2  and  C_14 
REMARK       I    between atoms: N_3  and  C_4 
REMARK       I    between atoms: C_4  and  N_5 
REMARK    3  A    between atoms: N_5  and  C_6 
REMARK    4  A    between atoms: C_6  and  C_7 
REMARK    5  A    between atoms: C_16  and  C_17 
ROOT
HETATM    1  C   UNL     1     -43.726  57.054 -51.349  1.00  0.00     0.041 C 
HETATM    2  C   UNL     1     -43.531  56.006 -52.443  1.00  0.00     0.153 C 
ENDROOT
BRANCH   2   3
HETATM    3  N   UNL     1     -42.164  55.527 -52.472  1.00  0.00    -0.332 N 
HETATM    4  C   UNL     1     -41.788  54.429 -51.754  1.00  0.00     0.317 C 
HETATM    5  N   UNL     1     -40.438  54.231 -51.785  1.00  0.00    -0.339 N 
HETATM    6  O   UNL     1     -42.577  53.715 -51.148  1.00  0.00    -0.247 OA
HETATM    7  H   UNL     1     -39.944  54.612 -52.578  1.00  0.00     0.164 HD
HETATM    8  H   UNL     1     -41.456  56.208 -52.712  1.00  0.00     0.165 HD
BRANCH   5   9
HETATM    9  C   UNL     1     -39.864  53.059 -51.167  1.00  0.00     0.162 C 
BRANCH   9  10
HETATM   10  C   UNL     1     -39.834  51.898 -52.125  1.00  0.00    -0.040 A 
HETATM   11  C   UNL     1     -40.048  52.114 -53.496  1.00  0.00     0.009 A 
HETATM   12  C   UNL     1     -40.008  51.050 -54.397  1.00  0.00     0.001 A 
HETATM   13  C   UNL     1     -39.756  49.759 -53.938  1.00  0.00     0.000 A 
HETATM   14  C   UNL     1     -39.548  49.530 -52.579  1.00  0.00     0.001 A 
HETATM   15  C   UNL     1     -39.588  50.594 -51.675  1.00  0.00     0.009 A 
ENDBRANCH   9  10
ENDBRANCH   5   9
ENDBRANCH   2   3
BRANCH   2  16
HETATM   16  C   UNL     1     -43.839  56.580 -53.785  1.00  0.00     0.145 A 
HETATM   17  N   UNL     1     -43.009  56.876 -54.765  1.00  0.00    -0.210 NA
HETATM   18  C   UNL     1     -43.834  57.370 -55.756  1.00  0.00     0.181 A 
HETATM   19  N   UNL     1     -45.133  57.393 -55.414  1.00  0.00    -0.152 NA
HETATM   20  N   UNL     1     -45.108  56.881 -54.177  1.00  0.00    -0.261 N 
HETATM   21  H   UNL     1     -45.979  56.769 -53.669  1.00  0.00     0.190 HD
BRANCH  18  22
HETATM   22  C   UNL     1     -43.324  57.819 -57.049  1.00  0.00     0.014 A 
HETATM   23  C   UNL     1     -42.455  58.919 -57.127  1.00  0.00     0.017 A 
HETATM   24  C   UNL     1     -41.958  59.347 -58.362  1.00  0.00     0.025 A 
HETATM   25  C   UNL     1     -42.326  58.680 -59.527  1.00  0.00     0.034 A 
HETATM   26 CL   UNL     1     -41.712  59.205 -61.046  1.00  0.00    -0.084 Cl
HETATM   27  C   UNL     1     -43.189  57.588 -59.470  1.00  0.00     0.025 A 
HETATM   28  C   UNL     1     -43.686  57.159 -58.235  1.00  0.00     0.017 A 
ENDBRANCH  18  22
ENDBRANCH   2  16
TORSDOF 5
ENDMDL
MODEL 7
REMARK VINA RESULT:      -7.7      2.815      7.108
REMARK  5 active torsions:
REMARK  status: ('A' for Active; 'I' for Inactive)
REMARK    1  A    between atoms: C_2  and  N_3 
REMARK    2  A    between atoms: C_2  and  C_14 
REMARK       I    between atoms: N_3  and  C_4 
REMARK       I    between atoms: C_4  and  N_5 
REMARK    3  A    between atoms: N_5  and  C_6 
REMARK    4  A    between atoms: C_6  and  C_7 
REMARK    5  A    between atoms: C_16  and  C_17 
ROOT
HETATM    1  C   UNL     1     -42.168  60.033 -52.862  1.00  0.00     0.041 C 
HETATM    2  C   UNL     1     -42.641  58.639 -53.271  1.00  0.00     0.153 C 
ENDROOT
BRANCH   2   3
HETATM    3  N   UNL     1     -41.759  57.613 -52.752  1.00  0.00    -0.332 N 
HETATM    4  C   UNL     1     -42.257  56.432 -52.281  1.00  0.00     0.317 C 
HETATM    5  N   UNL     1     -41.292  55.666 -51.694  1.00  0.00    -0.339 N 
HETATM    6  O   UNL     1     -43.434  56.110 -52.371  1.00  0.00    -0.247 OA
HETATM    7  H   UNL     1     -40.342  55.825 -51.995  1.00  0.00     0.164 HD
HETATM    8  H   UNL     1     -40.861  57.926 -52.409  1.00  0.00     0.165 HD
BRANCH   5   9
HETATM    9  C   UNL     1     -41.609  54.336 -51.227  1.00  0.00     0.162 C 
BRANCH   9  10
HETATM   10  C   UNL     1     -40.903  53.290 -52.048  1.00  0.00    -0.040 A 
HETATM   11  C   UNL     1     -41.173  53.175 -53.421  1.00  0.00     0.009 A 
HETATM   12  C   UNL     1     -40.515  52.219 -54.196  1.00  0.00     0.001 A 
HETATM   13  C   UNL     1     -39.582  51.368 -53.608  1.00  0.00     0.000 A 
HETATM   14  C   UNL     1     -39.309  51.469 -52.245  1.00  0.00     0.001 A 
HETATM   15  C   UNL     1     -39.968  52.424 -51.467  1.00  0.00     0.009 A 
ENDBRANCH   9  10
ENDBRANCH   5   9
ENDBRANCH   2   3
BRANCH   2  16
HETATM   16  C   UNL     1     -42.665  58.506 -54.757  1.00  0.00     0.145 A 
HETATM   17  N   UNL     1     -43.297  57.615 -55.495  1.00  0.00    -0.210 NA
HETATM   18  C   UNL     1     -42.966  57.965 -56.789  1.00  0.00     0.181 A 
HETATM   19  N   UNL     1     -42.151  59.030 -56.866  1.00  0.00    -0.152 NA
HETATM   20  N   UNL     1     -41.987  59.356 -55.578  1.00  0.00    -0.261 N 
HETATM   21  H   UNL     1     -41.410  60.155 -55.337  1.00  0.00     0.190 HD
BRANCH  18  22
HETATM   22  C   UNL     1     -43.466  57.235 -57.951  1.00  0.00     0.014 A 
HETATM   23  C   UNL     1     -43.170  55.874 -58.116  1.00  0.00     0.017 A 
HETATM   24  C   UNL     1     -43.653  55.169 -59.223  1.00  0.00     0.025 A 
HETATM   25  C   UNL     1     -44.436  55.821 -60.172  1.00  0.00     0.034 A 
HETATM   26 CL   UNL     1     -45.033  54.953 -61.533  1.00  0.00    -0.084 Cl
HETATM   27  C   UNL     1     -44.739  57.173 -60.026  1.00  0.00     0.025 A 
HETATM   28  C   UNL     1     -44.255  57.877 -58.919  1.00  0.00     0.017 A 
ENDBRANCH  18  22
ENDBRANCH   2  16
TORSDOF 5
ENDMDL
MODEL 8
REMARK VINA RESULT:      -7.3      4.399      8.329
REMARK  5 active torsions:
REMARK  status: ('A' for Active; 'I' for Inactive)
REMARK    1  A    between atoms: C_2  and  N_3 
REMARK    2  A    between atoms: C_2  and  C_14 
REMARK       I    between atoms: N_3  and  C_4 
REMARK       I    between atoms: C_4  and  N_5 
REMARK    3  A    between atoms: N_5  and  C_6 
REMARK    4  A    between atoms: C_6  and  C_7 
REMARK    5  A    between atoms: C_16  and  C_17 
ROOT
HETATM    1  C   UNL     1     -44.619  57.740 -53.815  1.00  0.00     0.041 C 
HETATM    2  C   UNL     1     -43.690  57.193 -54.898  1.00  0.00     0.153 C 
ENDROOT
BRANCH   2   3
HETATM    3  N   UNL     1     -42.695  56.303 -54.334  1.00  0.00    -0.332 N 
HETATM    4  C   UNL     1     -42.198  55.256 -55.056  1.00  0.00     0.317 C 
HETATM    5  N   UNL     1     -41.396  54.448 -54.304  1.00  0.00    -0.339 N 
HETATM    6  O   UNL     1     -42.455  55.068 -56.238  1.00  0.00    -0.247 OA
HETATM    7  H   UNL     1     -40.954  54.870 -53.501  1.00  0.00     0.164 HD
HETATM    8  H   UNL     1     -42.665  56.246 -53.325  1.00  0.00     0.165 HD
BRANCH   5   9
HETATM    9  C   UNL     1     -40.697  53.345 -54.923  1.00  0.00     0.162 C 
BRANCH   9  10
HETATM   10  C   UNL     1     -40.292  52.317 -53.900  1.00  0.00    -0.040 A 
HETATM   11  C   UNL     1     -40.093  50.982 -54.288  1.00  0.00     0.009 A 
HETATM   12  C   UNL     1     -39.702  50.022 -53.354  1.00  0.00     0.001 A 
HETATM   13  C   UNL     1     -39.509  50.385 -52.023  1.00  0.00     0.000 A 
HETATM   14  C   UNL     1     -39.709  51.706 -51.624  1.00  0.00     0.001 A 
HETATM   15  C   UNL     1     -40.100  52.668 -52.558  1.00  0.00     0.009 A 
ENDBRANCH   9  10
ENDBRANCH   5   9
ENDBRANCH   2   3
BRANCH   2  16
HETATM   16  C   UNL     1     -42.968  58.303 -55.584  1.00  0.00     0.145 A 
HETATM   17  N   UNL     1     -42.914  58.580 -56.872  1.00  0.00    -0.210 NA
HETATM   18  C   UNL     1     -42.111  59.702 -56.933  1.00  0.00     0.181 A 
HETATM   19  N   UNL     1     -41.668  60.113 -55.734  1.00  0.00    -0.152 NA
HETATM   20  N   UNL     1     -42.230  59.225 -54.905  1.00  0.00    -0.261 N 
HETATM   21  H   UNL     1     -42.069  59.306 -53.906  1.00  0.00     0.190 HD
BRANCH  18  22
HETATM   22  C   UNL     1     -41.787  60.366 -58.194  1.00  0.00     0.014 A 
HETATM   23  C   UNL     1     -40.985  61.517 -58.203  1.00  0.00     0.017 A 
HETATM   24  C   UNL     1     -40.665  62.152 -59.408  1.00  0.00     0.025 A 
HETATM   25  C   UNL     1     -41.145  61.640 -60.610  1.00  0.00     0.034 A 
HETATM   26 CL   UNL     1     -40.749  62.418 -62.092  1.00  0.00    -0.084 Cl
HETATM   27  C   UNL     1     -41.944  60.498 -60.620  1.00  0.00     0.025 A 
HETATM   28  C   UNL     1     -42.263  59.864 -59.415  1.00  0.00     0.017 A 
ENDBRANCH  18  22
ENDBRANCH   2  16
TORSDOF 5
ENDMDL
MODEL 9
REMARK VINA RESULT:      -7.3      4.908      8.734
REMARK  5 active torsions:
REMARK  status: ('A' for Active; 'I' for Inactive)
REMARK    1  A    between atoms: C_2  and  N_3 
REMARK    2  A    between atoms: C_2  and  C_14 
REMARK       I    between atoms: N_3  and  C_4 
REMARK       I    between atoms: C_4  and  N_5 
REMARK    3  A    between atoms: N_5  and  C_6 
REMARK    4  A    between atoms: C_6  and  C_7 
REMARK    5  A    between atoms: C_16  and  C_17 
ROOT
HETATM    1  C   UNL     1     -41.442  59.753 -53.660  1.00  0.00     0.041 C 
HETATM    2  C   UNL     1     -42.283  58.800 -54.507  1.00  0.00     0.153 C 
ENDROOT
BRANCH   2   3
HETATM    3  N   UNL     1     -41.770  57.446 -54.439  1.00  0.00    -0.332 N 
HETATM    4  C   UNL     1     -42.009  56.658 -53.350  1.00  0.00     0.317 C 
HETATM    5  N   UNL     1     -41.316  55.483 -53.404  1.00  0.00    -0.339 N 
HETATM    6  O   UNL     1     -42.752  56.980 -52.433  1.00  0.00    -0.247 OA
HETATM    7  H   UNL     1     -41.054  55.155 -54.321  1.00  0.00     0.164 HD
HETATM    8  H   UNL     1     -40.958  57.246 -55.007  1.00  0.00     0.165 HD
BRANCH   5   9
HETATM    9  C   UNL     1     -41.520  54.476 -52.389  1.00  0.00     0.162 C 
BRANCH   9  10
HETATM   10  C   UNL     1     -40.829  53.189 -52.754  1.00  0.00    -0.040 A 
HETATM   11  C   UNL     1     -40.057  52.511 -51.797  1.00  0.00     0.009 A 
HETATM   12  C   UNL     1     -39.424  51.310 -52.117  1.00  0.00     0.001 A 
HETATM   13  C   UNL     1     -39.554  50.775 -53.397  1.00  0.00     0.000 A 
HETATM   14  C   UNL     1     -40.314  51.440 -54.358  1.00  0.00     0.001 A 
HETATM   15  C   UNL     1     -40.948  52.644 -54.039  1.00  0.00     0.009 A 
ENDBRANCH   9  10
ENDBRANCH   5   9
ENDBRANCH   2   3
BRANCH   2  16
HETATM   16  C   UNL     1     -42.272  59.217 -55.939  1.00  0.00     0.145 A 
HETATM   17  N   UNL     1     -41.569  60.172 -56.516  1.00  0.00    -0.210 NA
HETATM   18  C   UNL     1     -41.955  60.111 -57.840  1.00  0.00     0.181 A 
HETATM   19  N   UNL     1     -42.871  59.161 -58.090  1.00  0.00    -0.152 NA
HETATM   20  N   UNL     1     -43.043  58.608 -56.883  1.00  0.00    -0.261 N 
HETATM   21  H   UNL     1     -43.691  57.835 -56.779  1.00  0.00     0.190 HD
BRANCH  18  22
HETATM   22  C   UNL     1     -41.406  61.003 -58.858  1.00  0.00     0.014 A 
HETATM   23  C   UNL     1     -41.794  60.872 -60.200  1.00  0.00     0.017 A 
HETATM   24  C   UNL     1     -41.278  61.729 -61.177  1.00  0.00     0.025 A 
HETATM   25  C   UNL     1     -40.369  62.721 -60.819  1.00  0.00     0.034 A 
HETATM   26 CL   UNL     1     -39.736  63.777 -62.021  1.00  0.00    -0.084 Cl
HETATM   27  C   UNL     1     -39.970  62.865 -59.492  1.00  0.00     0.025 A 
HETATM   28  C   UNL     1     -40.487  62.008 -58.515  1.00  0.00     0.017 A 
ENDBRANCH  18  22
ENDBRANCH   2  16
TORSDOF 5
ENDMDL
MODEL 10
REMARK VINA RESULT:      -7.3      3.182      4.717
REMARK  5 active torsions:
REMARK  status: ('A' for Active; 'I' for Inactive)
REMARK    1  A    between atoms: C_2  and  N_3 
REMARK    2  A    between atoms: C_2  and  C_14 
REMARK       I    between atoms: N_3  and  C_4 
REMARK       I    between atoms: C_4  and  N_5 
REMARK    3  A    between atoms: N_5  and  C_6 
REMARK    4  A    between atoms: C_6  and  C_7 
REMARK    5  A    between atoms: C_16  and  C_17 
ROOT
HETATM    1  C   UNL     1     -42.923  58.313 -57.105  1.00  0.00     0.041 C 
HETATM    2  C   UNL     1     -43.159  56.865 -57.531  1.00  0.00     0.153 C 
ENDROOT
BRANCH   2   3
HETATM    3  N   UNL     1     -44.534  56.657 -57.941  1.00  0.00    -0.332 N 
HETATM    4  C   UNL     1     -44.848  56.415 -59.247  1.00  0.00     0.317 C 
HETATM    5  N   UNL     1     -46.197  56.403 -59.457  1.00  0.00    -0.339 N 
HETATM    6  O   UNL     1     -44.012  56.238 -60.123  1.00  0.00    -0.247 OA
HETATM    7  H   UNL     1     -46.776  56.181 -58.662  1.00  0.00     0.164 HD
HETATM    8  H   UNL     1     -45.244  57.055 -57.343  1.00  0.00     0.165 HD
BRANCH   5   9
HETATM    9  C   UNL     1     -46.723  56.061 -60.758  1.00  0.00     0.162 C 
BRANCH   9  10
HETATM   10  C   UNL     1     -47.614  57.154 -61.289  1.00  0.00    -0.040 A 
HETATM   11  C   UNL     1     -48.648  56.843 -62.186  1.00  0.00     0.009 A 
HETATM   12  C   UNL     1     -49.490  57.843 -62.673  1.00  0.00     0.001 A 
HETATM   13  C   UNL     1     -49.306  59.164 -62.270  1.00  0.00     0.000 A 
HETATM   14  C   UNL     1     -48.280  59.487 -61.384  1.00  0.00     0.001 A 
HETATM   15  C   UNL     1     -47.435  58.486 -60.896  1.00  0.00     0.009 A 
ENDBRANCH   9  10
ENDBRANCH   5   9
ENDBRANCH   2   3
BRANCH   2  16
HETATM   16  C   UNL     1     -42.877  55.930 -56.404  1.00  0.00     0.145 A 
HETATM   17  N   UNL     1     -42.199  56.154 -55.296  1.00  0.00    -0.210 NA
HETATM   18  C   UNL     1     -42.257  54.949 -54.625  1.00  0.00     0.181 A 
HETATM   19  N   UNL     1     -42.938  53.997 -55.285  1.00  0.00    -0.152 NA
HETATM   20  N   UNL     1     -43.325  54.643 -56.392  1.00  0.00    -0.261 N 
HETATM   21  H   UNL     1     -43.882  54.153 -57.085  1.00  0.00     0.190 HD
BRANCH  18  22
HETATM   22  C   UNL     1     -41.633  54.747 -53.320  1.00  0.00     0.014 A 
HETATM   23  C   UNL     1     -41.662  55.764 -52.354  1.00  0.00     0.017 A 
HETATM   24  C   UNL     1     -41.073  55.572 -51.100  1.00  0.00     0.025 A 
HETATM   25  C   UNL     1     -40.450  54.363 -50.804  1.00  0.00     0.034 A 
HETATM   26 CL   UNL     1     -39.728  54.126 -49.261  1.00  0.00    -0.084 Cl
HETATM   27  C   UNL     1     -40.409  53.342 -51.752  1.00  0.00     0.025 A 
HETATM   28  C   UNL     1     -40.999  53.534 -53.005  1.00  0.00     0.017 A 
ENDBRANCH  18  22
ENDBRANCH   2  16
TORSDOF 5
ENDMDL
