MODEL 1
REMARK VINA RESULT:      -9.1      0.000      0.000
REMARK  8 active torsions:
REMARK  status: ('A' for Active; 'I' for Inactive)
REMARK    1  A    between atoms: C_2  and  O_3 
REMARK    2  A    between atoms: C_2  and  C_14 
REMARK    3  A    between atoms: O_3  and  C_4 
REMARK       I    between atoms: C_14  and  N_15 
REMARK    4  A    between atoms: N_15  and  N_16 
REMARK       I    between atoms: N_16  and  C_17 
REMARK    5  A    between atoms: C_17  and  C_18 
REMARK    6  A    between atoms: C_18  and  C_19 
REMARK    7  A    between atoms: C_19  and  C_20 
REMARK    8  A    between atoms: C_20  and  C_21 
ROOT
HETATM    1  N   UNL     1     -43.041  59.636 -53.341  1.00  0.00    -0.267 N 
HETATM    2  C   UNL     1     -42.447  60.010 -54.536  1.00  0.00     0.236 C 
HETATM    3  O   UNL     1     -41.330  59.640 -54.882  1.00  0.00    -0.272 OA
HETATM    4  H   UNL     1     -44.059  59.663 -53.276  1.00  0.00     0.190 HD
ENDROOT
BRANCH   1   5
HETATM    5  N   UNL     1     -42.452  58.578 -52.624  1.00  0.00    -0.265 N 
HETATM    6  C   UNL     1     -43.038  57.328 -52.761  1.00  0.00     0.265 C 
HETATM    7  O   UNL     1     -44.090  57.170 -53.384  1.00  0.00    -0.269 OA
HETATM    8  H   UNL     1     -41.458  58.671 -52.424  1.00  0.00     0.190 HD
BRANCH   6   9
HETATM    9  C   UNL     1     -42.301  56.209 -52.015  1.00  0.00     0.218 C 
HETATM   10  C   UNL     1     -41.937  56.668 -50.609  1.00  0.00     0.050 C 
BRANCH   9  11
HETATM   11  O   UNL     1     -41.121  55.999 -52.797  1.00  0.00    -0.337 OA
BRANCH  11  12
HETATM   12  C   UNL     1     -40.825  54.748 -53.249  1.00  0.00     0.070 A 
HETATM   13  C   UNL     1     -40.515  53.832 -52.238  1.00  0.00     0.049 A 
HETATM   14  C   UNL     1     -40.196  52.497 -52.533  1.00  0.00    -0.023 A 
HETATM   15  C   UNL     1     -40.206  52.069 -53.877  1.00  0.00    -0.026 A 
HETATM   16  C   UNL     1     -39.870  51.579 -51.520  1.00  0.00     0.012 A 
HETATM   17  C   UNL     1     -40.531  52.992 -54.884  1.00  0.00     0.015 A 
HETATM   18  C   UNL     1     -39.894  50.731 -54.174  1.00  0.00     0.012 A 
HETATM   19  C   UNL     1     -40.837  54.323 -54.574  1.00  0.00     0.037 A 
HETATM   20  C   UNL     1     -39.570  49.832 -53.156  1.00  0.00     0.001 A 
HETATM   21  C   UNL     1     -39.557  50.255 -51.831  1.00  0.00     0.001 A 
ENDBRANCH  11  12
ENDBRANCH   9  11
ENDBRANCH   6   9
ENDBRANCH   1   5
BRANCH   2  22
HETATM   22  C   UNL     1     -43.322  60.966 -55.327  1.00  0.00     0.105 C 
BRANCH  22  23
HETATM   23  C   UNL     1     -43.857  60.381 -56.631  1.00  0.00     0.014 C 
BRANCH  23  24
HETATM   24  C   UNL     1     -44.800  59.197 -56.395  1.00  0.00     0.039 C 
BRANCH  24  25
HETATM   25  C   UNL     1     -44.485  58.056 -57.335  1.00  0.00    -0.056 A 
HETATM   26  C   UNL     1     -45.159  57.960 -58.565  1.00  0.00     0.039 A 
HETATM   27  C   UNL     1     -44.855  56.881 -59.361  1.00  0.00     0.063 A 
HETATM   28  C   UNL     1     -43.927  55.913 -58.983  1.00  0.00     0.063 A 
HETATM   29  N   UNL     1     -45.357  56.527 -60.609  1.00  0.00    -0.306 N 
HETATM   30  N   UNL     1     -43.859  54.964 -59.996  1.00  0.00    -0.307 N 
HETATM   31  C   UNL     1     -43.253  55.973 -57.788  1.00  0.00     0.032 A 
HETATM   32  C   UNL     1     -44.746  55.333 -61.018  1.00  0.00     0.325 A 
HETATM   33  H   UNL     1     -43.286  54.138 -60.023  1.00  0.00     0.170 HD
HETATM   34  O   UNL     1     -44.947  54.732 -62.058  1.00  0.00    -0.247 OA
HETATM   35  C   UNL     1     -43.542  57.063 -56.957  1.00  0.00     0.009 A 
HETATM   36  H   UNL     1     -46.045  57.022 -61.150  1.00  0.00     0.170 HD
ENDBRANCH  24  25
ENDBRANCH  23  24
ENDBRANCH  22  23
ENDBRANCH   2  22
TORSDOF 8
ENDMDL
MODEL 2
REMARK VINA RESULT:      -9.0      1.111      1.711
REMARK  8 active torsions:
REMARK  status: ('A' for Active; 'I' for Inactive)
REMARK    1  A    between atoms: C_2  and  O_3 
REMARK    2  A    between atoms: C_2  and  C_14 
REMARK    3  A    between atoms: O_3  and  C_4 
REMARK       I    between atoms: C_14  and  N_15 
REMARK    4  A    between atoms: N_15  and  N_16 
REMARK       I    between atoms: N_16  and  C_17 
REMARK    5  A    between atoms: C_17  and  C_18 
REMARK    6  A    between atoms: C_18  and  C_19 
REMARK    7  A    between atoms: C_19  and  C_20 
REMARK    8  A    between atoms: C_20  and  C_21 
ROOT
HETATM    1  N   UNL     1     -43.173  58.957 -53.522  1.00  0.00    -0.267 N 
HETATM    2  C   UNL     1     -42.095  59.777 -53.814  1.00  0.00     0.236 C 
HETATM    3  O   UNL     1     -41.039  59.755 -53.190  1.00  0.00    -0.272 OA
HETATM    4  H   UNL     1     -43.847  58.760 -54.263  1.00  0.00     0.190 HD
ENDROOT
BRANCH   1   5
HETATM    5  N   UNL     1     -42.952  57.875 -52.651  1.00  0.00    -0.265 N 
HETATM    6  C   UNL     1     -43.441  56.640 -53.052  1.00  0.00     0.265 C 
HETATM    7  O   UNL     1     -44.136  56.514 -54.061  1.00  0.00    -0.269 OA
HETATM    8  H   UNL     1     -42.132  57.943 -52.051  1.00  0.00     0.190 HD
BRANCH   6   9
HETATM    9  C   UNL     1     -43.099  55.492 -52.094  1.00  0.00     0.218 C 
HETATM   10  C   UNL     1     -43.402  55.901 -50.658  1.00  0.00     0.050 C 
BRANCH   9  11
HETATM   11  O   UNL     1     -41.691  55.306 -52.277  1.00  0.00    -0.337 OA
BRANCH  11  12
HETATM   12  C   UNL     1     -41.142  54.075 -52.074  1.00  0.00     0.070 A 
HETATM   13  C   UNL     1     -40.976  53.322 -53.241  1.00  0.00     0.049 A 
HETATM   14  C   UNL     1     -40.413  52.036 -53.209  1.00  0.00    -0.023 A 
HETATM   15  C   UNL     1     -39.994  51.501 -51.972  1.00  0.00    -0.026 A 
HETATM   16  C   UNL     1     -40.259  51.272 -54.378  1.00  0.00     0.012 A 
HETATM   17  C   UNL     1     -40.153  52.269 -50.807  1.00  0.00     0.015 A 
HETATM   18  C   UNL     1     -39.425  50.217 -51.938  1.00  0.00     0.012 A 
HETATM   19  C   UNL     1     -40.725  53.547 -50.856  1.00  0.00     0.037 A 
HETATM   20  C   UNL     1     -39.280  49.469 -53.109  1.00  0.00     0.001 A 
HETATM   21  C   UNL     1     -39.698  49.996 -54.327  1.00  0.00     0.001 A 
ENDBRANCH  11  12
ENDBRANCH   9  11
ENDBRANCH   6   9
ENDBRANCH   1   5
BRANCH   2  22
HETATM   22  C   UNL     1     -42.401  60.728 -54.957  1.00  0.00     0.105 C 
BRANCH  22  23
HETATM   23  C   UNL     1     -43.132  60.077 -56.128  1.00  0.00     0.014 C 
BRANCH  23  24
HETATM   24  C   UNL     1     -42.171  59.592 -57.217  1.00  0.00     0.039 C 
BRANCH  24  25
HETATM   25  C   UNL     1     -42.647  58.292 -57.823  1.00  0.00    -0.056 A 
HETATM   26  C   UNL     1     -43.227  58.291 -59.104  1.00  0.00     0.039 A 
HETATM   27  C   UNL     1     -43.672  57.084 -59.587  1.00  0.00     0.063 A 
HETATM   28  C   UNL     1     -43.568  55.904 -58.855  1.00  0.00     0.063 A 
HETATM   29  N   UNL     1     -44.282  56.782 -60.800  1.00  0.00    -0.306 N 
HETATM   30  N   UNL     1     -44.113  54.876 -59.616  1.00  0.00    -0.307 N 
HETATM   31  C   UNL     1     -43.011  55.867 -57.600  1.00  0.00     0.032 A 
HETATM   32  C   UNL     1     -44.564  55.409 -60.832  1.00  0.00     0.325 A 
HETATM   33  H   UNL     1     -44.193  53.905 -59.365  1.00  0.00     0.170 HD
HETATM   34  O   UNL     1     -45.097  54.797 -61.740  1.00  0.00    -0.247 OA
HETATM   35  C   UNL     1     -42.547  57.084 -57.083  1.00  0.00     0.009 A 
HETATM   36  H   UNL     1     -44.500  57.419 -61.546  1.00  0.00     0.170 HD
ENDBRANCH  24  25
ENDBRANCH  23  24
ENDBRANCH  22  23
ENDBRANCH   2  22
TORSDOF 8
ENDMDL
MODEL 3
REMARK VINA RESULT:      -8.8      1.903      2.482
REMARK  8 active torsions:
REMARK  status: ('A' for Active; 'I' for Inactive)
REMARK    1  A    between atoms: C_2  and  O_3 
REMARK    2  A    between atoms: C_2  and  C_14 
REMARK    3  A    between atoms: O_3  and  C_4 
REMARK       I    between atoms: C_14  and  N_15 
REMARK    4  A    between atoms: N_15  and  N_16 
REMARK       I    between atoms: N_16  and  C_17 
REMARK    5  A    between atoms: C_17  and  C_18 
REMARK    6  A    between atoms: C_18  and  C_19 
REMARK    7  A    between atoms: C_19  and  C_20 
REMARK    8  A    between atoms: C_20  and  C_21 
ROOT
HETATM    1  N   UNL     1     -44.604  58.023 -51.037  1.00  0.00    -0.267 N 
HETATM    2  C   UNL     1     -44.383  59.363 -51.316  1.00  0.00     0.236 C 
HETATM    3  O   UNL     1     -43.354  59.957 -51.009  1.00  0.00    -0.272 OA
HETATM    4  H   UNL     1     -45.276  57.513 -51.612  1.00  0.00     0.190 HD
ENDROOT
BRANCH   1   5
HETATM    5  N   UNL     1     -43.502  57.252 -50.628  1.00  0.00    -0.265 N 
HETATM    6  C   UNL     1     -43.084  56.251 -51.494  1.00  0.00     0.265 C 
HETATM    7  O   UNL     1     -43.715  55.972 -52.515  1.00  0.00    -0.269 OA
HETATM    8  H   UNL     1     -42.843  57.708 -50.000  1.00  0.00     0.190 HD
BRANCH   6   9
HETATM    9  C   UNL     1     -41.832  55.501 -51.023  1.00  0.00     0.218 C 
HETATM   10  C   UNL     1     -41.157  56.267 -49.893  1.00  0.00     0.050 C 
BRANCH   9  11
HETATM   11  O   UNL     1     -40.995  55.474 -52.183  1.00  0.00    -0.337 OA
BRANCH  11  12
HETATM   12  C   UNL     1     -40.707  54.283 -52.780  1.00  0.00     0.070 A 
HETATM   13  C   UNL     1     -40.362  53.263 -51.887  1.00  0.00     0.049 A 
HETATM   14  C   UNL     1     -40.047  51.971 -52.337  1.00  0.00    -0.023 A 
HETATM   15  C   UNL     1     -40.096  51.695 -53.720  1.00  0.00    -0.026 A 
HETATM   16  C   UNL     1     -39.685  50.950 -51.443  1.00  0.00     0.012 A 
HETATM   17  C   UNL     1     -40.456  52.722 -54.608  1.00  0.00     0.015 A 
HETATM   18  C   UNL     1     -39.787  50.401 -54.172  1.00  0.00     0.012 A 
HETATM   19  C   UNL     1     -40.758  54.007 -54.143  1.00  0.00     0.037 A 
HETATM   20  C   UNL     1     -39.428  49.396 -53.271  1.00  0.00     0.001 A 
HETATM   21  C   UNL     1     -39.376  49.671 -51.908  1.00  0.00     0.001 A 
ENDBRANCH  11  12
ENDBRANCH   9  11
ENDBRANCH   6   9
ENDBRANCH   1   5
BRANCH   2  22
HETATM   22  C   UNL     1     -45.580  60.005 -51.993  1.00  0.00     0.105 C 
BRANCH  22  23
HETATM   23  C   UNL     1     -45.466  60.080 -53.513  1.00  0.00     0.014 C 
BRANCH  23  24
HETATM   24  C   UNL     1     -44.023  60.295 -53.979  1.00  0.00     0.039 C 
BRANCH  24  25
HETATM   25  C   UNL     1     -43.544  59.134 -54.820  1.00  0.00    -0.056 A 
HETATM   26  C   UNL     1     -44.316  58.699 -55.912  1.00  0.00     0.039 A 
HETATM   27  C   UNL     1     -43.846  57.617 -56.618  1.00  0.00     0.063 A 
HETATM   28  C   UNL     1     -42.663  56.964 -56.280  1.00  0.00     0.063 A 
HETATM   29  N   UNL     1     -44.389  56.974 -57.725  1.00  0.00    -0.306 N 
HETATM   30  N   UNL     1     -42.479  55.918 -57.178  1.00  0.00    -0.307 N 
HETATM   31  C   UNL     1     -41.886  57.358 -55.219  1.00  0.00     0.032 A 
HETATM   32  C   UNL     1     -43.549  55.911 -58.085  1.00  0.00     0.325 A 
HETATM   33  H   UNL     1     -41.722  55.256 -57.199  1.00  0.00     0.170 HD
HETATM   34  O   UNL     1     -43.715  55.131 -59.006  1.00  0.00    -0.247 OA
HETATM   35  C   UNL     1     -42.340  58.460 -54.482  1.00  0.00     0.009 A 
HETATM   36  H   UNL     1     -45.241  57.205 -58.205  1.00  0.00     0.170 HD
ENDBRANCH  24  25
ENDBRANCH  23  24
ENDBRANCH  22  23
ENDBRANCH   2  22
TORSDOF 8
ENDMDL
MODEL 4
REMARK VINA RESULT:      -8.7      4.868      8.287
REMARK  8 active torsions:
REMARK  status: ('A' for Active; 'I' for Inactive)
REMARK    1  A    between atoms: C_2  and  O_3 
REMARK    2  A    between atoms: C_2  and  C_14 
REMARK    3  A    between atoms: O_3  and  C_4 
REMARK       I    between atoms: C_14  and  N_15 
REMARK    4  A    between atoms: N_15  and  N_16 
REMARK       I    between atoms: N_16  and  C_17 
REMARK    5  A    between atoms: C_17  and  C_18 
REMARK    6  A    between atoms: C_18  and  C_19 
REMARK    7  A    between atoms: C_19  and  C_20 
REMARK    8  A    between atoms: C_20  and  C_21 
ROOT
HETATM    1  N   UNL     1     -42.183  59.496 -51.136  1.00  0.00    -0.267 N 
HETATM    2  C   UNL     1     -43.313  60.284 -50.982  1.00  0.00     0.236 C 
HETATM    3  O   UNL     1     -44.455  59.836 -50.981  1.00  0.00    -0.272 OA
HETATM    4  H   UNL     1     -41.295  59.846 -50.774  1.00  0.00     0.190 HD
ENDROOT
BRANCH   1   5
HETATM    5  N   UNL     1     -42.338  58.103 -51.016  1.00  0.00    -0.265 N 
HETATM    6  C   UNL     1     -42.290  57.366 -52.191  1.00  0.00     0.265 C 
HETATM    7  O   UNL     1     -42.230  57.910 -53.295  1.00  0.00    -0.269 OA
HETATM    8  H   UNL     1     -42.050  57.695 -50.130  1.00  0.00     0.190 HD
BRANCH   6   9
HETATM    9  C   UNL     1     -42.389  55.851 -51.981  1.00  0.00     0.218 C 
HETATM   10  C   UNL     1     -43.369  55.541 -50.856  1.00  0.00     0.050 C 
BRANCH   9  11
HETATM   11  O   UNL     1     -41.060  55.471 -51.608  1.00  0.00    -0.337 OA
BRANCH  11  12
HETATM   12  C   UNL     1     -40.715  54.153 -51.589  1.00  0.00     0.070 A 
HETATM   13  C   UNL     1     -40.614  53.568 -52.857  1.00  0.00     0.049 A 
HETATM   14  C   UNL     1     -40.258  52.220 -53.015  1.00  0.00    -0.023 A 
HETATM   15  C   UNL     1     -39.981  51.444 -51.869  1.00  0.00    -0.026 A 
HETATM   16  C   UNL     1     -40.170  51.627 -54.285  1.00  0.00     0.012 A 
HETATM   17  C   UNL     1     -40.072  52.043 -50.601  1.00  0.00     0.015 A 
HETATM   18  C   UNL     1     -39.617  50.096 -52.024  1.00  0.00     0.012 A 
HETATM   19  C   UNL     1     -40.438  53.387 -50.462  1.00  0.00     0.037 A 
HETATM   20  C   UNL     1     -39.535  49.521 -53.295  1.00  0.00     0.001 A 
HETATM   21  C   UNL     1     -39.813  50.285 -54.424  1.00  0.00     0.001 A 
ENDBRANCH  11  12
ENDBRANCH   9  11
ENDBRANCH   6   9
ENDBRANCH   1   5
BRANCH   2  22
HETATM   22  C   UNL     1     -42.965  61.757 -50.869  1.00  0.00     0.105 C 
BRANCH  22  23
HETATM   23  C   UNL     1     -44.165  62.658 -50.592  1.00  0.00     0.014 C 
BRANCH  23  24
HETATM   24  C   UNL     1     -44.087  63.325 -49.216  1.00  0.00     0.039 C 
BRANCH  24  25
HETATM   25  C   UNL     1     -45.072  62.702 -48.253  1.00  0.00    -0.056 A 
HETATM   26  C   UNL     1     -44.897  61.369 -47.842  1.00  0.00     0.039 A 
HETATM   27  C   UNL     1     -45.844  60.848 -46.993  1.00  0.00     0.063 A 
HETATM   28  C   UNL     1     -46.937  61.589 -46.552  1.00  0.00     0.063 A 
HETATM   29  N   UNL     1     -45.933  59.578 -46.433  1.00  0.00    -0.306 N 
HETATM   30  N   UNL     1     -47.700  60.776 -45.721  1.00  0.00    -0.307 N 
HETATM   31  C   UNL     1     -47.142  62.892 -46.935  1.00  0.00     0.032 A 
HETATM   32  C   UNL     1     -47.086  59.517 -45.638  1.00  0.00     0.325 A 
HETATM   33  H   UNL     1     -48.555  61.015 -45.248  1.00  0.00     0.170 HD
HETATM   34  O   UNL     1     -47.480  58.558 -44.999  1.00  0.00    -0.247 OA
HETATM   35  C   UNL     1     -46.191  63.449 -47.799  1.00  0.00     0.009 A 
HETATM   36  H   UNL     1     -45.296  58.811 -46.561  1.00  0.00     0.170 HD
ENDBRANCH  24  25
ENDBRANCH  23  24
ENDBRANCH  22  23
ENDBRANCH   2  22
TORSDOF 8
ENDMDL
MODEL 5
REMARK VINA RESULT:      -8.7      1.409      1.672
REMARK  8 active torsions:
REMARK  status: ('A' for Active; 'I' for Inactive)
REMARK    1  A    between atoms: C_2  and  O_3 
REMARK    2  A    between atoms: C_2  and  C_14 
REMARK    3  A    between atoms: O_3  and  C_4 
REMARK       I    between atoms: C_14  and  N_15 
REMARK    4  A    between atoms: N_15  and  N_16 
REMARK       I    between atoms: N_16  and  C_17 
REMARK    5  A    between atoms: C_17  and  C_18 
REMARK    6  A    between atoms: C_18  and  C_19 
REMARK    7  A    between atoms: C_19  and  C_20 
REMARK    8  A    between atoms: C_20  and  C_21 
ROOT
HETATM    1  N   UNL     1     -42.611  58.663 -51.790  1.00  0.00    -0.267 N 
HETATM    2  C   UNL     1     -41.931  59.537 -52.623  1.00  0.00     0.236 C 
HETATM    3  O   UNL     1     -40.714  59.514 -52.779  1.00  0.00    -0.272 OA
HETATM    4  H   UNL     1     -43.599  58.489 -51.974  1.00  0.00     0.190 HD
ENDROOT
BRANCH   1   5
HETATM    5  N   UNL     1     -41.913  57.538 -51.315  1.00  0.00    -0.265 N 
HETATM    6  C   UNL     1     -42.671  56.420 -50.998  1.00  0.00     0.265 C 
HETATM    7  O   UNL     1     -43.902  56.445 -51.018  1.00  0.00    -0.269 OA
HETATM    8  H   UNL     1     -40.948  57.445 -51.627  1.00  0.00     0.190 HD
BRANCH   6   9
HETATM    9  C   UNL     1     -41.840  55.207 -50.561  1.00  0.00     0.218 C 
HETATM   10  C   UNL     1     -41.363  55.389 -49.126  1.00  0.00     0.050 C 
BRANCH   9  11
HETATM   11  O   UNL     1     -40.730  55.212 -51.464  1.00  0.00    -0.337 OA
BRANCH  11  12
HETATM   12  C   UNL     1     -40.547  54.162 -52.313  1.00  0.00     0.070 A 
HETATM   13  C   UNL     1     -40.192  52.966 -51.679  1.00  0.00     0.049 A 
HETATM   14  C   UNL     1     -39.977  51.786 -52.407  1.00  0.00    -0.023 A 
HETATM   15  C   UNL     1     -40.137  51.806 -53.809  1.00  0.00    -0.026 A 
HETATM   16  C   UNL     1     -39.607  50.589 -51.773  1.00  0.00     0.012 A 
HETATM   17  C   UNL     1     -40.506  53.007 -54.437  1.00  0.00     0.015 A 
HETATM   18  C   UNL     1     -39.929  50.624 -54.540  1.00  0.00     0.012 A 
HETATM   19  C   UNL     1     -40.708  54.178 -53.695  1.00  0.00     0.037 A 
HETATM   20  C   UNL     1     -39.560  49.442 -53.895  1.00  0.00     0.001 A 
HETATM   21  C   UNL     1     -39.397  49.424 -52.513  1.00  0.00     0.001 A 
ENDBRANCH  11  12
ENDBRANCH   9  11
ENDBRANCH   6   9
ENDBRANCH   1   5
BRANCH   2  22
HETATM   22  C   UNL     1     -42.863  60.545 -53.268  1.00  0.00     0.105 C 
BRANCH  22  23
HETATM   23  C   UNL     1     -42.823  60.540 -54.794  1.00  0.00     0.014 C 
BRANCH  23  24
HETATM   24  C   UNL     1     -44.056  59.870 -55.407  1.00  0.00     0.039 C 
BRANCH  24  25
HETATM   25  C   UNL     1     -43.689  59.082 -56.644  1.00  0.00    -0.056 A 
HETATM   26  C   UNL     1     -44.610  58.171 -57.188  1.00  0.00     0.039 A 
HETATM   27  C   UNL     1     -44.206  57.459 -58.292  1.00  0.00     0.063 A 
HETATM   28  C   UNL     1     -42.943  57.615 -58.858  1.00  0.00     0.063 A 
HETATM   29  N   UNL     1     -44.890  56.500 -59.031  1.00  0.00    -0.306 N 
HETATM   30  N   UNL     1     -42.849  56.753 -59.945  1.00  0.00    -0.307 N 
HETATM   31  C   UNL     1     -42.017  58.494 -58.352  1.00  0.00     0.032 A 
HETATM   32  C   UNL     1     -44.057  56.049 -60.065  1.00  0.00     0.325 A 
HETATM   33  H   UNL     1     -42.063  56.625 -60.558  1.00  0.00     0.170 HD
HETATM   34  O   UNL     1     -44.327  55.208 -60.904  1.00  0.00    -0.247 OA
HETATM   35  C   UNL     1     -42.403  59.234 -57.227  1.00  0.00     0.009 A 
HETATM   36  H   UNL     1     -45.824  56.162 -58.874  1.00  0.00     0.170 HD
ENDBRANCH  24  25
ENDBRANCH  23  24
ENDBRANCH  22  23
ENDBRANCH   2  22
TORSDOF 8
ENDMDL
MODEL 6
REMARK VINA RESULT:      -8.6      2.927      5.313
REMARK  8 active torsions:
REMARK  status: ('A' for Active; 'I' for Inactive)
REMARK    1  A    between atoms: C_2  and  O_3 
REMARK    2  A    between atoms: C_2  and  C_14 
REMARK    3  A    between atoms: O_3  and  C_4 
REMARK       I    between atoms: C_14  and  N_15 
REMARK    4  A    between atoms: N_15  and  N_16 
REMARK       I    between atoms: N_16  and  C_17 
REMARK    5  A    between atoms: C_17  and  C_18 
REMARK    6  A    between atoms: C_18  and  C_19 
REMARK    7  A    between atoms: C_19  and  C_20 
REMARK    8  A    between atoms: C_20  and  C_21 
ROOT
HETATM    1  N   UNL     1     -42.947  58.737 -54.948  1.00  0.00    -0.267 N 
HETATM    2  C   UNL     1     -42.593  59.979 -55.454  1.00  0.00     0.236 C 
HETATM    3  O   UNL     1     -41.655  60.153 -56.225  1.00  0.00    -0.272 OA
HETATM    4  H   UNL     1     -43.907  58.600 -54.630  1.00  0.00     0.190 HD
ENDROOT
BRANCH   1   5
HETATM    5  N   UNL     1     -42.378  57.602 -55.552  1.00  0.00    -0.265 N 
HETATM    6  C   UNL     1     -42.830  56.367 -55.109  1.00  0.00     0.265 C 
HETATM    7  O   UNL     1     -43.603  56.263 -54.156  1.00  0.00    -0.269 OA
HETATM    8  H   UNL     1     -42.036  57.724 -56.503  1.00  0.00     0.190 HD
BRANCH   6   9
HETATM    9  C   UNL     1     -42.225  55.175 -55.862  1.00  0.00     0.218 C 
HETATM   10  C   UNL     1     -43.029  53.913 -55.577  1.00  0.00     0.050 C 
BRANCH   9  11
HETATM   11  O   UNL     1     -40.906  55.064 -55.317  1.00  0.00    -0.337 OA
BRANCH  11  12
HETATM   12  C   UNL     1     -40.681  54.238 -54.256  1.00  0.00     0.070 A 
HETATM   13  C   UNL     1     -40.361  52.923 -54.611  1.00  0.00     0.049 A 
HETATM   14  C   UNL     1     -40.090  51.948 -53.639  1.00  0.00    -0.023 A 
HETATM   15  C   UNL     1     -40.126  52.309 -52.275  1.00  0.00    -0.026 A 
HETATM   16  C   UNL     1     -39.783  50.623 -53.992  1.00  0.00     0.012 A 
HETATM   17  C   UNL     1     -40.436  53.635 -51.929  1.00  0.00     0.015 A 
HETATM   18  C   UNL     1     -39.849  51.337 -51.300  1.00  0.00     0.012 A 
HETATM   19  C   UNL     1     -40.713  54.593 -52.912  1.00  0.00     0.037 A 
HETATM   20  C   UNL     1     -39.547  50.024 -51.667  1.00  0.00     0.001 A 
HETATM   21  C   UNL     1     -39.516  49.667 -53.012  1.00  0.00     0.001 A 
ENDBRANCH  11  12
ENDBRANCH   9  11
ENDBRANCH   6   9
ENDBRANCH   1   5
BRANCH   2  22
HETATM   22  C   UNL     1     -43.470  61.087 -54.899  1.00  0.00     0.105 C 
BRANCH  22  23
HETATM   23  C   UNL     1     -42.883  61.790 -53.678  1.00  0.00     0.014 C 
BRANCH  23  24
HETATM   24  C   UNL     1     -43.642  61.453 -52.391  1.00  0.00     0.039 C 
BRANCH  24  25
HETATM   25  C   UNL     1     -43.286  60.069 -51.897  1.00  0.00    -0.056 A 
HETATM   26  C   UNL     1     -44.277  59.074 -51.838  1.00  0.00     0.039 A 
HETATM   27  C   UNL     1     -43.902  57.846 -51.347  1.00  0.00     0.063 A 
HETATM   28  C   UNL     1     -42.603  57.581 -50.917  1.00  0.00     0.063 A 
HETATM   29  N   UNL     1     -44.655  56.691 -51.171  1.00  0.00    -0.306 N 
HETATM   30  N   UNL     1     -42.557  56.264 -50.476  1.00  0.00    -0.307 N 
HETATM   31  C   UNL     1     -41.611  58.529 -50.958  1.00  0.00     0.032 A 
HETATM   32  C   UNL     1     -43.831  55.695 -50.627  1.00  0.00     0.325 A 
HETATM   33  H   UNL     1     -41.764  55.771 -50.102  1.00  0.00     0.170 HD
HETATM   34  O   UNL     1     -44.156  54.556 -50.341  1.00  0.00    -0.247 OA
HETATM   35  C   UNL     1     -41.966  59.790 -51.455  1.00  0.00     0.009 A 
HETATM   36  H   UNL     1     -45.629  56.561 -51.384  1.00  0.00     0.170 HD
ENDBRANCH  24  25
ENDBRANCH  23  24
ENDBRANCH  22  23
ENDBRANCH   2  22
TORSDOF 8
ENDMDL
MODEL 7
REMARK VINA RESULT:      -8.6      1.695      2.403
REMARK  8 active torsions:
REMARK  status: ('A' for Active; 'I' for Inactive)
REMARK    1  A    between atoms: C_2  and  O_3 
REMARK    2  A    between atoms: C_2  and  C_14 
REMARK    3  A    between atoms: O_3  and  C_4 
REMARK       I    between atoms: C_14  and  N_15 
REMARK    4  A    between atoms: N_15  and  N_16 
REMARK       I    between atoms: N_16  and  C_17 
REMARK    5  A    between atoms: C_17  and  C_18 
REMARK    6  A    between atoms: C_18  and  C_19 
REMARK    7  A    between atoms: C_19  and  C_20 
REMARK    8  A    between atoms: C_20  and  C_21 
ROOT
HETATM    1  N   UNL     1     -42.123  58.930 -55.978  1.00  0.00    -0.267 N 
HETATM    2  C   UNL     1     -42.652  60.206 -55.860  1.00  0.00     0.236 C 
HETATM    3  O   UNL     1     -43.369  60.558 -54.928  1.00  0.00    -0.272 OA
HETATM    4  H   UNL     1     -41.279  58.806 -56.537  1.00  0.00     0.190 HD
ENDROOT
BRANCH   1   5
HETATM    5  N   UNL     1     -42.190  58.090 -54.852  1.00  0.00    -0.265 N 
HETATM    6  C   UNL     1     -42.726  56.826 -55.046  1.00  0.00     0.265 C 
HETATM    7  O   UNL     1     -43.227  56.492 -56.122  1.00  0.00    -0.269 OA
HETATM    8  H   UNL     1     -41.496  58.258 -54.125  1.00  0.00     0.190 HD
BRANCH   6   9
HETATM    9  C   UNL     1     -42.698  55.937 -53.797  1.00  0.00     0.218 C 
HETATM   10  C   UNL     1     -43.317  56.675 -52.616  1.00  0.00     0.050 C 
BRANCH   9  11
HETATM   11  O   UNL     1     -41.303  55.710 -53.573  1.00  0.00    -0.337 OA
BRANCH  11  12
HETATM   12  C   UNL     1     -40.892  54.538 -53.011  1.00  0.00     0.070 A 
HETATM   13  C   UNL     1     -40.759  53.483 -53.920  1.00  0.00     0.049 A 
HETATM   14  C   UNL     1     -40.334  52.210 -53.507  1.00  0.00    -0.023 A 
HETATM   15  C   UNL     1     -40.021  51.998 -52.148  1.00  0.00    -0.026 A 
HETATM   16  C   UNL     1     -40.214  51.145 -54.416  1.00  0.00     0.012 A 
HETATM   17  C   UNL     1     -40.146  53.067 -51.245  1.00  0.00     0.015 A 
HETATM   18  C   UNL     1     -39.590  50.727 -51.733  1.00  0.00     0.012 A 
HETATM   19  C   UNL     1     -40.580  54.327 -51.672  1.00  0.00     0.037 A 
HETATM   20  C   UNL     1     -39.476  49.678 -52.649  1.00  0.00     0.001 A 
HETATM   21  C   UNL     1     -39.790  49.887 -53.988  1.00  0.00     0.001 A 
ENDBRANCH  11  12
ENDBRANCH   9  11
ENDBRANCH   6   9
ENDBRANCH   1   5
BRANCH   2  22
HETATM   22  C   UNL     1     -42.280  61.084 -57.040  1.00  0.00     0.105 C 
BRANCH  22  23
HETATM   23  C   UNL     1     -41.474  60.366 -58.119  1.00  0.00     0.014 C 
BRANCH  23  24
HETATM   24  C   UNL     1     -42.234  60.267 -59.444  1.00  0.00     0.039 C 
BRANCH  24  25
HETATM   25  C   UNL     1     -43.203  59.106 -59.431  1.00  0.00    -0.056 A 
HETATM   26  C   UNL     1     -42.718  57.792 -59.552  1.00  0.00     0.039 A 
HETATM   27  C   UNL     1     -43.650  56.782 -59.568  1.00  0.00     0.063 A 
HETATM   28  C   UNL     1     -45.018  57.028 -59.473  1.00  0.00     0.063 A 
HETATM   29  N   UNL     1     -43.470  55.407 -59.679  1.00  0.00    -0.306 N 
HETATM   30  N   UNL     1     -45.679  55.806 -59.527  1.00  0.00    -0.307 N 
HETATM   31  C   UNL     1     -45.527  58.298 -59.357  1.00  0.00     0.032 A 
HETATM   32  C   UNL     1     -44.726  54.785 -59.657  1.00  0.00     0.325 A 
HETATM   33  H   UNL     1     -46.671  55.645 -59.488  1.00  0.00     0.170 HD
HETATM   34  O   UNL     1     -44.948  53.590 -59.735  1.00  0.00    -0.247 OA
HETATM   35  C   UNL     1     -44.600  59.348 -59.337  1.00  0.00     0.009 A 
HETATM   36  H   UNL     1     -42.599  54.913 -59.766  1.00  0.00     0.170 HD
ENDBRANCH  24  25
ENDBRANCH  23  24
ENDBRANCH  22  23
ENDBRANCH   2  22
TORSDOF 8
ENDMDL
MODEL 8
REMARK VINA RESULT:      -8.5      6.412     10.335
REMARK  8 active torsions:
REMARK  status: ('A' for Active; 'I' for Inactive)
REMARK    1  A    between atoms: C_2  and  O_3 
REMARK    2  A    between atoms: C_2  and  C_14 
REMARK    3  A    between atoms: O_3  and  C_4 
REMARK       I    between atoms: C_14  and  N_15 
REMARK    4  A    between atoms: N_15  and  N_16 
REMARK       I    between atoms: N_16  and  C_17 
REMARK    5  A    between atoms: C_17  and  C_18 
REMARK    6  A    between atoms: C_18  and  C_19 
REMARK    7  A    between atoms: C_19  and  C_20 
REMARK    8  A    between atoms: C_20  and  C_21 
ROOT
HETATM    1  N   UNL     1     -44.058  59.357 -50.362  1.00  0.00    -0.267 N 
HETATM    2  C   UNL     1     -44.120  60.691 -49.988  1.00  0.00     0.236 C 
HETATM    3  O   UNL     1     -43.137  61.422 -49.921  1.00  0.00    -0.272 OA
HETATM    4  H   UNL     1     -44.898  58.921 -50.744  1.00  0.00     0.190 HD
ENDROOT
BRANCH   1   5
HETATM    5  N   UNL     1     -42.863  58.900 -50.946  1.00  0.00    -0.265 N 
HETATM    6  C   UNL     1     -42.800  57.551 -51.264  1.00  0.00     0.265 C 
HETATM    7  O   UNL     1     -43.696  56.767 -50.947  1.00  0.00    -0.269 OA
HETATM    8  H   UNL     1     -42.330  59.588 -51.474  1.00  0.00     0.190 HD
BRANCH   6   9
HETATM    9  C   UNL     1     -41.500  57.136 -51.966  1.00  0.00     0.218 C 
HETATM   10  C   UNL     1     -41.041  58.238 -52.911  1.00  0.00     0.050 C 
BRANCH   9  11
HETATM   11  O   UNL     1     -41.870  55.965 -52.700  1.00  0.00    -0.337 OA
BRANCH  11  12
HETATM   12  C   UNL     1     -41.279  54.771 -52.409  1.00  0.00     0.070 A 
HETATM   13  C   UNL     1     -41.234  53.877 -53.484  1.00  0.00     0.049 A 
HETATM   14  C   UNL     1     -40.649  52.607 -53.356  1.00  0.00    -0.023 A 
HETATM   15  C   UNL     1     -40.081  52.235 -52.119  1.00  0.00    -0.026 A 
HETATM   16  C   UNL     1     -40.616  51.702 -54.430  1.00  0.00     0.012 A 
HETATM   17  C   UNL     1     -40.119  53.144 -51.049  1.00  0.00     0.015 A 
HETATM   18  C   UNL     1     -39.488  50.967 -51.990  1.00  0.00     0.012 A 
HETATM   19  C   UNL     1     -40.715  54.403 -51.192  1.00  0.00     0.037 A 
HETATM   20  C   UNL     1     -39.465  50.078 -53.067  1.00  0.00     0.001 A 
HETATM   21  C   UNL     1     -40.029  50.444 -54.285  1.00  0.00     0.001 A 
ENDBRANCH  11  12
ENDBRANCH   9  11
ENDBRANCH   6   9
ENDBRANCH   1   5
BRANCH   2  22
HETATM   22  C   UNL     1     -45.533  61.111 -49.626  1.00  0.00     0.105 C 
BRANCH  22  23
HETATM   23  C   UNL     1     -45.617  62.010 -48.395  1.00  0.00     0.014 C 
BRANCH  23  24
HETATM   24  C   UNL     1     -45.363  61.242 -47.095  1.00  0.00     0.039 C 
BRANCH  24  25
HETATM   25  C   UNL     1     -45.145  62.189 -45.937  1.00  0.00    -0.056 A 
HETATM   26  C   UNL     1     -44.457  61.747 -44.794  1.00  0.00     0.039 A 
HETATM   27  C   UNL     1     -44.321  62.643 -43.761  1.00  0.00     0.063 A 
HETATM   28  C   UNL     1     -44.838  63.935 -43.822  1.00  0.00     0.063 A 
HETATM   29  N   UNL     1     -43.702  62.488 -42.525  1.00  0.00    -0.306 N 
HETATM   30  N   UNL     1     -44.539  64.574 -42.625  1.00  0.00    -0.307 N 
HETATM   31  C   UNL     1     -45.518  64.400 -44.921  1.00  0.00     0.032 A 
HETATM   32  C   UNL     1     -43.831  63.684 -41.804  1.00  0.00     0.325 A 
HETATM   33  H   UNL     1     -44.779  65.513 -42.356  1.00  0.00     0.170 HD
HETATM   34  O   UNL     1     -43.411  63.907 -40.683  1.00  0.00    -0.247 OA
HETATM   35  C   UNL     1     -45.671  63.508 -45.990  1.00  0.00     0.009 A 
HETATM   36  H   UNL     1     -43.237  61.668 -42.176  1.00  0.00     0.170 HD
ENDBRANCH  24  25
ENDBRANCH  23  24
ENDBRANCH  22  23
ENDBRANCH   2  22
TORSDOF 8
ENDMDL
MODEL 9
REMARK VINA RESULT:      -8.5      6.198     10.094
REMARK  8 active torsions:
REMARK  status: ('A' for Active; 'I' for Inactive)
REMARK    1  A    between atoms: C_2  and  O_3 
REMARK    2  A    between atoms: C_2  and  C_14 
REMARK    3  A    between atoms: O_3  and  C_4 
REMARK       I    between atoms: C_14  and  N_15 
REMARK    4  A    between atoms: N_15  and  N_16 
REMARK       I    between atoms: N_16  and  C_17 
REMARK    5  A    between atoms: C_17  and  C_18 
REMARK    6  A    between atoms: C_18  and  C_19 
REMARK    7  A    between atoms: C_19  and  C_20 
REMARK    8  A    between atoms: C_20  and  C_21 
ROOT
HETATM    1  N   UNL     1     -43.116  58.988 -50.697  1.00  0.00    -0.267 N 
HETATM    2  C   UNL     1     -41.731  59.035 -50.741  1.00  0.00     0.236 C 
HETATM    3  O   UNL     1     -41.083  60.064 -50.579  1.00  0.00    -0.272 OA
HETATM    4  H   UNL     1     -43.564  58.099 -50.475  1.00  0.00     0.190 HD
ENDROOT
BRANCH   1   5
HETATM    5  N   UNL     1     -43.789  60.110 -50.183  1.00  0.00    -0.265 N 
HETATM    6  C   UNL     1     -45.131  59.943 -49.868  1.00  0.00     0.265 C 
HETATM    7  O   UNL     1     -45.734  58.902 -50.133  1.00  0.00    -0.269 OA
HETATM    8  H   UNL     1     -43.216  60.788 -49.686  1.00  0.00     0.190 HD
BRANCH   6   9
HETATM    9  C   UNL     1     -45.783  61.182 -49.241  1.00  0.00     0.218 C 
HETATM   10  C   UNL     1     -44.818  62.360 -49.285  1.00  0.00     0.050 C 
BRANCH   9  11
HETATM   11  O   UNL     1     -46.033  60.787 -47.889  1.00  0.00    -0.337 OA
BRANCH  11  12
HETATM   12  C   UNL     1     -45.896  61.697 -46.883  1.00  0.00     0.070 A 
HETATM   13  C   UNL     1     -44.931  61.356 -45.930  1.00  0.00     0.049 A 
HETATM   14  C   UNL     1     -44.657  62.191 -44.835  1.00  0.00    -0.023 A 
HETATM   15  C   UNL     1     -45.362  63.406 -44.705  1.00  0.00    -0.026 A 
HETATM   16  C   UNL     1     -43.699  61.843 -43.868  1.00  0.00     0.012 A 
HETATM   17  C   UNL     1     -46.320  63.746 -45.674  1.00  0.00     0.015 A 
HETATM   18  C   UNL     1     -45.085  64.246 -43.613  1.00  0.00     0.012 A 
HETATM   19  C   UNL     1     -46.587  62.897 -46.755  1.00  0.00     0.037 A 
HETATM   20  C   UNL     1     -44.130  63.886 -42.660  1.00  0.00     0.001 A 
HETATM   21  C   UNL     1     -43.439  62.686 -42.786  1.00  0.00     0.001 A 
ENDBRANCH  11  12
ENDBRANCH   9  11
ENDBRANCH   6   9
ENDBRANCH   1   5
BRANCH   2  22
HETATM   22  C   UNL     1     -41.129  57.679 -51.061  1.00  0.00     0.105 C 
BRANCH  22  23
HETATM   23  C   UNL     1     -42.156  56.556 -51.181  1.00  0.00     0.014 C 
BRANCH  23  24
HETATM   24  C   UNL     1     -42.095  55.855 -52.542  1.00  0.00     0.039 C 
BRANCH  24  25
HETATM   25  C   UNL     1     -41.337  54.550 -52.447  1.00  0.00    -0.056 A 
HETATM   26  C   UNL     1     -41.283  53.694 -53.560  1.00  0.00     0.039 A 
HETATM   27  C   UNL     1     -40.608  52.507 -53.403  1.00  0.00     0.063 A 
HETATM   28  C   UNL     1     -40.003  52.147 -52.200  1.00  0.00     0.063 A 
HETATM   29  N   UNL     1     -40.396  51.477 -54.313  1.00  0.00    -0.306 N 
HETATM   30  N   UNL     1     -39.420  50.897 -52.370  1.00  0.00    -0.307 N 
HETATM   31  C   UNL     1     -40.039  52.957 -51.092  1.00  0.00     0.032 A 
HETATM   32  C   UNL     1     -39.657  50.465 -53.683  1.00  0.00     0.325 A 
HETATM   33  H   UNL     1     -38.911  50.362 -51.687  1.00  0.00     0.170 HD
HETATM   34  O   UNL     1     -39.292  49.414 -54.179  1.00  0.00    -0.247 OA
HETATM   35  C   UNL     1     -40.719  54.175 -51.225  1.00  0.00     0.009 A 
HETATM   36  H   UNL     1     -40.710  51.434 -55.267  1.00  0.00     0.170 HD
ENDBRANCH  24  25
ENDBRANCH  23  24
ENDBRANCH  22  23
ENDBRANCH   2  22
TORSDOF 8
ENDMDL
MODEL 10
REMARK VINA RESULT:      -8.5      2.426      5.114
REMARK  8 active torsions:
REMARK  status: ('A' for Active; 'I' for Inactive)
REMARK    1  A    between atoms: C_2  and  O_3 
REMARK    2  A    between atoms: C_2  and  C_14 
REMARK    3  A    between atoms: O_3  and  C_4 
REMARK       I    between atoms: C_14  and  N_15 
REMARK    4  A    between atoms: N_15  and  N_16 
REMARK       I    between atoms: N_16  and  C_17 
REMARK    5  A    between atoms: C_17  and  C_18 
REMARK    6  A    between atoms: C_18  and  C_19 
REMARK    7  A    between atoms: C_19  and  C_20 
REMARK    8  A    between atoms: C_20  and  C_21 
ROOT
HETATM    1  N   UNL     1     -44.155  58.320 -56.939  1.00  0.00    -0.267 N 
HETATM    2  C   UNL     1     -45.471  58.736 -56.814  1.00  0.00     0.236 C 
HETATM    3  O   UNL     1     -46.427  57.967 -56.815  1.00  0.00    -0.272 OA
HETATM    4  H   UNL     1     -43.419  58.925 -56.575  1.00  0.00     0.190 HD
ENDROOT
BRANCH   1   5
HETATM    5  N   UNL     1     -43.889  56.947 -56.792  1.00  0.00    -0.265 N 
HETATM    6  C   UNL     1     -42.853  56.600 -55.937  1.00  0.00     0.265 C 
HETATM    7  O   UNL     1     -42.125  57.450 -55.421  1.00  0.00    -0.269 OA
HETATM    8  H   UNL     1     -44.676  56.319 -56.942  1.00  0.00     0.190 HD
BRANCH   6   9
HETATM    9  C   UNL     1     -42.667  55.087 -55.764  1.00  0.00     0.218 C 
HETATM   10  C   UNL     1     -43.561  54.575 -54.641  1.00  0.00     0.050 C 
BRANCH   9  11
HETATM   11  O   UNL     1     -41.287  54.952 -55.409  1.00  0.00    -0.337 OA
BRANCH  11  12
HETATM   12  C   UNL     1     -40.938  54.180 -54.341  1.00  0.00     0.070 A 
HETATM   13  C   UNL     1     -40.647  52.851 -54.665  1.00  0.00     0.049 A 
HETATM   14  C   UNL     1     -40.260  51.926 -53.683  1.00  0.00    -0.023 A 
HETATM   15  C   UNL     1     -40.147  52.353 -52.343  1.00  0.00    -0.026 A 
HETATM   16  C   UNL     1     -39.982  50.587 -54.005  1.00  0.00     0.012 A 
HETATM   17  C   UNL     1     -40.428  53.693 -52.029  1.00  0.00     0.015 A 
HETATM   18  C   UNL     1     -39.753  51.431 -51.360  1.00  0.00     0.012 A 
HETATM   19  C   UNL     1     -40.823  54.601 -53.020  1.00  0.00     0.037 A 
HETATM   20  C   UNL     1     -39.482  50.102 -51.695  1.00  0.00     0.001 A 
HETATM   21  C   UNL     1     -39.598  49.680 -53.016  1.00  0.00     0.001 A 
ENDBRANCH  11  12
ENDBRANCH   9  11
ENDBRANCH   6   9
ENDBRANCH   1   5
BRANCH   2  22
HETATM   22  C   UNL     1     -45.581  60.247 -56.728  1.00  0.00     0.105 C 
BRANCH  22  23
HETATM   23  C   UNL     1     -45.639  60.785 -55.301  1.00  0.00     0.014 C 
BRANCH  23  24
HETATM   24  C   UNL     1     -44.252  61.137 -54.755  1.00  0.00     0.039 C 
BRANCH  24  25
HETATM   25  C   UNL     1     -43.785  60.107 -53.752  1.00  0.00    -0.056 A 
HETATM   26  C   UNL     1     -44.599  58.999 -53.461  1.00  0.00     0.039 A 
HETATM   27  C   UNL     1     -44.136  58.115 -52.515  1.00  0.00     0.063 A 
HETATM   28  C   UNL     1     -42.920  58.294 -51.861  1.00  0.00     0.063 A 
HETATM   29  N   UNL     1     -44.717  56.949 -52.027  1.00  0.00    -0.306 N 
HETATM   30  N   UNL     1     -42.752  57.240 -50.970  1.00  0.00    -0.307 N 
HETATM   31  C   UNL     1     -42.100  59.366 -52.118  1.00  0.00     0.032 A 
HETATM   32  C   UNL     1     -43.866  56.393 -51.062  1.00  0.00     0.325 A 
HETATM   33  H   UNL     1     -41.979  57.083 -50.346  1.00  0.00     0.170 HD
HETATM   34  O   UNL     1     -44.058  55.372 -50.425  1.00  0.00    -0.247 OA
HETATM   35  C   UNL     1     -42.547  60.282 -53.078  1.00  0.00     0.009 A 
HETATM   36  H   UNL     1     -45.599  56.550 -52.298  1.00  0.00     0.170 HD
ENDBRANCH  24  25
ENDBRANCH  23  24
ENDBRANCH  22  23
ENDBRANCH   2  22
TORSDOF 8
ENDMDL
