MODEL 1
REMARK VINA RESULT:      -7.9      0.000      0.000
REMARK  8 active torsions:
REMARK  status: ('A' for Active; 'I' for Inactive)
REMARK    1  A    between atoms: C_2  and  C_3 
REMARK    2  A    between atoms: C_3  and  S_4 
REMARK    3  A    between atoms: S_4  and  C_5 
REMARK    4  A    between atoms: N_6  and  C_7 
REMARK    5  A    between atoms: C_8  and  O_9 
REMARK    6  A    between atoms: C_15  and  C_16 
REMARK    7  A    between atoms: C_16  and  N_17 
REMARK       I    between atoms: N_17  and  C_18 
REMARK    8  A    between atoms: C_18  and  C_19 
ROOT
HETATM    1  C   UNL     1     -41.381  59.264 -52.113  1.00  0.00     0.196 A 
HETATM    2  N   UNL     1     -41.732  57.968 -52.442  1.00  0.00    -0.271 N 
HETATM    3  C   UNL     1     -41.590  57.922 -53.824  1.00  0.00     0.153 A 
HETATM    4  N   UNL     1     -41.195  59.103 -54.267  1.00  0.00    -0.132 NA
HETATM    5  N   UNL     1     -41.052  59.938 -53.192  1.00  0.00    -0.122 NA
ENDROOT
BRANCH   3   6
HETATM    6  C   UNL     1     -41.951  56.775 -54.695  1.00  0.00     0.204 C 
BRANCH   6   7
HETATM    7  N   UNL     1     -41.194  55.615 -54.278  1.00  0.00    -0.350 N 
HETATM    8  C   UNL     1     -41.726  54.350 -54.392  1.00  0.00     0.252 C 
HETATM    9  O   UNL     1     -42.805  54.135 -54.939  1.00  0.00    -0.268 OA
HETATM   10  H   UNL     1     -40.427  55.786 -53.642  1.00  0.00     0.163 HD
BRANCH   8  11
HETATM   11  C   UNL     1     -40.958  53.224 -53.783  1.00  0.00     0.032 A 
HETATM   12  C   UNL     1     -40.683  52.032 -54.467  1.00  0.00     0.023 A 
HETATM   13  C   UNL     1     -39.932  51.016 -53.853  1.00  0.00    -0.061 A 
HETATM   14  C   UNL     1     -39.648  49.732 -54.577  1.00  0.00     0.048 C 
HETATM   15  C   UNL     1     -39.496  51.187 -52.534  1.00  0.00     0.007 A 
HETATM   16  C   UNL     1     -39.786  52.362 -51.840  1.00  0.00     0.002 A 
HETATM   17  C   UNL     1     -40.512  53.377 -52.463  1.00  0.00     0.017 A 
ENDBRANCH   8  11
ENDBRANCH   6   7
ENDBRANCH   3   6
BRANCH   2  18
HETATM   18  C   UNL     1     -42.076  56.900 -51.579  1.00  0.00     0.076 A 
HETATM   19  C   UNL     1     -43.404  56.452 -51.477  1.00  0.00     0.095 A 
HETATM   20  C   UNL     1     -43.695  55.395 -50.606  1.00  0.00     0.039 A 
HETATM   21  C   UNL     1     -42.686  54.810 -49.836  1.00  0.00     0.003 A 
HETATM   22  C   UNL     1     -41.376  55.266 -49.934  1.00  0.00     0.002 A 
HETATM   23  C   UNL     1     -41.066  56.310 -50.804  1.00  0.00     0.033 A 
BRANCH  19  24
HETATM   24  O   UNL     1     -44.332  56.991 -52.327  1.00  0.00    -0.354 OA
HETATM   25  C   UNL     1     -45.146  58.024 -51.778  1.00  0.00     0.210 C 
ENDBRANCH  19  24
ENDBRANCH   2  18
BRANCH   1  26
HETATM   26  S   UNL     1     -41.162  59.872 -50.502  1.00  0.00    -0.090 SA
BRANCH  26  27
HETATM   27  C   UNL     1     -42.826  60.528 -50.191  1.00  0.00     0.082 C 
BRANCH  27  28
HETATM   28  C   UNL     1     -42.927  61.950 -50.734  1.00  0.00     0.006 C 
HETATM   29  C   UNL     1     -44.088  62.702 -50.100  1.00  0.00     0.006 C 
ENDBRANCH  27  28
ENDBRANCH  26  27
ENDBRANCH   1  26
TORSDOF 8
ENDMDL
MODEL 2
REMARK VINA RESULT:      -7.8      3.612      5.619
REMARK  8 active torsions:
REMARK  status: ('A' for Active; 'I' for Inactive)
REMARK    1  A    between atoms: C_2  and  C_3 
REMARK    2  A    between atoms: C_3  and  S_4 
REMARK    3  A    between atoms: S_4  and  C_5 
REMARK    4  A    between atoms: N_6  and  C_7 
REMARK    5  A    between atoms: C_8  and  O_9 
REMARK    6  A    between atoms: C_15  and  C_16 
REMARK    7  A    between atoms: C_16  and  N_17 
REMARK       I    between atoms: N_17  and  C_18 
REMARK    8  A    between atoms: C_18  and  C_19 
ROOT
HETATM    1  C   UNL     1     -42.453  59.392 -55.902  1.00  0.00     0.196 A 
HETATM    2  N   UNL     1     -43.360  58.348 -55.932  1.00  0.00    -0.271 N 
HETATM    3  C   UNL     1     -43.054  57.606 -54.797  1.00  0.00     0.153 A 
HETATM    4  N   UNL     1     -42.043  58.170 -54.159  1.00  0.00    -0.132 NA
HETATM    5  N   UNL     1     -41.677  59.295 -54.846  1.00  0.00    -0.122 NA
ENDROOT
BRANCH   3   6
HETATM    6  C   UNL     1     -43.669  56.308 -54.418  1.00  0.00     0.204 C 
BRANCH   6   7
HETATM    7  N   UNL     1     -42.636  55.433 -53.909  1.00  0.00    -0.350 N 
HETATM    8  C   UNL     1     -42.360  54.235 -54.530  1.00  0.00     0.252 C 
HETATM    9  O   UNL     1     -42.891  53.903 -55.587  1.00  0.00    -0.268 OA
HETATM   10  H   UNL     1     -42.356  55.581 -52.948  1.00  0.00     0.163 HD
BRANCH   8  11
HETATM   11  C   UNL     1     -41.405  53.313 -53.849  1.00  0.00     0.032 A 
HETATM   12  C   UNL     1     -40.959  52.115 -54.427  1.00  0.00     0.023 A 
HETATM   13  C   UNL     1     -40.038  51.298 -53.750  1.00  0.00    -0.061 A 
HETATM   14  C   UNL     1     -39.571  50.008 -54.359  1.00  0.00     0.048 C 
HETATM   15  C   UNL     1     -39.602  51.668 -52.472  1.00  0.00     0.007 A 
HETATM   16  C   UNL     1     -40.059  52.847 -51.883  1.00  0.00     0.002 A 
HETATM   17  C   UNL     1     -40.955  53.666 -52.569  1.00  0.00     0.017 A 
ENDBRANCH   8  11
ENDBRANCH   6   7
ENDBRANCH   3   6
BRANCH   2  18
HETATM   18  C   UNL     1     -44.414  58.119 -56.849  1.00  0.00     0.076 A 
HETATM   19  C   UNL     1     -44.199  57.384 -58.026  1.00  0.00     0.095 A 
HETATM   20  C   UNL     1     -45.272  57.189 -58.905  1.00  0.00     0.039 A 
HETATM   21  C   UNL     1     -46.529  57.732 -58.625  1.00  0.00     0.003 A 
HETATM   22  C   UNL     1     -46.730  58.468 -57.462  1.00  0.00     0.002 A 
HETATM   23  C   UNL     1     -45.677  58.664 -56.571  1.00  0.00     0.033 A 
BRANCH  19  24
HETATM   24  O   UNL     1     -42.979  56.789 -58.201  1.00  0.00    -0.354 OA
HETATM   25  C   UNL     1     -42.863  55.938 -59.339  1.00  0.00     0.210 C 
ENDBRANCH  19  24
ENDBRANCH   2  18
BRANCH   1  26
HETATM   26  S   UNL     1     -42.471  60.774 -56.952  1.00  0.00    -0.090 SA
BRANCH  26  27
HETATM   27  C   UNL     1     -41.595  60.084 -58.385  1.00  0.00     0.082 C 
BRANCH  27  28
HETATM   28  C   UNL     1     -42.471  60.202 -59.628  1.00  0.00     0.006 C 
HETATM   29  C   UNL     1     -42.006  59.254 -60.724  1.00  0.00     0.006 C 
ENDBRANCH  27  28
ENDBRANCH  26  27
ENDBRANCH   1  26
TORSDOF 8
ENDMDL
MODEL 3
REMARK VINA RESULT:      -7.7      4.036      5.652
REMARK  8 active torsions:
REMARK  status: ('A' for Active; 'I' for Inactive)
REMARK    1  A    between atoms: C_2  and  C_3 
REMARK    2  A    between atoms: C_3  and  S_4 
REMARK    3  A    between atoms: S_4  and  C_5 
REMARK    4  A    between atoms: N_6  and  C_7 
REMARK    5  A    between atoms: C_8  and  O_9 
REMARK    6  A    between atoms: C_15  and  C_16 
REMARK    7  A    between atoms: C_16  and  N_17 
REMARK       I    between atoms: N_17  and  C_18 
REMARK    8  A    between atoms: C_18  and  C_19 
ROOT
HETATM    1  C   UNL     1     -42.136  59.075 -57.007  1.00  0.00     0.196 A 
HETATM    2  N   UNL     1     -42.951  57.965 -56.875  1.00  0.00    -0.271 N 
HETATM    3  C   UNL     1     -43.010  57.753 -55.502  1.00  0.00     0.153 A 
HETATM    4  N   UNL     1     -42.279  58.664 -54.883  1.00  0.00    -0.132 NA
HETATM    5  N   UNL     1     -41.743  59.497 -55.827  1.00  0.00    -0.122 NA
ENDROOT
BRANCH   3   6
HETATM    6  C   UNL     1     -43.675  56.609 -54.830  1.00  0.00     0.204 C 
BRANCH   6   7
HETATM    7  N   UNL     1     -42.660  55.725 -54.299  1.00  0.00    -0.350 N 
HETATM    8  C   UNL     1     -42.573  54.418 -54.725  1.00  0.00     0.252 C 
HETATM    9  O   UNL     1     -43.269  53.974 -55.635  1.00  0.00    -0.268 OA
HETATM   10  H   UNL     1     -42.242  55.999 -53.420  1.00  0.00     0.163 HD
BRANCH   8  11
HETATM   11  C   UNL     1     -41.616  53.525 -54.009  1.00  0.00     0.032 A 
HETATM   12  C   UNL     1     -41.174  52.303 -54.536  1.00  0.00     0.023 A 
HETATM   13  C   UNL     1     -40.252  51.514 -53.828  1.00  0.00    -0.061 A 
HETATM   14  C   UNL     1     -39.789  50.198 -54.382  1.00  0.00     0.048 C 
HETATM   15  C   UNL     1     -39.809  51.939 -52.570  1.00  0.00     0.007 A 
HETATM   16  C   UNL     1     -40.262  53.143 -52.031  1.00  0.00     0.002 A 
HETATM   17  C   UNL     1     -41.160  53.933 -52.748  1.00  0.00     0.017 A 
ENDBRANCH   8  11
ENDBRANCH   6   7
ENDBRANCH   3   6
BRANCH   2  18
HETATM   18  C   UNL     1     -43.642  57.251 -57.884  1.00  0.00     0.076 A 
HETATM   19  C   UNL     1     -44.938  57.624 -58.274  1.00  0.00     0.095 A 
HETATM   20  C   UNL     1     -45.581  56.884 -59.273  1.00  0.00     0.039 A 
HETATM   21  C   UNL     1     -44.953  55.783 -59.860  1.00  0.00     0.003 A 
HETATM   22  C   UNL     1     -43.672  55.413 -59.461  1.00  0.00     0.002 A 
HETATM   23  C   UNL     1     -43.012  56.144 -58.474  1.00  0.00     0.033 A 
BRANCH  19  24
HETATM   24  O   UNL     1     -45.467  58.769 -57.742  1.00  0.00    -0.354 OA
HETATM   25  C   UNL     1     -45.652  59.848 -58.655  1.00  0.00     0.210 C 
ENDBRANCH  19  24
ENDBRANCH   2  18
BRANCH   1  26
HETATM   26  S   UNL     1     -41.852  59.949 -58.480  1.00  0.00    -0.090 SA
BRANCH  26  27
HETATM   27  C   UNL     1     -41.727  61.636 -57.818  1.00  0.00     0.082 C 
BRANCH  27  28
HETATM   28  C   UNL     1     -40.578  62.370 -58.501  1.00  0.00     0.006 C 
HETATM   29  C   UNL     1     -40.667  62.249 -60.015  1.00  0.00     0.006 C 
ENDBRANCH  27  28
ENDBRANCH  26  27
ENDBRANCH   1  26
TORSDOF 8
ENDMDL
MODEL 4
REMARK VINA RESULT:      -7.4      4.213      6.320
REMARK  8 active torsions:
REMARK  status: ('A' for Active; 'I' for Inactive)
REMARK    1  A    between atoms: C_2  and  C_3 
REMARK    2  A    between atoms: C_3  and  S_4 
REMARK    3  A    between atoms: S_4  and  C_5 
REMARK    4  A    between atoms: N_6  and  C_7 
REMARK    5  A    between atoms: C_8  and  O_9 
REMARK    6  A    between atoms: C_15  and  C_16 
REMARK    7  A    between atoms: C_16  and  N_17 
REMARK       I    between atoms: N_17  and  C_18 
REMARK    8  A    between atoms: C_18  and  C_19 
ROOT
HETATM    1  C   UNL     1     -43.801  56.604 -58.490  1.00  0.00     0.196 A 
HETATM    2  N   UNL     1     -43.201  57.280 -57.443  1.00  0.00    -0.271 N 
HETATM    3  C   UNL     1     -42.659  56.269 -56.658  1.00  0.00     0.153 A 
HETATM    4  N   UNL     1     -42.929  55.095 -57.200  1.00  0.00    -0.132 NA
HETATM    5  N   UNL     1     -43.633  55.308 -58.355  1.00  0.00    -0.122 NA
ENDROOT
BRANCH   3   6
HETATM    6  C   UNL     1     -41.995  56.455 -55.342  1.00  0.00     0.204 C 
BRANCH   6   7
HETATM    7  N   UNL     1     -41.563  55.166 -54.851  1.00  0.00    -0.350 N 
HETATM    8  C   UNL     1     -41.333  54.966 -53.507  1.00  0.00     0.252 C 
HETATM    9  O   UNL     1     -41.579  55.824 -52.662  1.00  0.00    -0.268 OA
HETATM   10  H   UNL     1     -41.155  54.539 -55.532  1.00  0.00     0.163 HD
BRANCH   8  11
HETATM   11  C   UNL     1     -40.727  53.665 -53.100  1.00  0.00     0.032 A 
HETATM   12  C   UNL     1     -40.558  52.592 -53.987  1.00  0.00     0.023 A 
HETATM   13  C   UNL     1     -39.957  51.399 -53.554  1.00  0.00    -0.061 A 
HETATM   14  C   UNL     1     -39.789  50.243 -54.497  1.00  0.00     0.048 C 
HETATM   15  C   UNL     1     -39.566  51.273 -52.215  1.00  0.00     0.007 A 
HETATM   16  C   UNL     1     -39.751  52.329 -51.323  1.00  0.00     0.002 A 
HETATM   17  C   UNL     1     -40.328  53.520 -51.764  1.00  0.00     0.017 A 
ENDBRANCH   8  11
ENDBRANCH   6   7
ENDBRANCH   3   6
BRANCH   2  18
HETATM   18  C   UNL     1     -43.084  58.677 -57.246  1.00  0.00     0.076 A 
HETATM   19  C   UNL     1     -44.068  59.393 -56.545  1.00  0.00     0.095 A 
HETATM   20  C   UNL     1     -43.910  60.774 -56.381  1.00  0.00     0.039 A 
HETATM   21  C   UNL     1     -42.801  61.432 -56.920  1.00  0.00     0.003 A 
HETATM   22  C   UNL     1     -41.836  60.718 -57.622  1.00  0.00     0.002 A 
HETATM   23  C   UNL     1     -41.972  59.341 -57.787  1.00  0.00     0.033 A 
BRANCH  19  24
HETATM   24  O   UNL     1     -45.079  58.686 -55.952  1.00  0.00    -0.354 OA
HETATM   25  C   UNL     1     -45.073  58.677 -54.526  1.00  0.00     0.210 C 
ENDBRANCH  19  24
ENDBRANCH   2  18
BRANCH   1  26
HETATM   26  S   UNL     1     -44.471  57.338 -59.913  1.00  0.00    -0.090 SA
BRANCH  26  27
HETATM   27  C   UNL     1     -45.530  55.980 -60.491  1.00  0.00     0.082 C 
BRANCH  27  28
HETATM   28  C   UNL     1     -46.996  56.362 -60.314  1.00  0.00     0.006 C 
HETATM   29  C   UNL     1     -47.257  57.784 -60.788  1.00  0.00     0.006 C 
ENDBRANCH  27  28
ENDBRANCH  26  27
ENDBRANCH   1  26
TORSDOF 8
ENDMDL
MODEL 5
REMARK VINA RESULT:      -7.4      3.224      5.418
REMARK  8 active torsions:
REMARK  status: ('A' for Active; 'I' for Inactive)
REMARK    1  A    between atoms: C_2  and  C_3 
REMARK    2  A    between atoms: C_3  and  S_4 
REMARK    3  A    between atoms: S_4  and  C_5 
REMARK    4  A    between atoms: N_6  and  C_7 
REMARK    5  A    between atoms: C_8  and  O_9 
REMARK    6  A    between atoms: C_15  and  C_16 
REMARK    7  A    between atoms: C_16  and  N_17 
REMARK       I    between atoms: N_17  and  C_18 
REMARK    8  A    between atoms: C_18  and  C_19 
ROOT
HETATM    1  C   UNL     1     -42.866  57.001 -57.055  1.00  0.00     0.196 A 
HETATM    2  N   UNL     1     -43.202  57.152 -55.722  1.00  0.00    -0.271 N 
HETATM    3  C   UNL     1     -43.182  55.856 -55.222  1.00  0.00     0.153 A 
HETATM    4  N   UNL     1     -42.867  55.013 -56.189  1.00  0.00    -0.132 NA
HETATM    5  N   UNL     1     -42.657  55.734 -57.334  1.00  0.00    -0.122 NA
ENDROOT
BRANCH   3   6
HETATM    6  C   UNL     1     -43.581  55.451 -53.850  1.00  0.00     0.204 C 
BRANCH   6   7
HETATM    7  N   UNL     1     -42.855  54.253 -53.487  1.00  0.00    -0.350 N 
HETATM    8  C   UNL     1     -41.646  54.335 -52.832  1.00  0.00     0.252 C 
HETATM    9  O   UNL     1     -41.182  55.401 -52.436  1.00  0.00    -0.268 OA
HETATM   10  H   UNL     1     -43.103  53.410 -53.986  1.00  0.00     0.163 HD
BRANCH   8  11
HETATM   11  C   UNL     1     -40.878  53.068 -52.646  1.00  0.00     0.032 A 
HETATM   12  C   UNL     1     -40.609  52.180 -53.697  1.00  0.00     0.023 A 
HETATM   13  C   UNL     1     -39.859  51.015 -53.469  1.00  0.00    -0.061 A 
HETATM   14  C   UNL     1     -39.582  50.053 -54.588  1.00  0.00     0.048 C 
HETATM   15  C   UNL     1     -39.418  50.725 -52.172  1.00  0.00     0.007 A 
HETATM   16  C   UNL     1     -39.701  51.594 -51.119  1.00  0.00     0.002 A 
HETATM   17  C   UNL     1     -40.427  52.762 -51.355  1.00  0.00     0.017 A 
ENDBRANCH   8  11
ENDBRANCH   6   7
ENDBRANCH   3   6
BRANCH   2  18
HETATM   18  C   UNL     1     -43.432  58.349 -55.000  1.00  0.00     0.076 A 
HETATM   19  C   UNL     1     -42.450  58.877 -54.147  1.00  0.00     0.095 A 
HETATM   20  C   UNL     1     -42.726  60.060 -53.451  1.00  0.00     0.039 A 
HETATM   21  C   UNL     1     -43.964  60.694 -53.588  1.00  0.00     0.003 A 
HETATM   22  C   UNL     1     -44.936  60.158 -54.427  1.00  0.00     0.002 A 
HETATM   23  C   UNL     1     -44.675  58.987 -55.136  1.00  0.00     0.033 A 
BRANCH  19  24
HETATM   24  O   UNL     1     -41.221  58.274 -54.127  1.00  0.00    -0.354 OA
HETATM   25  C   UNL     1     -40.310  58.758 -53.143  1.00  0.00     0.210 C 
ENDBRANCH  19  24
ENDBRANCH   2  18
BRANCH   1  26
HETATM   26  S   UNL     1     -42.524  58.293 -58.163  1.00  0.00    -0.090 SA
BRANCH  26  27
HETATM   27  C   UNL     1     -42.533  57.368 -59.727  1.00  0.00     0.082 C 
BRANCH  27  28
HETATM   28  C   UNL     1     -43.933  57.398 -60.332  1.00  0.00     0.006 C 
HETATM   29  C   UNL     1     -44.476  55.991 -60.534  1.00  0.00     0.006 C 
ENDBRANCH  27  28
ENDBRANCH  26  27
ENDBRANCH   1  26
TORSDOF 8
ENDMDL
MODEL 6
REMARK VINA RESULT:      -7.3      2.370      3.896
REMARK  8 active torsions:
REMARK  status: ('A' for Active; 'I' for Inactive)
REMARK    1  A    between atoms: C_2  and  C_3 
REMARK    2  A    between atoms: C_3  and  S_4 
REMARK    3  A    between atoms: S_4  and  C_5 
REMARK    4  A    between atoms: N_6  and  C_7 
REMARK    5  A    between atoms: C_8  and  O_9 
REMARK    6  A    between atoms: C_15  and  C_16 
REMARK    7  A    between atoms: C_16  and  N_17 
REMARK       I    between atoms: N_17  and  C_18 
REMARK    8  A    between atoms: C_18  and  C_19 
ROOT
HETATM    1  C   UNL     1     -44.767  58.265 -51.275  1.00  0.00     0.196 A 
HETATM    2  N   UNL     1     -44.232  58.244 -52.550  1.00  0.00    -0.271 N 
HETATM    3  C   UNL     1     -43.814  56.929 -52.717  1.00  0.00     0.153 A 
HETATM    4  N   UNL     1     -44.077  56.239 -51.621  1.00  0.00    -0.132 NA
HETATM    5  N   UNL     1     -44.686  57.075 -50.724  1.00  0.00    -0.122 NA
ENDROOT
BRANCH   3   6
HETATM    6  C   UNL     1     -43.065  56.399 -53.885  1.00  0.00     0.204 C 
BRANCH   6   7
HETATM    7  N   UNL     1     -42.144  55.382 -53.427  1.00  0.00    -0.350 N 
HETATM    8  C   UNL     1     -41.825  54.309 -54.230  1.00  0.00     0.252 C 
HETATM    9  O   UNL     1     -42.215  54.216 -55.391  1.00  0.00    -0.268 OA
HETATM   10  H   UNL     1     -41.996  55.328 -52.428  1.00  0.00     0.163 HD
BRANCH   8  11
HETATM   11  C   UNL     1     -41.007  53.218 -53.625  1.00  0.00     0.032 A 
HETATM   12  C   UNL     1     -40.677  52.041 -54.313  1.00  0.00     0.023 A 
HETATM   13  C   UNL     1     -39.881  51.059 -53.702  1.00  0.00    -0.061 A 
HETATM   14  C   UNL     1     -39.539  49.792 -54.429  1.00  0.00     0.048 C 
HETATM   15  C   UNL     1     -39.454  51.245 -52.381  1.00  0.00     0.007 A 
HETATM   16  C   UNL     1     -39.797  52.403 -51.684  1.00  0.00     0.002 A 
HETATM   17  C   UNL     1     -40.568  53.386 -52.304  1.00  0.00     0.017 A 
ENDBRANCH   8  11
ENDBRANCH   6   7
ENDBRANCH   3   6
BRANCH   2  18
HETATM   18  C   UNL     1     -44.189  59.287 -53.507  1.00  0.00     0.076 A 
HETATM   19  C   UNL     1     -43.090  60.159 -53.576  1.00  0.00     0.095 A 
HETATM   20  C   UNL     1     -43.096  61.178 -54.536  1.00  0.00     0.039 A 
HETATM   21  C   UNL     1     -44.184  61.336 -55.399  1.00  0.00     0.003 A 
HETATM   22  C   UNL     1     -45.274  60.475 -55.317  1.00  0.00     0.002 A 
HETATM   23  C   UNL     1     -45.281  59.449 -54.374  1.00  0.00     0.033 A 
BRANCH  19  24
HETATM   24  O   UNL     1     -42.009  59.897 -52.778  1.00  0.00    -0.354 OA
HETATM   25  C   UNL     1     -40.914  59.244 -53.415  1.00  0.00     0.210 C 
ENDBRANCH  19  24
ENDBRANCH   2  18
BRANCH   1  26
HETATM   26  S   UNL     1     -45.643  59.588 -50.570  1.00  0.00    -0.090 SA
BRANCH  26  27
HETATM   27  C   UNL     1     -44.254  60.651 -50.080  1.00  0.00     0.082 C 
BRANCH  27  28
HETATM   28  C   UNL     1     -44.730  61.677 -49.056  1.00  0.00     0.006 C 
HETATM   29  C   UNL     1     -45.382  61.001 -47.859  1.00  0.00     0.006 C 
ENDBRANCH  27  28
ENDBRANCH  26  27
ENDBRANCH   1  26
TORSDOF 8
ENDMDL
MODEL 7
REMARK VINA RESULT:      -7.2      4.123      5.861
REMARK  8 active torsions:
REMARK  status: ('A' for Active; 'I' for Inactive)
REMARK    1  A    between atoms: C_2  and  C_3 
REMARK    2  A    between atoms: C_3  and  S_4 
REMARK    3  A    between atoms: S_4  and  C_5 
REMARK    4  A    between atoms: N_6  and  C_7 
REMARK    5  A    between atoms: C_8  and  O_9 
REMARK    6  A    between atoms: C_15  and  C_16 
REMARK    7  A    between atoms: C_16  and  N_17 
REMARK       I    between atoms: N_17  and  C_18 
REMARK    8  A    between atoms: C_18  and  C_19 
ROOT
HETATM    1  C   UNL     1     -42.631  59.323 -56.894  1.00  0.00     0.196 A 
HETATM    2  N   UNL     1     -43.546  58.295 -56.750  1.00  0.00    -0.271 N 
HETATM    3  C   UNL     1     -43.206  57.711 -55.536  1.00  0.00     0.153 A 
HETATM    4  N   UNL     1     -42.169  58.344 -55.016  1.00  0.00    -0.132 NA
HETATM    5  N   UNL     1     -41.819  59.360 -55.862  1.00  0.00    -0.122 NA
ENDROOT
BRANCH   3   6
HETATM    6  C   UNL     1     -43.817  56.484 -54.963  1.00  0.00     0.204 C 
BRANCH   6   7
HETATM    7  N   UNL     1     -42.770  55.663 -54.395  1.00  0.00    -0.350 N 
HETATM    8  C   UNL     1     -42.632  54.344 -54.767  1.00  0.00     0.252 C 
HETATM    9  O   UNL     1     -43.309  53.836 -55.659  1.00  0.00    -0.268 OA
HETATM   10  H   UNL     1     -42.364  55.989 -53.528  1.00  0.00     0.163 HD
BRANCH   8  11
HETATM   11  C   UNL     1     -41.643  53.518 -54.015  1.00  0.00     0.032 A 
HETATM   12  C   UNL     1     -41.150  52.296 -54.493  1.00  0.00     0.023 A 
HETATM   13  C   UNL     1     -40.200  51.573 -53.754  1.00  0.00    -0.061 A 
HETATM   14  C   UNL     1     -39.681  50.257 -54.256  1.00  0.00     0.048 C 
HETATM   15  C   UNL     1     -39.781  52.062 -52.510  1.00  0.00     0.007 A 
HETATM   16  C   UNL     1     -40.285  53.266 -52.019  1.00  0.00     0.002 A 
HETATM   17  C   UNL     1     -41.211  53.992 -52.768  1.00  0.00     0.017 A 
ENDBRANCH   8  11
ENDBRANCH   6   7
ENDBRANCH   3   6
BRANCH   2  18
HETATM   18  C   UNL     1     -44.634  57.957 -57.591  1.00  0.00     0.076 A 
HETATM   19  C   UNL     1     -45.894  58.552 -57.417  1.00  0.00     0.095 A 
HETATM   20  C   UNL     1     -46.939  58.181 -58.271  1.00  0.00     0.039 A 
HETATM   21  C   UNL     1     -46.738  57.222 -59.267  1.00  0.00     0.003 A 
HETATM   22  C   UNL     1     -45.490  56.629 -59.427  1.00  0.00     0.002 A 
HETATM   23  C   UNL     1     -44.435  56.993 -58.592  1.00  0.00     0.033 A 
BRANCH  19  24
HETATM   24  O   UNL     1     -46.010  59.557 -56.495  1.00  0.00    -0.354 OA
HETATM   25  C   UNL     1     -46.303  60.849 -57.021  1.00  0.00     0.210 C 
ENDBRANCH  19  24
ENDBRANCH   2  18
BRANCH   1  26
HETATM   26  S   UNL     1     -42.676  60.549 -58.122  1.00  0.00    -0.090 SA
BRANCH  26  27
HETATM   27  C   UNL     1     -41.939  59.629 -59.504  1.00  0.00     0.082 C 
BRANCH  27  28
HETATM   28  C   UNL     1     -42.977  59.439 -60.605  1.00  0.00     0.006 C 
HETATM   29  C   UNL     1     -44.175  60.354 -60.398  1.00  0.00     0.006 C 
ENDBRANCH  27  28
ENDBRANCH  26  27
ENDBRANCH   1  26
TORSDOF 8
ENDMDL
MODEL 8
REMARK VINA RESULT:      -7.2      4.068      6.459
REMARK  8 active torsions:
REMARK  status: ('A' for Active; 'I' for Inactive)
REMARK    1  A    between atoms: C_2  and  C_3 
REMARK    2  A    between atoms: C_3  and  S_4 
REMARK    3  A    between atoms: S_4  and  C_5 
REMARK    4  A    between atoms: N_6  and  C_7 
REMARK    5  A    between atoms: C_8  and  O_9 
REMARK    6  A    between atoms: C_15  and  C_16 
REMARK    7  A    between atoms: C_16  and  N_17 
REMARK       I    between atoms: N_17  and  C_18 
REMARK    8  A    between atoms: C_18  and  C_19 
ROOT
HETATM    1  C   UNL     1     -44.816  57.996 -56.014  1.00  0.00     0.196 A 
HETATM    2  N   UNL     1     -43.685  57.409 -56.554  1.00  0.00    -0.271 N 
HETATM    3  C   UNL     1     -43.266  56.522 -55.569  1.00  0.00     0.153 A 
HETATM    4  N   UNL     1     -44.083  56.592 -54.533  1.00  0.00    -0.132 NA
HETATM    5  N   UNL     1     -45.060  57.507 -54.820  1.00  0.00    -0.122 NA
ENDROOT
BRANCH   3   6
HETATM    6  C   UNL     1     -42.021  55.714 -55.605  1.00  0.00     0.204 C 
BRANCH   6   7
HETATM    7  N   UNL     1     -41.704  55.285 -54.261  1.00  0.00    -0.350 N 
HETATM    8  C   UNL     1     -40.774  54.293 -54.039  1.00  0.00     0.252 C 
HETATM    9  O   UNL     1     -40.103  53.805 -54.946  1.00  0.00    -0.268 OA
HETATM   10  H   UNL     1     -42.384  55.508 -53.546  1.00  0.00     0.163 HD
BRANCH   8  11
HETATM   11  C   UNL     1     -40.628  53.787 -52.643  1.00  0.00     0.032 A 
HETATM   12  C   UNL     1     -40.948  54.557 -51.516  1.00  0.00     0.023 A 
HETATM   13  C   UNL     1     -40.815  54.020 -50.226  1.00  0.00    -0.061 A 
HETATM   14  C   UNL     1     -41.142  54.847 -49.016  1.00  0.00     0.048 C 
HETATM   15  C   UNL     1     -40.318  52.720 -50.071  1.00  0.00     0.007 A 
HETATM   16  C   UNL     1     -39.977  51.957 -51.187  1.00  0.00     0.002 A 
HETATM   17  C   UNL     1     -40.132  52.487 -52.468  1.00  0.00     0.017 A 
ENDBRANCH   8  11
ENDBRANCH   6   7
ENDBRANCH   3   6
BRANCH   2  18
HETATM   18  C   UNL     1     -43.122  57.594 -57.840  1.00  0.00     0.076 A 
HETATM   19  C   UNL     1     -42.261  58.672 -58.103  1.00  0.00     0.095 A 
HETATM   20  C   UNL     1     -41.734  58.816 -59.391  1.00  0.00     0.039 A 
HETATM   21  C   UNL     1     -42.072  57.914 -60.403  1.00  0.00     0.003 A 
HETATM   22  C   UNL     1     -42.934  56.854 -60.138  1.00  0.00     0.002 A 
HETATM   23  C   UNL     1     -43.461  56.690 -58.858  1.00  0.00     0.033 A 
BRANCH  19  24
HETATM   24  O   UNL     1     -41.883  59.465 -57.053  1.00  0.00    -0.354 OA
HETATM   25  C   UNL     1     -42.472  60.763 -57.014  1.00  0.00     0.210 C 
ENDBRANCH  19  24
ENDBRANCH   2  18
BRANCH   1  26
HETATM   26  S   UNL     1     -45.909  59.046 -56.861  1.00  0.00    -0.090 SA
BRANCH  26  27
HETATM   27  C   UNL     1     -46.919  57.808 -57.724  1.00  0.00     0.082 C 
BRANCH  27  28
HETATM   28  C   UNL     1     -46.805  58.014 -59.231  1.00  0.00     0.006 C 
HETATM   29  C   UNL     1     -46.943  56.697 -59.980  1.00  0.00     0.006 C 
ENDBRANCH  27  28
ENDBRANCH  26  27
ENDBRANCH   1  26
TORSDOF 8
ENDMDL
MODEL 9
REMARK VINA RESULT:      -7.2      2.165      3.530
REMARK  8 active torsions:
REMARK  status: ('A' for Active; 'I' for Inactive)
REMARK    1  A    between atoms: C_2  and  C_3 
REMARK    2  A    between atoms: C_3  and  S_4 
REMARK    3  A    between atoms: S_4  and  C_5 
REMARK    4  A    between atoms: N_6  and  C_7 
REMARK    5  A    between atoms: C_8  and  O_9 
REMARK    6  A    between atoms: C_15  and  C_16 
REMARK    7  A    between atoms: C_16  and  N_17 
REMARK       I    between atoms: N_17  and  C_18 
REMARK    8  A    between atoms: C_18  and  C_19 
ROOT
HETATM    1  C   UNL     1     -44.542  60.126 -51.494  1.00  0.00     0.196 A 
HETATM    2  N   UNL     1     -43.651  59.078 -51.347  1.00  0.00    -0.271 N 
HETATM    3  C   UNL     1     -44.465  57.974 -51.125  1.00  0.00     0.153 A 
HETATM    4  N   UNL     1     -45.732  58.350 -51.135  1.00  0.00    -0.132 NA
HETATM    5  N   UNL     1     -45.778  59.696 -51.379  1.00  0.00    -0.122 NA
ENDROOT
BRANCH   3   6
HETATM    6  C   UNL     1     -43.997  56.604 -50.795  1.00  0.00     0.204 C 
BRANCH   6   7
HETATM    7  N   UNL     1     -43.165  56.121 -51.875  1.00  0.00    -0.350 N 
HETATM    8  C   UNL     1     -42.943  54.772 -52.043  1.00  0.00     0.252 C 
HETATM    9  O   UNL     1     -43.511  53.921 -51.363  1.00  0.00    -0.268 OA
HETATM   10  H   UNL     1     -42.533  56.793 -52.289  1.00  0.00     0.163 HD
BRANCH   8  11
HETATM   11  C   UNL     1     -41.939  54.364 -53.069  1.00  0.00     0.032 A 
HETATM   12  C   UNL     1     -41.504  53.040 -53.225  1.00  0.00     0.023 A 
HETATM   13  C   UNL     1     -40.577  52.709 -54.226  1.00  0.00    -0.061 A 
HETATM   14  C   UNL     1     -40.097  51.296 -54.386  1.00  0.00     0.048 C 
HETATM   15  C   UNL     1     -40.056  53.721 -55.042  1.00  0.00     0.007 A 
HETATM   16  C   UNL     1     -40.469  55.043 -54.877  1.00  0.00     0.002 A 
HETATM   17  C   UNL     1     -41.407  55.363 -53.896  1.00  0.00     0.017 A 
ENDBRANCH   8  11
ENDBRANCH   6   7
ENDBRANCH   3   6
BRANCH   2  18
HETATM   18  C   UNL     1     -42.241  59.094 -51.473  1.00  0.00     0.076 A 
HETATM   19  C   UNL     1     -41.623  58.821 -52.704  1.00  0.00     0.095 A 
HETATM   20  C   UNL     1     -40.225  58.844 -52.777  1.00  0.00     0.039 A 
HETATM   21  C   UNL     1     -39.457  59.115 -51.642  1.00  0.00     0.003 A 
HETATM   22  C   UNL     1     -40.076  59.374 -50.423  1.00  0.00     0.002 A 
HETATM   23  C   UNL     1     -41.467  59.365 -50.333  1.00  0.00     0.033 A 
BRANCH  19  24
HETATM   24  O   UNL     1     -42.421  58.663 -53.805  1.00  0.00    -0.354 OA
HETATM   25  C   UNL     1     -42.300  59.670 -54.806  1.00  0.00     0.210 C 
ENDBRANCH  19  24
ENDBRANCH   2  18
BRANCH   1  26
HETATM   26  S   UNL     1     -44.132  61.736 -51.999  1.00  0.00    -0.090 SA
BRANCH  26  27
HETATM   27  C   UNL     1     -43.513  62.404 -50.428  1.00  0.00     0.082 C 
BRANCH  27  28
HETATM   28  C   UNL     1     -44.621  63.190 -49.733  1.00  0.00     0.006 C 
HETATM   29  C   UNL     1     -44.940  62.604 -48.366  1.00  0.00     0.006 C 
ENDBRANCH  27  28
ENDBRANCH  26  27
ENDBRANCH   1  26
TORSDOF 8
ENDMDL
MODEL 10
REMARK VINA RESULT:      -7.2      2.442      4.166
REMARK  8 active torsions:
REMARK  status: ('A' for Active; 'I' for Inactive)
REMARK    1  A    between atoms: C_2  and  C_3 
REMARK    2  A    between atoms: C_3  and  S_4 
REMARK    3  A    between atoms: S_4  and  C_5 
REMARK    4  A    between atoms: N_6  and  C_7 
REMARK    5  A    between atoms: C_8  and  O_9 
REMARK    6  A    between atoms: C_15  and  C_16 
REMARK    7  A    between atoms: C_16  and  N_17 
REMARK       I    between atoms: N_17  and  C_18 
REMARK    8  A    between atoms: C_18  and  C_19 
ROOT
HETATM    1  C   UNL     1     -43.489  59.291 -54.470  1.00  0.00     0.196 A 
HETATM    2  N   UNL     1     -43.247  58.716 -53.235  1.00  0.00    -0.271 N 
HETATM    3  C   UNL     1     -44.162  57.671 -53.166  1.00  0.00     0.153 A 
HETATM    4  N   UNL     1     -44.886  57.645 -54.271  1.00  0.00    -0.132 NA
HETATM    5  N   UNL     1     -44.454  58.652 -55.091  1.00  0.00    -0.122 NA
ENDROOT
BRANCH   3   6
HETATM    6  C   UNL     1     -44.393  56.798 -51.988  1.00  0.00     0.204 C 
BRANCH   6   7
HETATM    7  N   UNL     1     -43.555  55.624 -52.105  1.00  0.00    -0.350 N 
HETATM    8  C   UNL     1     -42.513  55.413 -51.229  1.00  0.00     0.252 C 
HETATM    9  O   UNL     1     -42.310  56.139 -50.259  1.00  0.00    -0.268 OA
HETATM   10  H   UNL     1     -43.567  55.152 -52.999  1.00  0.00     0.163 HD
BRANCH   8  11
HETATM   11  C   UNL     1     -41.593  54.275 -51.519  1.00  0.00     0.032 A 
HETATM   12  C   UNL     1     -41.382  53.775 -52.812  1.00  0.00     0.023 A 
HETATM   13  C   UNL     1     -40.483  52.718 -53.028  1.00  0.00    -0.061 A 
HETATM   14  C   UNL     1     -40.267  52.170 -54.409  1.00  0.00     0.048 C 
HETATM   15  C   UNL     1     -39.830  52.137 -51.934  1.00  0.00     0.007 A 
HETATM   16  C   UNL     1     -40.052  52.615 -50.643  1.00  0.00     0.002 A 
HETATM   17  C   UNL     1     -40.928  53.681 -50.436  1.00  0.00     0.017 A 
ENDBRANCH   8  11
ENDBRANCH   6   7
ENDBRANCH   3   6
BRANCH   2  18
HETATM   18  C   UNL     1     -42.249  59.047 -52.287  1.00  0.00     0.076 A 
HETATM   19  C   UNL     1     -42.536  59.887 -51.199  1.00  0.00     0.095 A 
HETATM   20  C   UNL     1     -41.515  60.189 -50.291  1.00  0.00     0.039 A 
HETATM   21  C   UNL     1     -40.226  59.680 -50.474  1.00  0.00     0.003 A 
HETATM   22  C   UNL     1     -39.946  58.857 -51.561  1.00  0.00     0.002 A 
HETATM   23  C   UNL     1     -40.953  58.538 -52.469  1.00  0.00     0.033 A 
BRANCH  19  24
HETATM   24  O   UNL     1     -43.836  60.274 -51.010  1.00  0.00    -0.354 OA
HETATM   25  C   UNL     1     -44.067  61.145 -49.906  1.00  0.00     0.210 C 
ENDBRANCH  19  24
ENDBRANCH   2  18
BRANCH   1  26
HETATM   26  S   UNL     1     -42.518  60.520 -55.218  1.00  0.00    -0.090 SA
BRANCH  26  27
HETATM   27  C   UNL     1     -43.018  60.295 -56.950  1.00  0.00     0.082 C 
BRANCH  27  28
HETATM   28  C   UNL     1     -41.880  59.648 -57.733  1.00  0.00     0.006 C 
HETATM   29  C   UNL     1     -42.175  58.184 -58.025  1.00  0.00     0.006 C 
ENDBRANCH  27  28
ENDBRANCH  26  27
ENDBRANCH   1  26
TORSDOF 8
ENDMDL
