MODEL 1
REMARK VINA RESULT:      -7.4      0.000      0.000
REMARK  6 active torsions:
REMARK  status: ('A' for Active; 'I' for Inactive)
REMARK    1  A    between atoms: C_2  and  N_3 
REMARK    2  A    between atoms: N_3  and  C_5 
REMARK    3  A    between atoms: N_3  and  C_26 
REMARK    4  A    between atoms: C_8  and  N_9 
REMARK       I    between atoms: N_9  and  C_10 
REMARK    5  A    between atoms: C_10  and  C_11 
REMARK    6  A    between atoms: C_19  and  O_20 
ROOT
HETATM    1  N   UNL     1     -42.962  55.172 -55.979  1.00  0.00    -0.321 N 
HETATM    2  C   UNL     1     -42.810  56.491 -56.385  1.00  0.00     0.280 C 
HETATM    3  O   UNL     1     -41.950  57.252 -55.955  1.00  0.00    -0.265 OA
HETATM    4  H   UNL     1     -43.802  54.727 -56.334  1.00  0.00     0.169 HD
ENDROOT
BRANCH   1   5
HETATM    5  C   UNL     1     -42.215  54.497 -55.001  1.00  0.00     0.035 A 
HETATM    6  C   UNL     1     -40.969  53.918 -55.237  1.00  0.00     0.032 A 
HETATM    7  C   UNL     1     -40.254  53.317 -54.194  1.00  0.00     0.039 A 
HETATM    8  C   UNL     1     -40.754  53.328 -52.889  1.00  0.00     0.134 A 
HETATM    9  C   UNL     1     -42.021  53.866 -52.661  1.00  0.00     0.039 A 
HETATM   10  C   UNL     1     -42.756  54.425 -53.716  1.00  0.00     0.032 A 
BRANCH   8  11
HETATM   11  N   UNL     1     -39.902  52.767 -51.801  1.00  0.00    -0.042 N 
HETATM   12  H   UNL     1     -39.024  53.297 -51.876  1.00  0.00     0.286 HD
BRANCH  11  13
HETATM   13  C   UNL     1     -40.468  53.057 -50.424  1.00  0.00     0.237 C 
HETATM   14  C   UNL     1     -39.719  54.181 -49.730  1.00  0.00     0.035 C 
ENDBRANCH  11  13
BRANCH  11  15
HETATM   15  C   UNL     1     -39.467  51.332 -52.029  1.00  0.00     0.237 C 
HETATM   16  C   UNL     1     -39.798  50.393 -50.875  1.00  0.00     0.035 C 
ENDBRANCH  11  15
ENDBRANCH   8  11
ENDBRANCH   1   5
BRANCH   2  17
HETATM   17  C   UNL     1     -43.840  56.905 -57.321  1.00  0.00     0.150 A 
HETATM   18  O   UNL     1     -44.772  57.820 -56.902  1.00  0.00    -0.304 OA
HETATM   19  C   UNL     1     -45.617  58.040 -57.943  1.00  0.00     0.087 A 
HETATM   20  C   UNL     1     -45.224  57.302 -59.050  1.00  0.00     0.009 A 
HETATM   21  C   UNL     1     -46.721  58.887 -57.919  1.00  0.00     0.041 A 
HETATM   22  C   UNL     1     -44.070  56.564 -58.647  1.00  0.00    -0.009 A 
HETATM   23  C   UNL     1     -45.979  57.431 -60.231  1.00  0.00     0.051 A 
HETATM   24  C   UNL     1     -43.259  55.634 -59.478  1.00  0.00     0.052 C 
HETATM   25  C   UNL     1     -47.099  58.277 -60.251  1.00  0.00     0.069 A 
HETATM   26  C   UNL     1     -47.463  58.990 -59.105  1.00  0.00     0.039 A 
BRANCH  25  27
HETATM   27  O   UNL     1     -47.748  58.316 -61.456  1.00  0.00    -0.356 OA
HETATM   28  C   UNL     1     -48.166  57.074 -62.010  1.00  0.00     0.210 C 
ENDBRANCH  25  27
ENDBRANCH   2  17
TORSDOF 6
ENDMDL
MODEL 2
REMARK VINA RESULT:      -7.2      2.926      3.627
REMARK  6 active torsions:
REMARK  status: ('A' for Active; 'I' for Inactive)
REMARK    1  A    between atoms: C_2  and  N_3 
REMARK    2  A    between atoms: N_3  and  C_5 
REMARK    3  A    between atoms: N_3  and  C_26 
REMARK    4  A    between atoms: C_8  and  N_9 
REMARK       I    between atoms: N_9  and  C_10 
REMARK    5  A    between atoms: C_10  and  C_11 
REMARK    6  A    between atoms: C_19  and  O_20 
ROOT
HETATM    1  N   UNL     1     -41.592  56.025 -55.728  1.00  0.00    -0.321 N 
HETATM    2  C   UNL     1     -42.532  55.994 -56.748  1.00  0.00     0.280 C 
HETATM    3  O   UNL     1     -43.358  55.101 -56.902  1.00  0.00    -0.265 OA
HETATM    4  H   UNL     1     -40.902  56.763 -55.826  1.00  0.00     0.169 HD
ENDROOT
BRANCH   1   5
HETATM    5  C   UNL     1     -41.385  55.049 -54.739  1.00  0.00     0.035 A 
HETATM    6  C   UNL     1     -40.424  54.044 -54.830  1.00  0.00     0.032 A 
HETATM    7  C   UNL     1     -40.233  53.145 -53.773  1.00  0.00     0.039 A 
HETATM    8  C   UNL     1     -40.969  53.269 -52.592  1.00  0.00     0.134 A 
HETATM    9  C   UNL     1     -41.963  54.245 -52.519  1.00  0.00     0.039 A 
HETATM   10  C   UNL     1     -42.185  55.114 -53.597  1.00  0.00     0.032 A 
BRANCH   8  11
HETATM   11  N   UNL     1     -40.650  52.349 -51.462  1.00  0.00    -0.042 N 
HETATM   12  H   UNL     1     -41.488  51.757 -51.379  1.00  0.00     0.286 HD
BRANCH  11  13
HETATM   13  C   UNL     1     -39.495  51.421 -51.789  1.00  0.00     0.237 C 
HETATM   14  C   UNL     1     -39.560  50.132 -50.988  1.00  0.00     0.035 C 
ENDBRANCH  11  13
BRANCH  11  15
HETATM   15  C   UNL     1     -40.566  53.029 -50.109  1.00  0.00     0.237 C 
HETATM   16  C   UNL     1     -39.441  54.051 -49.998  1.00  0.00     0.035 C 
ENDBRANCH  11  15
ENDBRANCH   8  11
ENDBRANCH   1   5
BRANCH   2  17
HETATM   17  C   UNL     1     -42.381  57.101 -57.676  1.00  0.00     0.150 A 
HETATM   18  O   UNL     1     -42.007  58.323 -57.178  1.00  0.00    -0.304 OA
HETATM   19  C   UNL     1     -41.937  59.182 -58.228  1.00  0.00     0.087 A 
HETATM   20  C   UNL     1     -42.230  58.524 -59.414  1.00  0.00     0.009 A 
HETATM   21  C   UNL     1     -41.614  60.534 -58.144  1.00  0.00     0.041 A 
HETATM   22  C   UNL     1     -42.519  57.172 -59.056  1.00  0.00    -0.009 A 
HETATM   23  C   UNL     1     -42.179  59.263 -60.610  1.00  0.00     0.051 A 
HETATM   24  C   UNL     1     -42.874  56.054 -59.970  1.00  0.00     0.052 C 
HETATM   25  C   UNL     1     -41.855  60.629 -60.569  1.00  0.00     0.069 A 
HETATM   26  C   UNL     1     -41.581  61.251 -59.348  1.00  0.00     0.039 A 
BRANCH  25  27
HETATM   27  O   UNL     1     -41.839  61.235 -61.797  1.00  0.00    -0.356 OA
HETATM   28  C   UNL     1     -40.952  62.334 -61.968  1.00  0.00     0.210 C 
ENDBRANCH  25  27
ENDBRANCH   2  17
TORSDOF 6
ENDMDL
MODEL 3
REMARK VINA RESULT:      -7.1      0.973      1.953
REMARK  6 active torsions:
REMARK  status: ('A' for Active; 'I' for Inactive)
REMARK    1  A    between atoms: C_2  and  N_3 
REMARK    2  A    between atoms: N_3  and  C_5 
REMARK    3  A    between atoms: N_3  and  C_26 
REMARK    4  A    between atoms: C_8  and  N_9 
REMARK       I    between atoms: N_9  and  C_10 
REMARK    5  A    between atoms: C_10  and  C_11 
REMARK    6  A    between atoms: C_19  and  O_20 
ROOT
HETATM    1  N   UNL     1     -43.073  55.214 -56.205  1.00  0.00    -0.321 N 
HETATM    2  C   UNL     1     -42.935  56.453 -56.816  1.00  0.00     0.280 C 
HETATM    3  O   UNL     1     -42.083  57.282 -56.516  1.00  0.00    -0.265 OA
HETATM    4  H   UNL     1     -43.909  54.710 -56.482  1.00  0.00     0.169 HD
ENDROOT
BRANCH   1   5
HETATM    5  C   UNL     1     -42.318  54.711 -55.134  1.00  0.00     0.035 A 
HETATM    6  C   UNL     1     -42.807  54.574 -53.836  1.00  0.00     0.032 A 
HETATM    7  C   UNL     1     -42.014  54.003 -52.833  1.00  0.00     0.039 A 
HETATM    8  C   UNL     1     -40.736  53.520 -53.125  1.00  0.00     0.134 A 
HETATM    9  C   UNL     1     -40.228  53.699 -54.412  1.00  0.00     0.039 A 
HETATM   10  C   UNL     1     -41.007  54.314 -55.403  1.00  0.00     0.032 A 
BRANCH   8  11
HETATM   11  N   UNL     1     -39.978  52.828 -52.042  1.00  0.00    -0.042 N 
HETATM   12  H   UNL     1     -39.109  53.373 -51.960  1.00  0.00     0.286 HD
BRANCH  11  13
HETATM   13  C   UNL     1     -40.679  52.928 -50.701  1.00  0.00     0.237 C 
HETATM   14  C   UNL     1     -39.951  53.861 -49.749  1.00  0.00     0.035 C 
ENDBRANCH  11  13
BRANCH  11  15
HETATM   15  C   UNL     1     -39.490  51.441 -52.411  1.00  0.00     0.237 C 
HETATM   16  C   UNL     1     -39.600  50.424 -51.281  1.00  0.00     0.035 C 
ENDBRANCH  11  15
ENDBRANCH   8  11
ENDBRANCH   1   5
BRANCH   2  17
HETATM   17  C   UNL     1     -43.970  56.703 -57.804  1.00  0.00     0.150 A 
HETATM   18  O   UNL     1     -44.165  55.775 -58.794  1.00  0.00    -0.304 OA
HETATM   19  C   UNL     1     -45.172  56.231 -59.583  1.00  0.00     0.087 A 
HETATM   20  C   UNL     1     -45.660  57.436 -59.097  1.00  0.00     0.009 A 
HETATM   21  C   UNL     1     -45.659  55.591 -60.719  1.00  0.00     0.041 A 
HETATM   22  C   UNL     1     -44.879  57.744 -57.942  1.00  0.00    -0.009 A 
HETATM   23  C   UNL     1     -46.729  58.041 -59.784  1.00  0.00     0.051 A 
HETATM   24  C   UNL     1     -45.019  58.923 -57.047  1.00  0.00     0.052 C 
HETATM   25  C   UNL     1     -47.252  57.426 -60.933  1.00  0.00     0.069 A 
HETATM   26  C   UNL     1     -46.717  56.219 -61.392  1.00  0.00     0.039 A 
BRANCH  25  27
HETATM   27  O   UNL     1     -48.287  58.113 -61.510  1.00  0.00    -0.356 OA
HETATM   28  C   UNL     1     -48.958  57.486 -62.596  1.00  0.00     0.210 C 
ENDBRANCH  25  27
ENDBRANCH   2  17
TORSDOF 6
ENDMDL
MODEL 4
REMARK VINA RESULT:      -7.1      5.419      9.245
REMARK  6 active torsions:
REMARK  status: ('A' for Active; 'I' for Inactive)
REMARK    1  A    between atoms: C_2  and  N_3 
REMARK    2  A    between atoms: N_3  and  C_5 
REMARK    3  A    between atoms: N_3  and  C_26 
REMARK    4  A    between atoms: C_8  and  N_9 
REMARK       I    between atoms: N_9  and  C_10 
REMARK    5  A    between atoms: C_10  and  C_11 
REMARK    6  A    between atoms: C_19  and  O_20 
ROOT
HETATM    1  N   UNL     1     -42.979  57.246 -51.809  1.00  0.00    -0.321 N 
HETATM    2  C   UNL     1     -43.279  56.443 -52.901  1.00  0.00     0.280 C 
HETATM    3  O   UNL     1     -44.206  56.647 -53.677  1.00  0.00    -0.265 OA
HETATM    4  H   UNL     1     -42.266  56.860 -51.198  1.00  0.00     0.169 HD
ENDROOT
BRANCH   1   5
HETATM    5  C   UNL     1     -43.684  58.379 -51.374  1.00  0.00     0.035 A 
HETATM    6  C   UNL     1     -45.019  58.356 -50.973  1.00  0.00     0.032 A 
HETATM    7  C   UNL     1     -45.637  59.516 -50.490  1.00  0.00     0.039 A 
HETATM    8  C   UNL     1     -44.914  60.705 -50.358  1.00  0.00     0.134 A 
HETATM    9  C   UNL     1     -43.593  60.741 -50.803  1.00  0.00     0.039 A 
HETATM   10  C   UNL     1     -42.990  59.590 -51.330  1.00  0.00     0.032 A 
BRANCH   8  11
HETATM   11  N   UNL     1     -45.595  61.880 -49.740  1.00  0.00    -0.042 N 
HETATM   12  H   UNL     1     -44.853  62.589 -49.672  1.00  0.00     0.286 HD
BRANCH  11  13
HETATM   13  C   UNL     1     -46.667  62.460 -50.644  1.00  0.00     0.237 C 
HETATM   14  C   UNL     1     -46.118  63.554 -51.543  1.00  0.00     0.035 C 
ENDBRANCH  11  13
BRANCH  11  15
HETATM   15  C   UNL     1     -46.014  61.670 -48.298  1.00  0.00     0.237 C 
HETATM   16  C   UNL     1     -44.852  61.400 -47.349  1.00  0.00     0.035 C 
ENDBRANCH  11  15
ENDBRANCH   8  11
ENDBRANCH   1   5
BRANCH   2  17
HETATM   17  C   UNL     1     -42.420  55.274 -52.982  1.00  0.00     0.150 A 
HETATM   18  O   UNL     1     -41.739  54.885 -51.857  1.00  0.00    -0.304 OA
HETATM   19  C   UNL     1     -41.014  53.785 -52.185  1.00  0.00     0.087 A 
HETATM   20  C   UNL     1     -41.241  53.431 -53.507  1.00  0.00     0.009 A 
HETATM   21  C   UNL     1     -40.162  53.095 -51.326  1.00  0.00     0.041 A 
HETATM   22  C   UNL     1     -42.154  54.398 -54.026  1.00  0.00    -0.009 A 
HETATM   23  C   UNL     1     -40.584  52.291 -54.008  1.00  0.00     0.051 A 
HETATM   24  C   UNL     1     -42.728  54.452 -55.397  1.00  0.00     0.052 C 
HETATM   25  C   UNL     1     -39.718  51.566 -53.174  1.00  0.00     0.069 A 
HETATM   26  C   UNL     1     -39.511  51.970 -51.852  1.00  0.00     0.039 A 
BRANCH  25  27
HETATM   27  O   UNL     1     -39.141  50.480 -53.778  1.00  0.00    -0.356 OA
HETATM   28  C   UNL     1     -39.930  49.768 -54.723  1.00  0.00     0.210 C 
ENDBRANCH  25  27
ENDBRANCH   2  17
TORSDOF 6
ENDMDL
MODEL 5
REMARK VINA RESULT:      -7.0      5.522      9.300
REMARK  6 active torsions:
REMARK  status: ('A' for Active; 'I' for Inactive)
REMARK    1  A    between atoms: C_2  and  N_3 
REMARK    2  A    between atoms: N_3  and  C_5 
REMARK    3  A    between atoms: N_3  and  C_26 
REMARK    4  A    between atoms: C_8  and  N_9 
REMARK       I    between atoms: N_9  and  C_10 
REMARK    5  A    between atoms: C_10  and  C_11 
REMARK    6  A    between atoms: C_19  and  O_20 
ROOT
HETATM    1  N   UNL     1     -43.045  57.219 -51.816  1.00  0.00    -0.321 N 
HETATM    2  C   UNL     1     -43.309  56.440 -52.935  1.00  0.00     0.280 C 
HETATM    3  O   UNL     1     -44.218  56.654 -53.730  1.00  0.00    -0.265 OA
HETATM    4  H   UNL     1     -42.345  56.825 -51.196  1.00  0.00     0.169 HD
ENDROOT
BRANCH   1   5
HETATM    5  C   UNL     1     -43.773  58.335 -51.373  1.00  0.00     0.035 A 
HETATM    6  C   UNL     1     -45.121  58.293 -51.020  1.00  0.00     0.032 A 
HETATM    7  C   UNL     1     -45.763  59.435 -50.525  1.00  0.00     0.039 A 
HETATM    8  C   UNL     1     -45.053  60.623 -50.332  1.00  0.00     0.134 A 
HETATM    9  C   UNL     1     -43.717  60.679 -50.729  1.00  0.00     0.039 A 
HETATM   10  C   UNL     1     -43.088  59.547 -51.269  1.00  0.00     0.032 A 
BRANCH   8  11
HETATM   11  N   UNL     1     -45.762  61.775 -49.704  1.00  0.00    -0.042 N 
HETATM   12  H   UNL     1     -46.479  61.333 -49.113  1.00  0.00     0.286 HD
BRANCH  11  13
HETATM   13  C   UNL     1     -44.861  62.564 -48.775  1.00  0.00     0.237 C 
HETATM   14  C   UNL     1     -45.091  62.200 -47.318  1.00  0.00     0.035 C 
ENDBRANCH  11  13
BRANCH  11  15
HETATM   15  C   UNL     1     -46.575  62.610 -50.675  1.00  0.00     0.237 C 
HETATM   16  C   UNL     1     -46.054  64.031 -50.856  1.00  0.00     0.035 C 
ENDBRANCH  11  15
ENDBRANCH   8  11
ENDBRANCH   1   5
BRANCH   2  17
HETATM   17  C   UNL     1     -42.438  55.281 -53.021  1.00  0.00     0.150 A 
HETATM   18  O   UNL     1     -41.790  54.865 -51.886  1.00  0.00    -0.304 OA
HETATM   19  C   UNL     1     -41.044  53.781 -52.222  1.00  0.00     0.087 A 
HETATM   20  C   UNL     1     -41.224  53.464 -53.560  1.00  0.00     0.009 A 
HETATM   21  C   UNL     1     -40.214  53.074 -51.356  1.00  0.00     0.041 A 
HETATM   22  C   UNL     1     -42.129  54.438 -54.081  1.00  0.00    -0.009 A 
HETATM   23  C   UNL     1     -40.541  52.345 -54.072  1.00  0.00     0.051 A 
HETATM   24  C   UNL     1     -42.658  54.527 -55.468  1.00  0.00     0.052 C 
HETATM   25  C   UNL     1     -39.696  51.603 -53.231  1.00  0.00     0.069 A 
HETATM   26  C   UNL     1     -39.536  51.970 -51.892  1.00  0.00     0.039 A 
BRANCH  25  27
HETATM   27  O   UNL     1     -39.090  50.540 -53.847  1.00  0.00    -0.356 OA
HETATM   28  C   UNL     1     -39.892  49.747 -54.712  1.00  0.00     0.210 C 
ENDBRANCH  25  27
ENDBRANCH   2  17
TORSDOF 6
ENDMDL
MODEL 6
REMARK VINA RESULT:      -7.0      4.878      9.492
REMARK  6 active torsions:
REMARK  status: ('A' for Active; 'I' for Inactive)
REMARK    1  A    between atoms: C_2  and  N_3 
REMARK    2  A    between atoms: N_3  and  C_5 
REMARK    3  A    between atoms: N_3  and  C_26 
REMARK    4  A    between atoms: C_8  and  N_9 
REMARK       I    between atoms: N_9  and  C_10 
REMARK    5  A    between atoms: C_10  and  C_11 
REMARK    6  A    between atoms: C_19  and  O_20 
ROOT
HETATM    1  N   UNL     1     -43.583  56.891 -52.246  1.00  0.00    -0.321 N 
HETATM    2  C   UNL     1     -42.200  56.956 -52.156  1.00  0.00     0.280 C 
HETATM    3  O   UNL     1     -41.566  57.987 -51.957  1.00  0.00    -0.265 OA
HETATM    4  H   UNL     1     -43.934  55.987 -52.546  1.00  0.00     0.169 HD
ENDROOT
BRANCH   1   5
HETATM    5  C   UNL     1     -44.486  57.964 -52.175  1.00  0.00     0.035 A 
HETATM    6  C   UNL     1     -45.162  58.333 -51.013  1.00  0.00     0.032 A 
HETATM    7  C   UNL     1     -45.999  59.456 -51.003  1.00  0.00     0.039 A 
HETATM    8  C   UNL     1     -46.134  60.253 -52.143  1.00  0.00     0.134 A 
HETATM    9  C   UNL     1     -45.495  59.857 -53.318  1.00  0.00     0.039 A 
HETATM   10  C   UNL     1     -44.696  58.705 -53.339  1.00  0.00     0.032 A 
BRANCH   8  11
HETATM   11  N   UNL     1     -46.956  61.494 -52.043  1.00  0.00    -0.042 N 
HETATM   12  H   UNL     1     -47.913  61.147 -51.894  1.00  0.00     0.286 HD
BRANCH  11  13
HETATM   13  C   UNL     1     -46.599  62.318 -50.821  1.00  0.00     0.237 C 
HETATM   14  C   UNL     1     -45.444  63.265 -51.094  1.00  0.00     0.035 C 
ENDBRANCH  11  13
BRANCH  11  15
HETATM   15  C   UNL     1     -47.063  62.275 -53.338  1.00  0.00     0.237 C 
HETATM   16  C   UNL     1     -48.495  62.592 -53.753  1.00  0.00     0.035 C 
ENDBRANCH  11  15
ENDBRANCH   8  11
ENDBRANCH   1   5
BRANCH   2  17
HETATM   17  C   UNL     1     -41.566  55.673 -52.408  1.00  0.00     0.150 A 
HETATM   18  O   UNL     1     -41.205  54.901 -51.333  1.00  0.00    -0.304 OA
HETATM   19  C   UNL     1     -40.638  53.768 -51.823  1.00  0.00     0.087 A 
HETATM   20  C   UNL     1     -40.655  53.778 -53.210  1.00  0.00     0.009 A 
HETATM   21  C   UNL     1     -40.114  52.732 -51.055  1.00  0.00     0.041 A 
HETATM   22  C   UNL     1     -41.257  55.015 -53.592  1.00  0.00    -0.009 A 
HETATM   23  C   UNL     1     -40.127  52.662 -53.885  1.00  0.00     0.051 A 
HETATM   24  C   UNL     1     -41.525  55.500 -54.972  1.00  0.00     0.052 C 
HETATM   25  C   UNL     1     -39.590  51.594 -53.148  1.00  0.00     0.069 A 
HETATM   26  C   UNL     1     -39.584  51.637 -51.751  1.00  0.00     0.039 A 
BRANCH  25  27
HETATM   27  O   UNL     1     -39.108  50.570 -53.919  1.00  0.00    -0.356 OA
HETATM   28  C   UNL     1     -40.060  49.792 -54.634  1.00  0.00     0.210 C 
ENDBRANCH  25  27
ENDBRANCH   2  17
TORSDOF 6
ENDMDL
MODEL 7
REMARK VINA RESULT:      -7.0      5.148      9.945
REMARK  6 active torsions:
REMARK  status: ('A' for Active; 'I' for Inactive)
REMARK    1  A    between atoms: C_2  and  N_3 
REMARK    2  A    between atoms: N_3  and  C_5 
REMARK    3  A    between atoms: N_3  and  C_26 
REMARK    4  A    between atoms: C_8  and  N_9 
REMARK       I    between atoms: N_9  and  C_10 
REMARK    5  A    between atoms: C_10  and  C_11 
REMARK    6  A    between atoms: C_19  and  O_20 
ROOT
HETATM    1  N   UNL     1     -43.679  56.919 -51.880  1.00  0.00    -0.321 N 
HETATM    2  C   UNL     1     -42.323  56.919 -51.584  1.00  0.00     0.280 C 
HETATM    3  O   UNL     1     -41.688  57.912 -51.246  1.00  0.00    -0.265 OA
HETATM    4  H   UNL     1     -44.016  56.044 -52.270  1.00  0.00     0.169 HD
ENDROOT
BRANCH   1   5
HETATM    5  C   UNL     1     -44.541  58.028 -51.892  1.00  0.00     0.035 A 
HETATM    6  C   UNL     1     -45.258  58.465 -50.779  1.00  0.00     0.032 A 
HETATM    7  C   UNL     1     -46.049  59.619 -50.851  1.00  0.00     0.039 A 
HETATM    8  C   UNL     1     -46.097  60.377 -52.025  1.00  0.00     0.134 A 
HETATM    9  C   UNL     1     -45.417  59.914 -53.151  1.00  0.00     0.039 A 
HETATM   10  C   UNL     1     -44.664  58.733 -53.091  1.00  0.00     0.032 A 
BRANCH   8  11
HETATM   11  N   UNL     1     -46.872  61.651 -52.010  1.00  0.00    -0.042 N 
HETATM   12  H   UNL     1     -47.735  61.411 -51.503  1.00  0.00     0.286 HD
BRANCH  11  13
HETATM   13  C   UNL     1     -46.181  62.732 -51.202  1.00  0.00     0.237 C 
HETATM   14  C   UNL     1     -46.937  63.055 -49.925  1.00  0.00     0.035 C 
ENDBRANCH  11  13
BRANCH  11  15
HETATM   15  C   UNL     1     -47.377  62.089 -53.372  1.00  0.00     0.237 C 
HETATM   16  C   UNL     1     -48.870  62.395 -53.410  1.00  0.00     0.035 C 
ENDBRANCH  11  15
ENDBRANCH   8  11
ENDBRANCH   1   5
BRANCH   2  17
HETATM   17  C   UNL     1     -41.709  55.620 -51.800  1.00  0.00     0.150 A 
HETATM   18  O   UNL     1     -41.404  55.249 -53.084  1.00  0.00    -0.304 OA
HETATM   19  C   UNL     1     -40.849  54.010 -53.025  1.00  0.00     0.087 A 
HETATM   20  C   UNL     1     -40.758  53.582 -51.708  1.00  0.00     0.009 A 
HETATM   21  C   UNL     1     -40.422  53.265 -54.120  1.00  0.00     0.041 A 
HETATM   22  C   UNL     1     -41.318  54.627 -50.911  1.00  0.00    -0.009 A 
HETATM   23  C   UNL     1     -40.181  52.323 -51.461  1.00  0.00     0.051 A 
HETATM   24  C   UNL     1     -41.439  54.665 -49.430  1.00  0.00     0.052 C 
HETATM   25  C   UNL     1     -39.735  51.540 -52.538  1.00  0.00     0.069 A 
HETATM   26  C   UNL     1     -39.861  52.009 -53.848  1.00  0.00     0.039 A 
BRANCH  25  27
HETATM   27  O   UNL     1     -39.194  50.338 -52.166  1.00  0.00    -0.356 OA
HETATM   28  C   UNL     1     -39.536  49.842 -50.878  1.00  0.00     0.210 C 
ENDBRANCH  25  27
ENDBRANCH   2  17
TORSDOF 6
ENDMDL
MODEL 8
REMARK VINA RESULT:      -6.9      5.621     10.011
REMARK  6 active torsions:
REMARK  status: ('A' for Active; 'I' for Inactive)
REMARK    1  A    between atoms: C_2  and  N_3 
REMARK    2  A    between atoms: N_3  and  C_5 
REMARK    3  A    between atoms: N_3  and  C_26 
REMARK    4  A    between atoms: C_8  and  N_9 
REMARK       I    between atoms: N_9  and  C_10 
REMARK    5  A    between atoms: C_10  and  C_11 
REMARK    6  A    between atoms: C_19  and  O_20 
ROOT
HETATM    1  N   UNL     1     -43.145  57.299 -51.674  1.00  0.00    -0.321 N 
HETATM    2  C   UNL     1     -41.891  57.056 -51.132  1.00  0.00     0.280 C 
HETATM    3  O   UNL     1     -41.234  57.882 -50.507  1.00  0.00    -0.265 OA
HETATM    4  H   UNL     1     -43.487  56.553 -52.271  1.00  0.00     0.169 HD
ENDROOT
BRANCH   1   5
HETATM    5  C   UNL     1     -43.857  58.509 -51.650  1.00  0.00     0.035 A 
HETATM    6  C   UNL     1     -43.455  59.659 -52.329  1.00  0.00     0.032 A 
HETATM    7  C   UNL     1     -44.252  60.811 -52.310  1.00  0.00     0.039 A 
HETATM    8  C   UNL     1     -45.484  60.814 -51.649  1.00  0.00     0.134 A 
HETATM    9  C   UNL     1     -45.863  59.679 -50.931  1.00  0.00     0.039 A 
HETATM   10  C   UNL     1     -45.042  58.543 -50.913  1.00  0.00     0.032 A 
BRANCH   8  11
HETATM   11  N   UNL     1     -46.336  62.034 -51.751  1.00  0.00    -0.042 N 
HETATM   12  H   UNL     1     -45.712  62.738 -52.168  1.00  0.00     0.286 HD
BRANCH  11  13
HETATM   13  C   UNL     1     -47.487  61.847 -52.720  1.00  0.00     0.237 C 
HETATM   14  C   UNL     1     -48.634  62.799 -52.426  1.00  0.00     0.035 C 
ENDBRANCH  11  13
BRANCH  11  15
HETATM   15  C   UNL     1     -46.711  62.644 -50.415  1.00  0.00     0.237 C 
HETATM   16  C   UNL     1     -45.536  63.262 -49.664  1.00  0.00     0.035 C 
ENDBRANCH  11  15
ENDBRANCH   8  11
ENDBRANCH   1   5
BRANCH   2  17
HETATM   17  C   UNL     1     -41.393  55.731 -51.457  1.00  0.00     0.150 A 
HETATM   18  O   UNL     1     -41.214  55.407 -52.778  1.00  0.00    -0.304 OA
HETATM   19  C   UNL     1     -40.750  54.131 -52.821  1.00  0.00     0.087 A 
HETATM   20  C   UNL     1     -40.593  53.629 -51.538  1.00  0.00     0.009 A 
HETATM   21  C   UNL     1     -40.465  53.416 -53.981  1.00  0.00     0.041 A 
HETATM   22  C   UNL     1     -41.011  54.667 -50.651  1.00  0.00    -0.009 A 
HETATM   23  C   UNL     1     -40.094  52.321 -51.397  1.00  0.00     0.051 A 
HETATM   24  C   UNL     1     -41.017  54.635 -49.164  1.00  0.00     0.052 C 
HETATM   25  C   UNL     1     -39.791  51.566 -52.542  1.00  0.00     0.069 A 
HETATM   26  C   UNL     1     -39.979  52.112 -53.815  1.00  0.00     0.039 A 
BRANCH  25  27
HETATM   27  O   UNL     1     -39.314  50.311 -52.272  1.00  0.00    -0.356 OA
HETATM   28  C   UNL     1     -39.497  49.817 -50.951  1.00  0.00     0.210 C 
ENDBRANCH  25  27
ENDBRANCH   2  17
TORSDOF 6
ENDMDL
MODEL 9
REMARK VINA RESULT:      -6.8      5.430      9.423
REMARK  6 active torsions:
REMARK  status: ('A' for Active; 'I' for Inactive)
REMARK    1  A    between atoms: C_2  and  N_3 
REMARK    2  A    between atoms: N_3  and  C_5 
REMARK    3  A    between atoms: N_3  and  C_26 
REMARK    4  A    between atoms: C_8  and  N_9 
REMARK       I    between atoms: N_9  and  C_10 
REMARK    5  A    between atoms: C_10  and  C_11 
REMARK    6  A    between atoms: C_19  and  O_20 
ROOT
HETATM    1  N   UNL     1     -41.750  57.759 -52.537  1.00  0.00    -0.321 N 
HETATM    2  C   UNL     1     -42.609  56.688 -52.736  1.00  0.00     0.280 C 
HETATM    3  O   UNL     1     -43.832  56.778 -52.777  1.00  0.00    -0.265 OA
HETATM    4  H   UNL     1     -40.782  57.490 -52.397  1.00  0.00     0.169 HD
ENDROOT
BRANCH   1   5
HETATM    5  C   UNL     1     -42.107  59.098 -52.307  1.00  0.00     0.035 A 
HETATM    6  C   UNL     1     -42.484  59.984 -53.315  1.00  0.00     0.032 A 
HETATM    7  C   UNL     1     -42.890  61.287 -53.001  1.00  0.00     0.039 A 
HETATM    8  C   UNL     1     -42.969  61.707 -51.670  1.00  0.00     0.134 A 
HETATM    9  C   UNL     1     -42.547  60.836 -50.665  1.00  0.00     0.039 A 
HETATM   10  C   UNL     1     -42.096  59.547 -50.986  1.00  0.00     0.032 A 
BRANCH   8  11
HETATM   11  N   UNL     1     -43.507  63.070 -51.390  1.00  0.00    -0.042 N 
HETATM   12  H   UNL     1     -44.494  62.903 -51.152  1.00  0.00     0.286 HD
BRANCH  11  13
HETATM   13  C   UNL     1     -42.866  63.697 -50.167  1.00  0.00     0.237 C 
HETATM   14  C   UNL     1     -43.891  64.018 -49.093  1.00  0.00     0.035 C 
ENDBRANCH  11  13
BRANCH  11  15
HETATM   15  C   UNL     1     -43.587  63.969 -52.608  1.00  0.00     0.237 C 
HETATM   16  C   UNL     1     -44.996  64.458 -52.926  1.00  0.00     0.035 C 
ENDBRANCH  11  15
ENDBRANCH   8  11
ENDBRANCH   1   5
BRANCH   2  17
HETATM   17  C   UNL     1     -41.906  55.419 -52.808  1.00  0.00     0.150 A 
HETATM   18  O   UNL     1     -41.260  54.966 -51.686  1.00  0.00    -0.304 OA
HETATM   19  C   UNL     1     -40.684  53.778 -52.004  1.00  0.00     0.087 A 
HETATM   20  C   UNL     1     -40.976  53.433 -53.316  1.00  0.00     0.009 A 
HETATM   21  C   UNL     1     -39.911  53.001 -51.145  1.00  0.00     0.041 A 
HETATM   22  C   UNL     1     -41.769  54.499 -53.839  1.00  0.00    -0.009 A 
HETATM   23  C   UNL     1     -40.476  52.212 -53.805  1.00  0.00     0.051 A 
HETATM   24  C   UNL     1     -42.355  54.601 -55.202  1.00  0.00     0.052 C 
HETATM   25  C   UNL     1     -39.694  51.397 -52.970  1.00  0.00     0.069 A 
HETATM   26  C   UNL     1     -39.416  51.795 -51.659  1.00  0.00     0.039 A 
BRANCH  25  27
HETATM   27  O   UNL     1     -39.268  50.238 -53.562  1.00  0.00    -0.356 OA
HETATM   28  C   UNL     1     -39.931  49.836 -54.754  1.00  0.00     0.210 C 
ENDBRANCH  25  27
ENDBRANCH   2  17
TORSDOF 6
ENDMDL
MODEL 10
REMARK VINA RESULT:      -6.7      2.968      3.962
REMARK  6 active torsions:
REMARK  status: ('A' for Active; 'I' for Inactive)
REMARK    1  A    between atoms: C_2  and  N_3 
REMARK    2  A    between atoms: N_3  and  C_5 
REMARK    3  A    between atoms: N_3  and  C_26 
REMARK    4  A    between atoms: C_8  and  N_9 
REMARK       I    between atoms: N_9  and  C_10 
REMARK    5  A    between atoms: C_10  and  C_11 
REMARK    6  A    between atoms: C_19  and  O_20 
ROOT
HETATM    1  N   UNL     1     -41.736  56.293 -55.810  1.00  0.00    -0.321 N 
HETATM    2  C   UNL     1     -42.593  56.232 -56.900  1.00  0.00     0.280 C 
HETATM    3  O   UNL     1     -43.207  55.228 -57.243  1.00  0.00    -0.265 OA
HETATM    4  H   UNL     1     -41.209  57.159 -55.749  1.00  0.00     0.169 HD
ENDROOT
BRANCH   1   5
HETATM    5  C   UNL     1     -41.386  55.240 -54.950  1.00  0.00     0.035 A 
HETATM    6  C   UNL     1     -42.105  54.901 -53.805  1.00  0.00     0.032 A 
HETATM    7  C   UNL     1     -41.732  53.796 -53.031  1.00  0.00     0.039 A 
HETATM    8  C   UNL     1     -40.660  52.985 -53.418  1.00  0.00     0.134 A 
HETATM    9  C   UNL     1     -39.912  53.351 -54.537  1.00  0.00     0.039 A 
HETATM   10  C   UNL     1     -40.259  54.486 -55.284  1.00  0.00     0.032 A 
BRANCH   8  11
HETATM   11  N   UNL     1     -40.374  51.763 -52.613  1.00  0.00    -0.042 N 
HETATM   12  H   UNL     1     -41.283  51.284 -52.557  1.00  0.00     0.286 HD
BRANCH  11  13
HETATM   13  C   UNL     1     -39.429  50.816 -53.328  1.00  0.00     0.237 C 
HETATM   14  C   UNL     1     -40.174  49.844 -54.226  1.00  0.00     0.035 C 
ENDBRANCH  11  13
BRANCH  11  15
HETATM   15  C   UNL     1     -40.033  52.039 -51.161  1.00  0.00     0.237 C 
HETATM   16  C   UNL     1     -40.221  50.838 -50.241  1.00  0.00     0.035 C 
ENDBRANCH  11  15
ENDBRANCH   8  11
ENDBRANCH   1   5
BRANCH   2  17
HETATM   17  C   UNL     1     -42.623  57.475 -57.652  1.00  0.00     0.150 A 
HETATM   18  O   UNL     1     -42.164  57.466 -58.944  1.00  0.00    -0.304 OA
HETATM   19  C   UNL     1     -42.292  58.730 -59.426  1.00  0.00     0.087 A 
HETATM   20  C   UNL     1     -42.863  59.558 -58.470  1.00  0.00     0.009 A 
HETATM   21  C   UNL     1     -41.913  59.150 -60.698  1.00  0.00     0.041 A 
HETATM   22  C   UNL     1     -43.078  58.743 -57.317  1.00  0.00    -0.009 A 
HETATM   23  C   UNL     1     -43.092  60.903 -58.813  1.00  0.00     0.051 A 
HETATM   24  C   UNL     1     -43.686  59.154 -56.023  1.00  0.00     0.052 C 
HETATM   25  C   UNL     1     -42.727  61.367 -60.087  1.00  0.00     0.069 A 
HETATM   26  C   UNL     1     -42.142  60.497 -61.012  1.00  0.00     0.039 A 
BRANCH  25  27
HETATM   27  O   UNL     1     -43.001  62.692 -60.297  1.00  0.00    -0.356 OA
HETATM   28  C   UNL     1     -42.259  63.638 -59.537  1.00  0.00     0.210 C 
ENDBRANCH  25  27
ENDBRANCH   2  17
TORSDOF 6
ENDMDL
