MODEL 1
REMARK VINA RESULT:      -8.8      0.000      0.000
REMARK  8 active torsions:
REMARK  status: ('A' for Active; 'I' for Inactive)
REMARK    1  A    between atoms: C_3  and  N_4 
REMARK       I    between atoms: N_4  and  C_5 
REMARK    2  A    between atoms: C_5  and  C_6 
REMARK    3  A    between atoms: C_7  and  C_8 
REMARK    4  A    between atoms: C_11  and  C_12 
REMARK    5  A    between atoms: C_21  and  C_22 
REMARK    6  A    between atoms: C_22  and  C_23 
REMARK    7  A    between atoms: C_23  and  C_24 
REMARK    8  A    between atoms: C_24  and  O_25 
ROOT
HETATM    1  C   UNL     1     -43.099  56.897 -54.133  1.00  0.00     0.062 A 
HETATM    2  C   UNL     1     -43.172  55.826 -55.216  1.00  0.00     0.202 A 
HETATM    3  N   UNL     1     -43.006  56.408 -56.555  1.00  0.00    -0.083 N 
HETATM    4  C   UNL     1     -42.886  57.751 -56.794  1.00  0.00     0.726 A 
HETATM    5  N   UNL     1     -42.878  58.611 -55.760  1.00  0.00    -0.192 N 
HETATM    6  N   UNL     1     -43.104  55.714 -57.711  1.00  0.00    -0.140 NA
HETATM    7  C   UNL     1     -42.923  56.695 -58.608  1.00  0.00     0.166 A 
HETATM    8  N   UNL     1     -42.806  57.960 -58.082  1.00  0.00    -0.046 NA
HETATM    9  C   UNL     1     -42.954  58.210 -54.432  1.00  0.00     0.037 A 
HETATM   10  C   UNL     1     -42.871  59.314 -53.407  1.00  0.00     0.070 C 
HETATM   11  H   UNL     1     -42.736  59.599 -55.948  1.00  0.00     0.184 HD
ENDROOT
BRANCH   1  12
HETATM   12  C   UNL     1     -43.061  56.440 -52.721  1.00  0.00     0.256 C 
HETATM   13  N   UNL     1     -41.887  55.796 -52.394  1.00  0.00    -0.323 N 
HETATM   14  H   UNL     1     -41.235  55.622 -53.144  1.00  0.00     0.169 HD
HETATM   15  O   UNL     1     -44.037  56.632 -52.007  1.00  0.00    -0.267 OA
BRANCH  13  16
HETATM   16  C   UNL     1     -41.512  55.297 -51.121  1.00  0.00     0.041 A 
HETATM   17  C   UNL     1     -41.165  56.213 -50.102  1.00  0.00    -0.035 A 
HETATM   18  C   UNL     1     -41.179  57.703 -50.313  1.00  0.00     0.050 C 
HETATM   19  C   UNL     1     -40.803  55.728 -48.831  1.00  0.00     0.009 A 
HETATM   20  C   UNL     1     -40.778  54.361 -48.565  1.00  0.00     0.001 A 
HETATM   21  C   UNL     1     -41.122  53.461 -49.565  1.00  0.00     0.002 A 
HETATM   22  C   UNL     1     -41.488  53.927 -50.830  1.00  0.00     0.030 A 
ENDBRANCH  13  16
ENDBRANCH   1  12
BRANCH   2  23
HETATM   23  C   UNL     1     -42.205  54.671 -54.998  1.00  0.00    -0.028 A 
HETATM   24  C   UNL     1     -42.694  53.419 -54.595  1.00  0.00     0.010 A 
HETATM   25  C   UNL     1     -41.820  52.361 -54.334  1.00  0.00     0.008 A 
HETATM   26  C   UNL     1     -40.436  52.524 -54.471  1.00  0.00    -0.055 A 
HETATM   27  C   UNL     1     -39.948  53.770 -54.891  1.00  0.00     0.008 A 
HETATM   28  C   UNL     1     -40.820  54.830 -55.155  1.00  0.00     0.010 A 
BRANCH  26  29
HETATM   29  C   UNL     1     -39.506  51.370 -54.143  1.00  0.00     0.010 C 
HETATM   30  C   UNL     1     -39.182  51.302 -52.650  1.00  0.00     0.015 C 
HETATM   31  C   UNL     1     -40.077  50.040 -54.641  1.00  0.00     0.015 C 
ENDBRANCH  26  29
ENDBRANCH   2  23
BRANCH   7  32
HETATM   32  C   UNL     1     -42.851  56.441 -60.069  1.00  0.00     0.085 C 
BRANCH  32  33
HETATM   33  C   UNL     1     -44.223  56.383 -60.735  1.00  0.00     0.034 C 
BRANCH  33  34
HETATM   34  C   UNL     1     -44.814  54.978 -60.764  1.00  0.00     0.164 C 
BRANCH  34  35
HETATM   35  O   UNL     1     -44.878  54.516 -62.111  1.00  0.00    -0.401 OA
HETATM   36  H   UNL     1     -45.795  54.616 -62.412  1.00  0.00     0.209 HD
ENDBRANCH  34  35
ENDBRANCH  33  34
ENDBRANCH  32  33
ENDBRANCH   7  32
TORSDOF 8
ENDMDL
MODEL 2
REMARK VINA RESULT:      -8.7      3.005      6.836
REMARK  8 active torsions:
REMARK  status: ('A' for Active; 'I' for Inactive)
REMARK    1  A    between atoms: C_3  and  N_4 
REMARK       I    between atoms: N_4  and  C_5 
REMARK    2  A    between atoms: C_5  and  C_6 
REMARK    3  A    between atoms: C_7  and  C_8 
REMARK    4  A    between atoms: C_11  and  C_12 
REMARK    5  A    between atoms: C_21  and  C_22 
REMARK    6  A    between atoms: C_22  and  C_23 
REMARK    7  A    between atoms: C_23  and  C_24 
REMARK    8  A    between atoms: C_24  and  O_25 
ROOT
HETATM    1  C   UNL     1     -42.098  55.871 -51.266  1.00  0.00     0.062 A 
HETATM    2  C   UNL     1     -42.995  56.828 -52.042  1.00  0.00     0.202 A 
HETATM    3  N   UNL     1     -42.782  58.220 -51.621  1.00  0.00    -0.083 N 
HETATM    4  C   UNL     1     -41.944  58.590 -50.604  1.00  0.00     0.726 A 
HETATM    5  N   UNL     1     -41.231  57.650 -49.956  1.00  0.00    -0.192 N 
HETATM    6  N   UNL     1     -43.491  59.276 -52.077  1.00  0.00    -0.140 NA
HETATM    7  C   UNL     1     -42.946  60.272 -51.361  1.00  0.00     0.166 A 
HETATM    8  N   UNL     1     -42.008  59.885 -50.433  1.00  0.00    -0.046 NA
HETATM    9  C   UNL     1     -41.269  56.301 -50.284  1.00  0.00     0.037 A 
HETATM   10  C   UNL     1     -40.356  55.405 -49.484  1.00  0.00     0.070 C 
HETATM   11  H   UNL     1     -40.575  57.944 -49.238  1.00  0.00     0.184 HD
ENDROOT
BRANCH   1  12
HETATM   12  C   UNL     1     -42.062  54.454 -51.709  1.00  0.00     0.256 C 
HETATM   13  N   UNL     1     -40.825  54.067 -52.179  1.00  0.00    -0.323 N 
HETATM   14  H   UNL     1     -40.120  54.784 -52.258  1.00  0.00     0.169 HD
HETATM   15  O   UNL     1     -43.088  53.789 -51.658  1.00  0.00    -0.267 OA
BRANCH  13  16
HETATM   16  C   UNL     1     -40.444  52.773 -52.616  1.00  0.00     0.041 A 
HETATM   17  C   UNL     1     -40.618  52.432 -53.977  1.00  0.00    -0.035 A 
HETATM   18  C   UNL     1     -41.192  53.390 -54.985  1.00  0.00     0.050 C 
HETATM   19  C   UNL     1     -40.231  51.155 -54.423  1.00  0.00     0.009 A 
HETATM   20  C   UNL     1     -39.684  50.223 -53.545  1.00  0.00     0.001 A 
HETATM   21  C   UNL     1     -39.510  50.559 -52.209  1.00  0.00     0.002 A 
HETATM   22  C   UNL     1     -39.884  51.825 -51.751  1.00  0.00     0.030 A 
ENDBRANCH  13  16
ENDBRANCH   1  12
BRANCH   2  23
HETATM   23  C   UNL     1     -42.873  56.690 -53.553  1.00  0.00    -0.028 A 
HETATM   24  C   UNL     1     -41.702  57.114 -54.200  1.00  0.00     0.010 A 
HETATM   25  C   UNL     1     -41.591  57.050 -55.591  1.00  0.00     0.008 A 
HETATM   26  C   UNL     1     -42.645  56.559 -56.372  1.00  0.00    -0.055 A 
HETATM   27  C   UNL     1     -43.808  56.119 -55.725  1.00  0.00     0.008 A 
HETATM   28  C   UNL     1     -43.921  56.179 -54.333  1.00  0.00     0.010 A 
BRANCH  26  29
HETATM   29  C   UNL     1     -42.514  56.537 -57.884  1.00  0.00     0.010 C 
HETATM   30  C   UNL     1     -43.574  55.648 -58.537  1.00  0.00     0.015 C 
HETATM   31  C   UNL     1     -42.552  57.952 -58.465  1.00  0.00     0.015 C 
ENDBRANCH  26  29
ENDBRANCH   2  23
BRANCH   7  32
HETATM   32  C   UNL     1     -43.321  61.695 -51.552  1.00  0.00     0.085 C 
BRANCH  32  33
HETATM   33  C   UNL     1     -43.562  62.433 -50.237  1.00  0.00     0.034 C 
BRANCH  33  34
HETATM   34  C   UNL     1     -44.739  61.874 -49.446  1.00  0.00     0.164 C 
BRANCH  34  35
HETATM   35  O   UNL     1     -44.257  61.004 -48.426  1.00  0.00    -0.401 OA
HETATM   36  H   UNL     1     -45.016  60.747 -47.876  1.00  0.00     0.209 HD
ENDBRANCH  34  35
ENDBRANCH  33  34
ENDBRANCH  32  33
ENDBRANCH   7  32
TORSDOF 8
ENDMDL
MODEL 3
REMARK VINA RESULT:      -8.6      2.837      6.571
REMARK  8 active torsions:
REMARK  status: ('A' for Active; 'I' for Inactive)
REMARK    1  A    between atoms: C_3  and  N_4 
REMARK       I    between atoms: N_4  and  C_5 
REMARK    2  A    between atoms: C_5  and  C_6 
REMARK    3  A    between atoms: C_7  and  C_8 
REMARK    4  A    between atoms: C_11  and  C_12 
REMARK    5  A    between atoms: C_21  and  C_22 
REMARK    6  A    between atoms: C_22  and  C_23 
REMARK    7  A    between atoms: C_23  and  C_24 
REMARK    8  A    between atoms: C_24  and  O_25 
ROOT
HETATM    1  C   UNL     1     -42.254  57.001 -52.511  1.00  0.00     0.062 A 
HETATM    2  C   UNL     1     -43.466  57.382 -53.353  1.00  0.00     0.202 A 
HETATM    3  N   UNL     1     -44.138  58.573 -52.815  1.00  0.00    -0.083 N 
HETATM    4  C   UNL     1     -43.764  59.204 -51.659  1.00  0.00     0.726 A 
HETATM    5  N   UNL     1     -42.700  58.752 -50.971  1.00  0.00    -0.192 N 
HETATM    6  N   UNL     1     -45.284  59.094 -53.306  1.00  0.00    -0.140 NA
HETATM    7  C   UNL     1     -45.483  60.110 -52.452  1.00  0.00     0.166 A 
HETATM    8  N   UNL     1     -44.582  60.195 -51.418  1.00  0.00    -0.046 NA
HETATM    9  C   UNL     1     -41.919  57.681 -51.387  1.00  0.00     0.037 A 
HETATM   10  C   UNL     1     -40.732  57.356 -50.515  1.00  0.00     0.070 C 
HETATM   11  H   UNL     1     -42.403  59.260 -50.143  1.00  0.00     0.184 HD
ENDROOT
BRANCH   1  12
HETATM   12  C   UNL     1     -41.364  55.934 -53.034  1.00  0.00     0.256 C 
HETATM   13  N   UNL     1     -41.629  54.695 -52.488  1.00  0.00    -0.323 N 
HETATM   14  H   UNL     1     -42.312  54.658 -51.747  1.00  0.00     0.169 HD
HETATM   15  O   UNL     1     -40.491  56.229 -53.839  1.00  0.00    -0.267 OA
BRANCH  13  16
HETATM   16  C   UNL     1     -41.006  53.465 -52.818  1.00  0.00     0.041 A 
HETATM   17  C   UNL     1     -40.142  52.862 -51.876  1.00  0.00    -0.035 A 
HETATM   18  C   UNL     1     -39.857  53.472 -50.530  1.00  0.00     0.050 C 
HETATM   19  C   UNL     1     -39.528  51.635 -52.189  1.00  0.00     0.009 A 
HETATM   20  C   UNL     1     -39.756  51.010 -53.413  1.00  0.00     0.001 A 
HETATM   21  C   UNL     1     -40.607  51.602 -54.337  1.00  0.00     0.002 A 
HETATM   22  C   UNL     1     -41.228  52.817 -54.039  1.00  0.00     0.030 A 
ENDBRANCH  13  16
ENDBRANCH   1  12
BRANCH   2  23
HETATM   23  C   UNL     1     -43.153  57.552 -54.832  1.00  0.00    -0.028 A 
HETATM   24  C   UNL     1     -43.511  56.545 -55.742  1.00  0.00     0.010 A 
HETATM   25  C   UNL     1     -43.182  56.654 -57.095  1.00  0.00     0.008 A 
HETATM   26  C   UNL     1     -42.488  57.772 -57.576  1.00  0.00    -0.055 A 
HETATM   27  C   UNL     1     -42.146  58.787 -56.671  1.00  0.00     0.008 A 
HETATM   28  C   UNL     1     -42.476  58.682 -55.317  1.00  0.00     0.010 A 
BRANCH  26  29
HETATM   29  C   UNL     1     -42.109  57.848 -59.044  1.00  0.00     0.010 C 
HETATM   30  C   UNL     1     -42.551  56.602 -59.814  1.00  0.00     0.015 C 
HETATM   31  C   UNL     1     -42.662  59.119 -59.694  1.00  0.00     0.015 C 
ENDBRANCH  26  29
ENDBRANCH   2  23
BRANCH   7  32
HETATM   32  C   UNL     1     -46.596  61.081 -52.607  1.00  0.00     0.085 C 
BRANCH  32  33
HETATM   33  C   UNL     1     -46.312  62.427 -51.944  1.00  0.00     0.034 C 
BRANCH  33  34
HETATM   34  C   UNL     1     -47.109  62.641 -50.663  1.00  0.00     0.164 C 
BRANCH  34  35
HETATM   35  O   UNL     1     -46.608  61.783 -49.641  1.00  0.00    -0.401 OA
HETATM   36  H   UNL     1     -47.225  61.827 -48.892  1.00  0.00     0.209 HD
ENDBRANCH  34  35
ENDBRANCH  33  34
ENDBRANCH  32  33
ENDBRANCH   7  32
TORSDOF 8
ENDMDL
MODEL 4
REMARK VINA RESULT:      -8.5     14.767     17.843
REMARK  8 active torsions:
REMARK  status: ('A' for Active; 'I' for Inactive)
REMARK    1  A    between atoms: C_3  and  N_4 
REMARK       I    between atoms: N_4  and  C_5 
REMARK    2  A    between atoms: C_5  and  C_6 
REMARK    3  A    between atoms: C_7  and  C_8 
REMARK    4  A    between atoms: C_11  and  C_12 
REMARK    5  A    between atoms: C_21  and  C_22 
REMARK    6  A    between atoms: C_22  and  C_23 
REMARK    7  A    between atoms: C_23  and  C_24 
REMARK    8  A    between atoms: C_24  and  O_25 
ROOT
HETATM    1  C   UNL     1     -34.469  40.774 -53.802  1.00  0.00     0.062 A 
HETATM    2  C   UNL     1     -33.733  41.082 -55.101  1.00  0.00     0.202 A 
HETATM    3  N   UNL     1     -32.564  40.209 -55.273  1.00  0.00    -0.083 N 
HETATM    4  C   UNL     1     -32.150  39.294 -54.342  1.00  0.00     0.726 A 
HETATM    5  N   UNL     1     -32.856  39.138 -53.207  1.00  0.00    -0.192 N 
HETATM    6  N   UNL     1     -31.678  40.304 -56.289  1.00  0.00    -0.140 NA
HETATM    7  C   UNL     1     -30.810  39.336 -55.956  1.00  0.00     0.166 A 
HETATM    8  N   UNL     1     -31.057  38.710 -54.758  1.00  0.00    -0.046 NA
HETATM    9  C   UNL     1     -34.023  39.838 -52.930  1.00  0.00     0.037 A 
HETATM   10  C   UNL     1     -34.708  39.486 -51.633  1.00  0.00     0.070 C 
HETATM   11  H   UNL     1     -32.567  38.420 -52.548  1.00  0.00     0.184 HD
ENDROOT
BRANCH   1  12
HETATM   12  C   UNL     1     -35.775  41.444 -53.580  1.00  0.00     0.256 C 
HETATM   13  N   UNL     1     -36.851  40.601 -53.760  1.00  0.00    -0.323 N 
HETATM   14  H   UNL     1     -36.655  39.674 -54.104  1.00  0.00     0.169 HD
HETATM   15  O   UNL     1     -35.792  42.637 -53.303  1.00  0.00    -0.267 OA
BRANCH  13  16
HETATM   16  C   UNL     1     -38.221  40.911 -53.566  1.00  0.00     0.041 A 
HETATM   17  C   UNL     1     -39.040  41.131 -54.697  1.00  0.00    -0.035 A 
HETATM   18  C   UNL     1     -38.516  41.048 -56.105  1.00  0.00     0.050 C 
HETATM   19  C   UNL     1     -40.404  41.427 -54.514  1.00  0.00     0.009 A 
HETATM   20  C   UNL     1     -40.955  41.511 -53.238  1.00  0.00     0.001 A 
HETATM   21  C   UNL     1     -40.152  41.292 -52.128  1.00  0.00     0.002 A 
HETATM   22  C   UNL     1     -38.797  40.992 -52.292  1.00  0.00     0.030 A 
ENDBRANCH  13  16
ENDBRANCH   1  12
BRANCH   2  23
HETATM   23  C   UNL     1     -34.626  41.049 -56.333  1.00  0.00    -0.028 A 
HETATM   24  C   UNL     1     -35.127  42.247 -56.864  1.00  0.00     0.010 A 
HETATM   25  C   UNL     1     -35.995  42.236 -57.958  1.00  0.00     0.008 A 
HETATM   26  C   UNL     1     -36.385  41.029 -58.552  1.00  0.00    -0.055 A 
HETATM   27  C   UNL     1     -35.871  39.832 -58.032  1.00  0.00     0.008 A 
HETATM   28  C   UNL     1     -35.000  39.840 -56.939  1.00  0.00     0.010 A 
BRANCH  26  29
HETATM   29  C   UNL     1     -37.359  41.043 -59.715  1.00  0.00     0.010 C 
HETATM   30  C   UNL     1     -37.389  42.400 -60.421  1.00  0.00     0.015 C 
HETATM   31  C   UNL     1     -37.054  39.917 -60.707  1.00  0.00     0.015 C 
ENDBRANCH  26  29
ENDBRANCH   2  23
BRANCH   7  32
HETATM   32  C   UNL     1     -29.660  38.960 -56.817  1.00  0.00     0.085 C 
BRANCH  32  33
HETATM   33  C   UNL     1     -28.622  38.108 -56.091  1.00  0.00     0.034 C 
BRANCH  33  34
HETATM   34  C   UNL     1     -27.643  37.423 -57.038  1.00  0.00     0.164 C 
BRANCH  34  35
HETATM   35  O   UNL     1     -27.086  38.389 -57.925  1.00  0.00    -0.401 OA
HETATM   36  H   UNL     1     -26.134  38.442 -57.741  1.00  0.00     0.209 HD
ENDBRANCH  34  35
ENDBRANCH  33  34
ENDBRANCH  32  33
ENDBRANCH   7  32
TORSDOF 8
ENDMDL
MODEL 5
REMARK VINA RESULT:      -8.3      1.800      2.705
REMARK  8 active torsions:
REMARK  status: ('A' for Active; 'I' for Inactive)
REMARK    1  A    between atoms: C_3  and  N_4 
REMARK       I    between atoms: N_4  and  C_5 
REMARK    2  A    between atoms: C_5  and  C_6 
REMARK    3  A    between atoms: C_7  and  C_8 
REMARK    4  A    between atoms: C_11  and  C_12 
REMARK    5  A    between atoms: C_21  and  C_22 
REMARK    6  A    between atoms: C_22  and  C_23 
REMARK    7  A    between atoms: C_23  and  C_24 
REMARK    8  A    between atoms: C_24  and  O_25 
ROOT
HETATM    1  C   UNL     1     -43.729  58.236 -55.423  1.00  0.00     0.062 A 
HETATM    2  C   UNL     1     -43.906  56.862 -56.060  1.00  0.00     0.202 A 
HETATM    3  N   UNL     1     -43.848  56.942 -57.526  1.00  0.00    -0.083 N 
HETATM    4  C   UNL     1     -43.732  58.115 -58.223  1.00  0.00     0.726 A 
HETATM    5  N   UNL     1     -43.626  59.277 -57.553  1.00  0.00    -0.192 N 
HETATM    6  N   UNL     1     -44.052  55.898 -58.360  1.00  0.00    -0.140 NA
HETATM    7  C   UNL     1     -43.936  56.503 -59.552  1.00  0.00     0.166 A 
HETATM    8  N   UNL     1     -43.759  57.865 -59.506  1.00  0.00    -0.046 NA
HETATM    9  C   UNL     1     -43.593  59.360 -56.167  1.00  0.00     0.037 A 
HETATM   10  C   UNL     1     -43.411  60.744 -55.596  1.00  0.00     0.070 C 
HETATM   11  H   UNL     1     -43.489  60.134 -58.082  1.00  0.00     0.184 HD
ENDROOT
BRANCH   1  12
HETATM   12  C   UNL     1     -43.577  58.291 -53.947  1.00  0.00     0.256 C 
HETATM   13  N   UNL     1     -42.320  58.698 -53.550  1.00  0.00    -0.323 N 
HETATM   14  H   UNL     1     -41.628  58.821 -54.273  1.00  0.00     0.169 HD
HETATM   15  O   UNL     1     -44.517  57.956 -53.239  1.00  0.00    -0.267 OA
BRANCH  13  16
HETATM   16  C   UNL     1     -41.872  58.912 -52.222  1.00  0.00     0.041 A 
HETATM   17  C   UNL     1     -41.377  57.815 -51.481  1.00  0.00    -0.035 A 
HETATM   18  C   UNL     1     -41.303  56.422 -52.047  1.00  0.00     0.050 C 
HETATM   19  C   UNL     1     -40.918  58.020 -50.166  1.00  0.00     0.009 A 
HETATM   20  C   UNL     1     -40.949  59.285 -49.585  1.00  0.00     0.001 A 
HETATM   21  C   UNL     1     -41.432  60.364 -50.314  1.00  0.00     0.002 A 
HETATM   22  C   UNL     1     -41.886  60.177 -51.621  1.00  0.00     0.030 A 
ENDBRANCH  13  16
ENDBRANCH   1  12
BRANCH   2  23
HETATM   23  C   UNL     1     -42.938  55.814 -55.531  1.00  0.00    -0.028 A 
HETATM   24  C   UNL     1     -43.427  54.714 -54.808  1.00  0.00     0.010 A 
HETATM   25  C   UNL     1     -42.553  53.771 -54.264  1.00  0.00     0.008 A 
HETATM   26  C   UNL     1     -41.168  53.899 -54.428  1.00  0.00    -0.055 A 
HETATM   27  C   UNL     1     -40.680  54.987 -55.165  1.00  0.00     0.008 A 
HETATM   28  C   UNL     1     -41.552  55.932 -55.713  1.00  0.00     0.010 A 
BRANCH  26  29
HETATM   29  C   UNL     1     -40.238  52.881 -53.794  1.00  0.00     0.010 C 
HETATM   30  C   UNL     1     -40.328  52.898 -52.266  1.00  0.00     0.015 C 
HETATM   31  C   UNL     1     -40.498  51.476 -54.342  1.00  0.00     0.015 C 
ENDBRANCH  26  29
ENDBRANCH   2  23
BRANCH   7  32
HETATM   32  C   UNL     1     -43.991  55.760 -60.836  1.00  0.00     0.085 C 
BRANCH  32  33
HETATM   33  C   UNL     1     -45.348  55.109 -61.094  1.00  0.00     0.034 C 
BRANCH  33  34
HETATM   34  C   UNL     1     -46.515  56.076 -60.932  1.00  0.00     0.164 C 
BRANCH  34  35
HETATM   35  O   UNL     1     -47.015  55.998 -59.600  1.00  0.00    -0.401 OA
HETATM   36  H   UNL     1     -46.535  56.653 -59.067  1.00  0.00     0.209 HD
ENDBRANCH  34  35
ENDBRANCH  33  34
ENDBRANCH  32  33
ENDBRANCH   7  32
TORSDOF 8
ENDMDL
MODEL 6
REMARK VINA RESULT:      -8.2      2.494      5.662
REMARK  8 active torsions:
REMARK  status: ('A' for Active; 'I' for Inactive)
REMARK    1  A    between atoms: C_3  and  N_4 
REMARK       I    between atoms: N_4  and  C_5 
REMARK    2  A    between atoms: C_5  and  C_6 
REMARK    3  A    between atoms: C_7  and  C_8 
REMARK    4  A    between atoms: C_11  and  C_12 
REMARK    5  A    between atoms: C_21  and  C_22 
REMARK    6  A    between atoms: C_22  and  C_23 
REMARK    7  A    between atoms: C_23  and  C_24 
REMARK    8  A    between atoms: C_24  and  O_25 
ROOT
HETATM    1  C   UNL     1     -42.246  56.507 -54.443  1.00  0.00     0.062 A 
HETATM    2  C   UNL     1     -41.965  58.003 -54.361  1.00  0.00     0.202 A 
HETATM    3  N   UNL     1     -42.028  58.633 -55.687  1.00  0.00    -0.083 N 
HETATM    4  C   UNL     1     -42.232  57.942 -56.852  1.00  0.00     0.726 A 
HETATM    5  N   UNL     1     -42.426  56.612 -56.808  1.00  0.00    -0.192 N 
HETATM    6  N   UNL     1     -41.745  59.932 -55.934  1.00  0.00    -0.140 NA
HETATM    7  C   UNL     1     -41.905  59.974 -57.265  1.00  0.00     0.166 A 
HETATM    8  N   UNL     1     -42.184  58.768 -57.864  1.00  0.00    -0.046 NA
HETATM    9  C   UNL     1     -42.465  55.883 -55.626  1.00  0.00     0.037 A 
HETATM   10  C   UNL     1     -42.752  54.409 -55.772  1.00  0.00     0.070 C 
HETATM   11  H   UNL     1     -42.626  56.119 -57.674  1.00  0.00     0.184 HD
ENDROOT
BRANCH   1  12
HETATM   12  C   UNL     1     -42.404  55.769 -53.165  1.00  0.00     0.256 C 
HETATM   13  N   UNL     1     -41.202  55.506 -52.542  1.00  0.00    -0.323 N 
HETATM   14  H   UNL     1     -40.362  55.750 -53.045  1.00  0.00     0.169 HD
HETATM   15  O   UNL     1     -43.525  55.440 -52.803  1.00  0.00    -0.267 OA
BRANCH  13  16
HETATM   16  C   UNL     1     -41.010  54.877 -51.286  1.00  0.00     0.041 A 
HETATM   17  C   UNL     1     -40.572  53.534 -51.253  1.00  0.00    -0.035 A 
HETATM   18  C   UNL     1     -40.297  52.740 -52.502  1.00  0.00     0.050 C 
HETATM   19  C   UNL     1     -40.367  52.905 -50.011  1.00  0.00     0.009 A 
HETATM   20  C   UNL     1     -40.593  53.585 -48.816  1.00  0.00     0.001 A 
HETATM   21  C   UNL     1     -41.021  54.905 -48.849  1.00  0.00     0.002 A 
HETATM   22  C   UNL     1     -41.224  55.545 -50.074  1.00  0.00     0.030 A 
ENDBRANCH  13  16
ENDBRANCH   1  12
BRANCH   2  23
HETATM   23  C   UNL     1     -42.852  58.737 -53.365  1.00  0.00    -0.028 A 
HETATM   24  C   UNL     1     -42.296  59.253 -52.184  1.00  0.00     0.010 A 
HETATM   25  C   UNL     1     -43.100  59.879 -51.229  1.00  0.00     0.008 A 
HETATM   26  C   UNL     1     -44.481  60.009 -51.429  1.00  0.00    -0.055 A 
HETATM   27  C   UNL     1     -45.034  59.510 -52.617  1.00  0.00     0.008 A 
HETATM   28  C   UNL     1     -44.231  58.885 -53.576  1.00  0.00     0.010 A 
BRANCH  26  29
HETATM   29  C   UNL     1     -45.338  60.659 -50.359  1.00  0.00     0.010 C 
HETATM   30  C   UNL     1     -44.491  61.356 -49.293  1.00  0.00     0.015 C 
HETATM   31  C   UNL     1     -46.352  61.627 -50.973  1.00  0.00     0.015 C 
ENDBRANCH  26  29
ENDBRANCH   2  23
BRANCH   7  32
HETATM   32  C   UNL     1     -41.793  61.232 -58.047  1.00  0.00     0.085 C 
BRANCH  32  33
HETATM   33  C   UNL     1     -42.648  61.228 -59.312  1.00  0.00     0.034 C 
BRANCH  33  34
HETATM   34  C   UNL     1     -41.838  60.982 -60.579  1.00  0.00     0.164 C 
BRANCH  34  35
HETATM   35  O   UNL     1     -41.783  59.582 -60.844  1.00  0.00    -0.401 OA
HETATM   36  H   UNL     1     -41.541  59.470 -61.778  1.00  0.00     0.209 HD
ENDBRANCH  34  35
ENDBRANCH  33  34
ENDBRANCH  32  33
ENDBRANCH   7  32
TORSDOF 8
ENDMDL
MODEL 7
REMARK VINA RESULT:      -8.1      2.727      6.732
REMARK  8 active torsions:
REMARK  status: ('A' for Active; 'I' for Inactive)
REMARK    1  A    between atoms: C_3  and  N_4 
REMARK       I    between atoms: N_4  and  C_5 
REMARK    2  A    between atoms: C_5  and  C_6 
REMARK    3  A    between atoms: C_7  and  C_8 
REMARK    4  A    between atoms: C_11  and  C_12 
REMARK    5  A    between atoms: C_21  and  C_22 
REMARK    6  A    between atoms: C_22  and  C_23 
REMARK    7  A    between atoms: C_23  and  C_24 
REMARK    8  A    between atoms: C_24  and  O_25 
ROOT
HETATM    1  C   UNL     1     -43.023  57.058 -53.037  1.00  0.00     0.062 A 
HETATM    2  C   UNL     1     -41.979  56.354 -53.896  1.00  0.00     0.202 A 
HETATM    3  N   UNL     1     -41.619  55.044 -53.334  1.00  0.00    -0.083 N 
HETATM    4  C   UNL     1     -42.104  54.564 -52.147  1.00  0.00     0.726 A 
HETATM    5  N   UNL     1     -42.992  55.295 -51.449  1.00  0.00    -0.192 N 
HETATM    6  N   UNL     1     -40.664  54.230 -53.835  1.00  0.00    -0.140 NA
HETATM    7  C   UNL     1     -40.705  53.222 -52.951  1.00  0.00     0.166 A 
HETATM    8  N   UNL     1     -41.562  53.402 -51.892  1.00  0.00    -0.046 NA
HETATM    9  C   UNL     1     -43.484  56.519 -51.882  1.00  0.00     0.037 A 
HETATM   10  C   UNL     1     -44.517  57.165 -50.993  1.00  0.00     0.070 C 
HETATM   11  H   UNL     1     -43.382  54.904 -50.596  1.00  0.00     0.184 HD
ENDROOT
BRANCH   1  12
HETATM   12  C   UNL     1     -43.624  58.305 -53.575  1.00  0.00     0.256 C 
HETATM   13  N   UNL     1     -42.782  59.393 -53.482  1.00  0.00    -0.323 N 
HETATM   14  H   UNL     1     -41.911  59.259 -52.990  1.00  0.00     0.169 HD
HETATM   15  O   UNL     1     -44.770  58.276 -54.004  1.00  0.00    -0.267 OA
BRANCH  13  16
HETATM   16  C   UNL     1     -43.027  60.706 -53.957  1.00  0.00     0.041 A 
HETATM   17  C   UNL     1     -43.192  61.753 -53.021  1.00  0.00    -0.035 A 
HETATM   18  C   UNL     1     -43.116  61.530 -51.535  1.00  0.00     0.050 C 
HETATM   19  C   UNL     1     -43.424  63.062 -53.483  1.00  0.00     0.009 A 
HETATM   20  C   UNL     1     -43.497  63.339 -54.846  1.00  0.00     0.001 A 
HETATM   21  C   UNL     1     -43.332  62.312 -55.765  1.00  0.00     0.002 A 
HETATM   22  C   UNL     1     -43.096  61.008 -55.322  1.00  0.00     0.030 A 
ENDBRANCH  13  16
ENDBRANCH   1  12
BRANCH   2  23
HETATM   23  C   UNL     1     -42.375  56.229 -55.361  1.00  0.00    -0.028 A 
HETATM   24  C   UNL     1     -42.951  55.038 -55.829  1.00  0.00     0.010 A 
HETATM   25  C   UNL     1     -43.269  54.881 -57.179  1.00  0.00     0.008 A 
HETATM   26  C   UNL     1     -43.022  55.909 -58.098  1.00  0.00    -0.055 A 
HETATM   27  C   UNL     1     -42.463  57.106 -57.628  1.00  0.00     0.008 A 
HETATM   28  C   UNL     1     -42.146  57.268 -56.276  1.00  0.00     0.010 A 
BRANCH  26  29
HETATM   29  C   UNL     1     -43.342  55.698 -59.567  1.00  0.00     0.010 C 
HETATM   30  C   UNL     1     -44.405  54.618 -59.772  1.00  0.00     0.015 C 
HETATM   31  C   UNL     1     -43.758  57.010 -60.237  1.00  0.00     0.015 C 
ENDBRANCH  26  29
ENDBRANCH   2  23
BRANCH   7  32
HETATM   32  C   UNL     1     -39.887  51.992 -53.100  1.00  0.00     0.085 C 
BRANCH  32  33
HETATM   33  C   UNL     1     -40.185  51.226 -54.387  1.00  0.00     0.034 C 
BRANCH  33  34
HETATM   34  C   UNL     1     -39.626  49.808 -54.381  1.00  0.00     0.164 C 
BRANCH  34  35
HETATM   35  O   UNL     1     -39.614  49.308 -53.047  1.00  0.00    -0.401 OA
HETATM   36  H   UNL     1     -39.965  48.402 -53.070  1.00  0.00     0.209 HD
ENDBRANCH  34  35
ENDBRANCH  33  34
ENDBRANCH  32  33
ENDBRANCH   7  32
TORSDOF 8
ENDMDL
MODEL 8
REMARK VINA RESULT:      -8.0      2.162      3.935
REMARK  8 active torsions:
REMARK  status: ('A' for Active; 'I' for Inactive)
REMARK    1  A    between atoms: C_3  and  N_4 
REMARK       I    between atoms: N_4  and  C_5 
REMARK    2  A    between atoms: C_5  and  C_6 
REMARK    3  A    between atoms: C_7  and  C_8 
REMARK    4  A    between atoms: C_11  and  C_12 
REMARK    5  A    between atoms: C_21  and  C_22 
REMARK    6  A    between atoms: C_22  and  C_23 
REMARK    7  A    between atoms: C_23  and  C_24 
REMARK    8  A    between atoms: C_24  and  O_25 
ROOT
HETATM    1  C   UNL     1     -42.667  58.822 -56.052  1.00  0.00     0.062 A 
HETATM    2  C   UNL     1     -43.266  57.421 -56.107  1.00  0.00     0.202 A 
HETATM    3  N   UNL     1     -43.320  56.917 -57.487  1.00  0.00    -0.083 N 
HETATM    4  C   UNL     1     -42.952  57.651 -58.583  1.00  0.00     0.726 A 
HETATM    5  N   UNL     1     -42.476  58.898 -58.417  1.00  0.00    -0.192 N 
HETATM    6  N   UNL     1     -43.873  55.739 -57.852  1.00  0.00    -0.140 NA
HETATM    7  C   UNL     1     -43.704  55.785 -59.182  1.00  0.00     0.166 A 
HETATM    8  N   UNL     1     -43.161  56.951 -59.667  1.00  0.00    -0.046 NA
HETATM    9  C   UNL     1     -42.298  59.489 -57.173  1.00  0.00     0.037 A 
HETATM   10  C   UNL     1     -41.697  60.873 -57.183  1.00  0.00     0.070 C 
HETATM   11  H   UNL     1     -42.159  59.412 -59.234  1.00  0.00     0.184 HD
ENDROOT
BRANCH   1  12
HETATM   12  C   UNL     1     -42.374  59.389 -54.712  1.00  0.00     0.256 C 
HETATM   13  N   UNL     1     -43.493  59.888 -54.081  1.00  0.00    -0.323 N 
HETATM   14  H   UNL     1     -44.351  59.903 -54.612  1.00  0.00     0.169 HD
HETATM   15  O   UNL     1     -41.218  59.399 -54.310  1.00  0.00    -0.267 OA
BRANCH  13  16
HETATM   16  C   UNL     1     -43.565  60.437 -52.775  1.00  0.00     0.041 A 
HETATM   17  C   UNL     1     -44.170  59.680 -51.747  1.00  0.00    -0.035 A 
HETATM   18  C   UNL     1     -44.742  58.308 -51.979  1.00  0.00     0.050 C 
HETATM   19  C   UNL     1     -44.234  60.212 -50.445  1.00  0.00     0.009 A 
HETATM   20  C   UNL     1     -43.716  61.473 -50.159  1.00  0.00     0.001 A 
HETATM   21  C   UNL     1     -43.119  62.215 -51.169  1.00  0.00     0.002 A 
HETATM   22  C   UNL     1     -43.042  61.699 -52.464  1.00  0.00     0.030 A 
ENDBRANCH  13  16
ENDBRANCH   1  12
BRANCH   2  23
HETATM   23  C   UNL     1     -42.575  56.425 -55.188  1.00  0.00    -0.028 A 
HETATM   24  C   UNL     1     -43.270  55.891 -54.091  1.00  0.00     0.010 A 
HETATM   25  C   UNL     1     -42.638  55.020 -53.201  1.00  0.00     0.008 A 
HETATM   26  C   UNL     1     -41.297  54.657 -53.383  1.00  0.00    -0.055 A 
HETATM   27  C   UNL     1     -40.608  55.176 -54.488  1.00  0.00     0.008 A 
HETATM   28  C   UNL     1     -41.238  56.046 -55.382  1.00  0.00     0.010 A 
BRANCH  26  29
HETATM   29  C   UNL     1     -40.623  53.739 -52.379  1.00  0.00     0.010 C 
HETATM   30  C   UNL     1     -41.500  53.494 -51.149  1.00  0.00     0.015 C 
HETATM   31  C   UNL     1     -40.210  52.416 -53.029  1.00  0.00     0.015 C 
ENDBRANCH  26  29
ENDBRANCH   2  23
BRANCH   7  32
HETATM   32  C   UNL     1     -44.073  54.658 -60.076  1.00  0.00     0.085 C 
BRANCH  32  33
HETATM   33  C   UNL     1     -45.061  55.060 -61.169  1.00  0.00     0.034 C 
BRANCH  33  34
HETATM   34  C   UNL     1     -46.252  55.848 -60.636  1.00  0.00     0.164 C 
BRANCH  34  35
HETATM   35  O   UNL     1     -46.105  57.223 -60.982  1.00  0.00    -0.401 OA
HETATM   36  H   UNL     1     -46.325  57.314 -61.924  1.00  0.00     0.209 HD
ENDBRANCH  34  35
ENDBRANCH  33  34
ENDBRANCH  32  33
ENDBRANCH   7  32
TORSDOF 8
ENDMDL
MODEL 9
REMARK VINA RESULT:      -7.8      3.210      6.017
REMARK  8 active torsions:
REMARK  status: ('A' for Active; 'I' for Inactive)
REMARK    1  A    between atoms: C_3  and  N_4 
REMARK       I    between atoms: N_4  and  C_5 
REMARK    2  A    between atoms: C_5  and  C_6 
REMARK    3  A    between atoms: C_7  and  C_8 
REMARK    4  A    between atoms: C_11  and  C_12 
REMARK    5  A    between atoms: C_21  and  C_22 
REMARK    6  A    between atoms: C_22  and  C_23 
REMARK    7  A    between atoms: C_23  and  C_24 
REMARK    8  A    between atoms: C_24  and  O_25 
ROOT
HETATM    1  C   UNL     1     -42.351  57.055 -56.781  1.00  0.00     0.062 A 
HETATM    2  C   UNL     1     -41.785  58.408 -56.365  1.00  0.00     0.202 A 
HETATM    3  N   UNL     1     -41.984  59.416 -57.415  1.00  0.00    -0.083 N 
HETATM    4  C   UNL     1     -42.535  59.146 -58.639  1.00  0.00     0.726 A 
HETATM    5  N   UNL     1     -42.962  57.900 -58.913  1.00  0.00    -0.192 N 
HETATM    6  N   UNL     1     -41.517  60.683 -57.360  1.00  0.00    -0.140 NA
HETATM    7  C   UNL     1     -41.922  61.151 -58.551  1.00  0.00     0.166 A 
HETATM    8  N   UNL     1     -42.532  60.230 -59.369  1.00  0.00    -0.046 NA
HETATM    9  C   UNL     1     -42.908  56.854 -58.000  1.00  0.00     0.037 A 
HETATM   10  C   UNL     1     -43.488  55.542 -58.468  1.00  0.00     0.070 C 
HETATM   11  H   UNL     1     -43.416  57.725 -59.806  1.00  0.00     0.184 HD
ENDROOT
BRANCH   1  12
HETATM   12  C   UNL     1     -42.393  55.985 -55.752  1.00  0.00     0.256 C 
HETATM   13  N   UNL     1     -41.143  55.502 -55.425  1.00  0.00    -0.323 N 
HETATM   14  H   UNL     1     -40.364  55.845 -55.965  1.00  0.00     0.169 HD
HETATM   15  O   UNL     1     -43.478  55.613 -55.325  1.00  0.00    -0.267 OA
BRANCH  13  16
HETATM   16  C   UNL     1     -40.834  54.528 -54.442  1.00  0.00     0.041 A 
HETATM   17  C   UNL     1     -40.948  54.875 -53.076  1.00  0.00    -0.035 A 
HETATM   18  C   UNL     1     -41.387  56.240 -52.621  1.00  0.00     0.050 C 
HETATM   19  C   UNL     1     -40.655  53.912 -52.093  1.00  0.00     0.009 A 
HETATM   20  C   UNL     1     -40.253  52.626 -52.445  1.00  0.00     0.001 A 
HETATM   21  C   UNL     1     -40.144  52.284 -53.787  1.00  0.00     0.002 A 
HETATM   22  C   UNL     1     -40.436  53.228 -54.775  1.00  0.00     0.030 A 
ENDBRANCH  13  16
ENDBRANCH   1  12
BRANCH   2  23
HETATM   23  C   UNL     1     -42.308  58.903 -55.025  1.00  0.00    -0.028 A 
HETATM   24  C   UNL     1     -43.691  58.945 -54.788  1.00  0.00     0.010 A 
HETATM   25  C   UNL     1     -44.195  59.450 -53.588  1.00  0.00     0.008 A 
HETATM   26  C   UNL     1     -43.333  59.925 -52.591  1.00  0.00    -0.055 A 
HETATM   27  C   UNL     1     -41.951  59.867 -52.819  1.00  0.00     0.008 A 
HETATM   28  C   UNL     1     -41.443  59.359 -54.019  1.00  0.00     0.010 A 
BRANCH  26  29
HETATM   29  C   UNL     1     -43.909  60.504 -51.312  1.00  0.00     0.010 C 
HETATM   30  C   UNL     1     -45.002  59.612 -50.720  1.00  0.00     0.015 C 
HETATM   31  C   UNL     1     -42.809  60.777 -50.283  1.00  0.00     0.015 C 
ENDBRANCH  26  29
ENDBRANCH   2  23
BRANCH   7  32
HETATM   32  C   UNL     1     -41.730  62.564 -58.965  1.00  0.00     0.085 C 
BRANCH  32  33
HETATM   33  C   UNL     1     -40.375  63.132 -58.547  1.00  0.00     0.034 C 
BRANCH  33  34
HETATM   34  C   UNL     1     -39.603  63.748 -59.708  1.00  0.00     0.164 C 
BRANCH  34  35
HETATM   35  O   UNL     1     -39.590  62.840 -60.806  1.00  0.00    -0.401 OA
HETATM   36  H   UNL     1     -39.209  62.004 -60.491  1.00  0.00     0.209 HD
ENDBRANCH  34  35
ENDBRANCH  33  34
ENDBRANCH  32  33
ENDBRANCH   7  32
TORSDOF 8
ENDMDL
MODEL 10
REMARK VINA RESULT:      -7.8      3.802      7.897
REMARK  8 active torsions:
REMARK  status: ('A' for Active; 'I' for Inactive)
REMARK    1  A    between atoms: C_3  and  N_4 
REMARK       I    between atoms: N_4  and  C_5 
REMARK    2  A    between atoms: C_5  and  C_6 
REMARK    3  A    between atoms: C_7  and  C_8 
REMARK    4  A    between atoms: C_11  and  C_12 
REMARK    5  A    between atoms: C_21  and  C_22 
REMARK    6  A    between atoms: C_22  and  C_23 
REMARK    7  A    between atoms: C_23  and  C_24 
REMARK    8  A    between atoms: C_24  and  O_25 
ROOT
HETATM    1  C   UNL     1     -41.981  58.235 -51.611  1.00  0.00     0.062 A 
HETATM    2  C   UNL     1     -43.484  58.429 -51.779  1.00  0.00     0.202 A 
HETATM    3  N   UNL     1     -43.949  59.636 -51.082  1.00  0.00    -0.083 N 
HETATM    4  C   UNL     1     -43.142  60.432 -50.313  1.00  0.00     0.726 A 
HETATM    5  N   UNL     1     -41.833  60.138 -50.201  1.00  0.00    -0.192 N 
HETATM    6  N   UNL     1     -45.241  60.019 -50.989  1.00  0.00    -0.140 NA
HETATM    7  C   UNL     1     -45.122  61.121 -50.234  1.00  0.00     0.166 A 
HETATM    8  N   UNL     1     -43.852  61.394 -49.785  1.00  0.00    -0.046 NA
HETATM    9  C   UNL     1     -41.230  59.073 -50.856  1.00  0.00     0.037 A 
HETATM   10  C   UNL     1     -39.741  58.936 -50.655  1.00  0.00     0.070 C 
HETATM   11  H   UNL     1     -41.237  60.766 -49.670  1.00  0.00     0.184 HD
ENDROOT
BRANCH   1  12
HETATM   12  C   UNL     1     -41.335  57.166 -52.413  1.00  0.00     0.256 C 
HETATM   13  N   UNL     1     -41.538  55.904 -51.894  1.00  0.00    -0.323 N 
HETATM   14  H   UNL     1     -42.008  55.846 -51.003  1.00  0.00     0.169 HD
HETATM   15  O   UNL     1     -40.680  57.475 -53.399  1.00  0.00    -0.267 OA
BRANCH  13  16
HETATM   16  C   UNL     1     -41.110  54.672 -52.449  1.00  0.00     0.041 A 
HETATM   17  C   UNL     1     -40.399  53.764 -51.633  1.00  0.00    -0.035 A 
HETATM   18  C   UNL     1     -40.078  54.050 -50.191  1.00  0.00     0.050 C 
HETATM   19  C   UNL     1     -39.981  52.533 -52.172  1.00  0.00     0.009 A 
HETATM   20  C   UNL     1     -40.253  52.200 -53.497  1.00  0.00     0.001 A 
HETATM   21  C   UNL     1     -40.955  53.091 -54.298  1.00  0.00     0.002 A 
HETATM   22  C   UNL     1     -41.381  54.315 -53.776  1.00  0.00     0.030 A 
ENDBRANCH  13  16
ENDBRANCH   1  12
BRANCH   2  23
HETATM   23  C   UNL     1     -43.942  58.426 -53.231  1.00  0.00    -0.028 A 
HETATM   24  C   UNL     1     -43.607  59.501 -54.070  1.00  0.00     0.010 A 
HETATM   25  C   UNL     1     -44.065  59.547 -55.388  1.00  0.00     0.008 A 
HETATM   26  C   UNL     1     -44.868  58.522 -55.905  1.00  0.00    -0.055 A 
HETATM   27  C   UNL     1     -45.188  57.440 -55.073  1.00  0.00     0.008 A 
HETATM   28  C   UNL     1     -44.729  57.389 -53.753  1.00  0.00     0.010 A 
BRANCH  26  29
HETATM   29  C   UNL     1     -45.384  58.616 -57.329  1.00  0.00     0.010 C 
HETATM   30  C   UNL     1     -46.854  58.204 -57.433  1.00  0.00     0.015 C 
HETATM   31  C   UNL     1     -45.166  60.017 -57.906  1.00  0.00     0.015 C 
ENDBRANCH  26  29
ENDBRANCH   2  23
BRANCH   7  32
HETATM   32  C   UNL     1     -46.277  61.994 -49.903  1.00  0.00     0.085 C 
BRANCH  32  33
HETATM   33  C   UNL     1     -46.394  62.292 -48.409  1.00  0.00     0.034 C 
BRANCH  33  34
HETATM   34  C   UNL     1     -47.641  63.094 -48.056  1.00  0.00     0.164 C 
BRANCH  34  35
HETATM   35  O   UNL     1     -47.428  63.788 -46.830  1.00  0.00    -0.401 OA
HETATM   36  H   UNL     1     -48.244  63.718 -46.308  1.00  0.00     0.209 HD
ENDBRANCH  34  35
ENDBRANCH  33  34
ENDBRANCH  32  33
ENDBRANCH   7  32
TORSDOF 8
ENDMDL
