MODEL 1
REMARK VINA RESULT:      -9.0      0.000      0.000
REMARK  7 active torsions:
REMARK  status: ('A' for Active; 'I' for Inactive)
REMARK    1  A    between atoms: C_2  and  N_3 
REMARK    2  A    between atoms: C_5  and  C_6 
REMARK    3  A    between atoms: C_6  and  N_7 
REMARK       I    between atoms: N_7  and  C_8 
REMARK    4  A    between atoms: C_8  and  C_9 
REMARK    5  A    between atoms: N_15  and  C_16 
REMARK    6  A    between atoms: C_16  and  C_17 
REMARK       I    between atoms: C_17  and  N_18 
REMARK    7  A    between atoms: N_18  and  C_19 
ROOT
HETATM    1  C   UNL     1     -43.185  58.884 -54.785  1.00  0.00     0.081 A 
HETATM    2  S   UNL     1     -41.722  59.649 -54.314  1.00  0.00    -0.063 SA
HETATM    3  C   UNL     1     -41.631  58.767 -52.868  1.00  0.00     0.116 A 
HETATM    4  C   UNL     1     -42.703  57.917 -52.713  1.00  0.00     0.075 A 
HETATM    5  C   UNL     1     -42.698  57.049 -51.540  1.00  0.00     0.262 A 
HETATM    6  O   UNL     1     -43.591  56.240 -51.304  1.00  0.00    -0.267 OA
HETATM    7  N   UNL     1     -41.580  57.203 -50.722  1.00  0.00    -0.299 N 
HETATM    8  C   UNL     1     -40.582  58.111 -51.020  1.00  0.00     0.214 A 
HETATM    9  N   UNL     1     -40.573  58.914 -52.035  1.00  0.00    -0.235 NA
HETATM   10  C   UNL     1     -43.656  58.020 -53.797  1.00  0.00    -0.021 A 
HETATM   11  C   UNL     1     -44.932  57.241 -53.889  1.00  0.00     0.051 C 
ENDROOT
BRANCH   1  12
HETATM   12  C   UNL     1     -43.775  59.189 -56.085  1.00  0.00     0.259 C 
HETATM   13  N   UNL     1     -43.709  58.176 -57.024  1.00  0.00    -0.354 N 
HETATM   14  H   UNL     1     -43.317  57.302 -56.679  1.00  0.00     0.162 HD
HETATM   15  O   UNL     1     -44.293  60.269 -56.371  1.00  0.00    -0.267 OA
BRANCH  13  16
HETATM   16  C   UNL     1     -44.437  58.100 -58.288  1.00  0.00     0.156 C 
BRANCH  16  17
HETATM   17  C   UNL     1     -44.593  56.726 -58.962  1.00  0.00     0.206 C 
HETATM   18  N   UNL     1     -46.011  56.341 -59.362  1.00  0.00    -0.066 N 
HETATM   19  H   UNL     1     -46.439  56.038 -58.462  1.00  0.00     0.280 HD
HETATM   20  C   UNL     1     -45.829  55.147 -60.277  1.00  0.00     0.235 C 
HETATM   21  C   UNL     1     -44.403  55.253 -60.814  1.00  0.00     0.030 C 
HETATM   22  C   UNL     1     -43.833  56.552 -60.263  1.00  0.00     0.036 C 
BRANCH  18  23
HETATM   23  C   UNL     1     -46.891  57.417 -59.945  1.00  0.00     0.231 C 
HETATM   24  C   UNL     1     -47.613  56.891 -61.174  1.00  0.00     0.034 C 
ENDBRANCH  18  23
ENDBRANCH  16  17
ENDBRANCH  13  16
ENDBRANCH   1  12
BRANCH   7  25
HETATM   25  C   UNL     1     -41.381  56.244 -49.648  1.00  0.00     0.236 C 
BRANCH  25  26
HETATM   26  C   UNL     1     -40.558  55.061 -50.179  1.00  0.00     0.240 C 
HETATM   27  N   UNL     1     -41.219  54.350 -51.169  1.00  0.00    -0.326 N 
HETATM   28  H   UNL     1     -42.160  54.643 -51.408  1.00  0.00     0.169 HD
HETATM   29  O   UNL     1     -39.460  54.783 -49.705  1.00  0.00    -0.271 OA
BRANCH  27  30
HETATM   30  C   UNL     1     -40.733  53.228 -51.877  1.00  0.00     0.036 A 
HETATM   31  C   UNL     1     -40.253  52.067 -51.268  1.00  0.00     0.053 A 
HETATM   32  C   UNL     1     -39.780  50.999 -52.043  1.00  0.00     0.042 A 
HETATM   33 CL   UNL     1     -39.184  49.604 -51.212  1.00  0.00    -0.084 Cl
HETATM   34  C   UNL     1     -39.784  51.068 -53.443  1.00  0.00    -0.040 A 
HETATM   35  C   UNL     1     -39.279  49.940 -54.297  1.00  0.00     0.050 C 
HETATM   36  C   UNL     1     -40.261  52.237 -54.048  1.00  0.00     0.011 A 
HETATM   37  C   UNL     1     -40.726  53.306 -53.274  1.00  0.00     0.030 A 
ENDBRANCH  27  30
ENDBRANCH  25  26
ENDBRANCH   7  25
TORSDOF 7
ENDMDL
MODEL 2
REMARK VINA RESULT:      -8.5      4.984      8.562
REMARK  7 active torsions:
REMARK  status: ('A' for Active; 'I' for Inactive)
REMARK    1  A    between atoms: C_2  and  N_3 
REMARK    2  A    between atoms: C_5  and  C_6 
REMARK    3  A    between atoms: C_6  and  N_7 
REMARK       I    between atoms: N_7  and  C_8 
REMARK    4  A    between atoms: C_8  and  C_9 
REMARK    5  A    between atoms: N_15  and  C_16 
REMARK    6  A    between atoms: C_16  and  C_17 
REMARK       I    between atoms: C_17  and  N_18 
REMARK    7  A    between atoms: N_18  and  C_19 
ROOT
HETATM    1  C   UNL     1     -44.104  60.521 -50.405  1.00  0.00     0.081 A 
HETATM    2  S   UNL     1     -42.424  60.854 -50.524  1.00  0.00    -0.063 SA
HETATM    3  C   UNL     1     -42.223  59.792 -51.830  1.00  0.00     0.116 A 
HETATM    4  C   UNL     1     -43.399  59.162 -52.170  1.00  0.00     0.075 A 
HETATM    5  C   UNL     1     -43.368  58.278 -53.330  1.00  0.00     0.262 A 
HETATM    6  O   UNL     1     -44.357  57.675 -53.737  1.00  0.00    -0.267 OA
HETATM    7  N   UNL     1     -42.122  58.195 -53.950  1.00  0.00    -0.299 N 
HETATM    8  C   UNL     1     -41.029  58.897 -53.479  1.00  0.00     0.214 A 
HETATM    9  N   UNL     1     -41.019  59.664 -52.437  1.00  0.00    -0.235 NA
HETATM   10  C   UNL     1     -44.498  59.530 -51.303  1.00  0.00    -0.021 A 
HETATM   11  C   UNL     1     -45.890  58.987 -51.410  1.00  0.00     0.051 C 
ENDROOT
BRANCH   1  12
HETATM   12  C   UNL     1     -44.919  61.248 -49.436  1.00  0.00     0.259 C 
HETATM   13  N   UNL     1     -45.309  60.527 -48.323  1.00  0.00    -0.354 N 
HETATM   14  H   UNL     1     -44.925  59.586 -48.270  1.00  0.00     0.162 HD
HETATM   15  O   UNL     1     -45.268  62.421 -49.570  1.00  0.00    -0.267 OA
BRANCH  13  16
HETATM   16  C   UNL     1     -45.885  61.057 -47.089  1.00  0.00     0.156 C 
BRANCH  16  17
HETATM   17  C   UNL     1     -44.948  61.736 -46.076  1.00  0.00     0.206 C 
HETATM   18  N   UNL     1     -45.401  63.097 -45.562  1.00  0.00    -0.066 N 
HETATM   19  H   UNL     1     -45.155  63.740 -46.345  1.00  0.00     0.280 HD
HETATM   20  C   UNL     1     -44.505  63.363 -44.371  1.00  0.00     0.235 C 
HETATM   21  C   UNL     1     -44.019  61.991 -43.907  1.00  0.00     0.030 C 
HETATM   22  C   UNL     1     -44.718  60.968 -44.789  1.00  0.00     0.036 C 
BRANCH  18  23
HETATM   23  C   UNL     1     -46.867  63.281 -45.267  1.00  0.00     0.231 C 
HETATM   24  C   UNL     1     -47.062  64.436 -44.299  1.00  0.00     0.034 C 
ENDBRANCH  18  23
ENDBRANCH  16  17
ENDBRANCH  13  16
ENDBRANCH   1  12
BRANCH   7  25
HETATM   25  C   UNL     1     -42.039  57.508 -55.229  1.00  0.00     0.236 C 
BRANCH  25  26
HETATM   26  C   UNL     1     -42.004  55.993 -54.982  1.00  0.00     0.240 C 
HETATM   27  N   UNL     1     -40.909  55.598 -54.227  1.00  0.00    -0.326 N 
HETATM   28  H   UNL     1     -40.243  56.313 -53.958  1.00  0.00     0.169 HD
HETATM   29  O   UNL     1     -42.849  55.246 -55.470  1.00  0.00    -0.271 OA
BRANCH  27  30
HETATM   30  C   UNL     1     -40.598  54.285 -53.807  1.00  0.00     0.036 A 
HETATM   31  C   UNL     1     -40.599  53.869 -52.474  1.00  0.00     0.053 A 
HETATM   32  C   UNL     1     -40.270  52.549 -52.140  1.00  0.00     0.042 A 
HETATM   33 CL   UNL     1     -40.276  52.118 -50.465  1.00  0.00    -0.084 Cl
HETATM   34  C   UNL     1     -39.940  51.615 -53.132  1.00  0.00    -0.040 A 
HETATM   35  C   UNL     1     -39.580  50.195 -52.800  1.00  0.00     0.050 C 
HETATM   36  C   UNL     1     -39.935  52.040 -54.467  1.00  0.00     0.011 A 
HETATM   37  C   UNL     1     -40.255  53.360 -54.799  1.00  0.00     0.030 A 
ENDBRANCH  27  30
ENDBRANCH  25  26
ENDBRANCH   7  25
TORSDOF 7
ENDMDL
MODEL 3
REMARK VINA RESULT:      -8.2      4.672      8.160
REMARK  7 active torsions:
REMARK  status: ('A' for Active; 'I' for Inactive)
REMARK    1  A    between atoms: C_2  and  N_3 
REMARK    2  A    between atoms: C_5  and  C_6 
REMARK    3  A    between atoms: C_6  and  N_7 
REMARK       I    between atoms: N_7  and  C_8 
REMARK    4  A    between atoms: C_8  and  C_9 
REMARK    5  A    between atoms: N_15  and  C_16 
REMARK    6  A    between atoms: C_16  and  C_17 
REMARK       I    between atoms: C_17  and  N_18 
REMARK    7  A    between atoms: N_18  and  C_19 
ROOT
HETATM    1  C   UNL     1     -44.048  60.369 -51.817  1.00  0.00     0.081 A 
HETATM    2  S   UNL     1     -45.440  60.103 -52.785  1.00  0.00    -0.063 SA
HETATM    3  C   UNL     1     -44.603  59.091 -53.857  1.00  0.00     0.116 A 
HETATM    4  C   UNL     1     -43.275  58.965 -53.518  1.00  0.00     0.075 A 
HETATM    5  C   UNL     1     -42.466  58.057 -54.325  1.00  0.00     0.262 A 
HETATM    6  O   UNL     1     -41.275  57.852 -54.108  1.00  0.00    -0.267 OA
HETATM    7  N   UNL     1     -43.169  57.426 -55.349  1.00  0.00    -0.299 N 
HETATM    8  C   UNL     1     -44.513  57.664 -55.561  1.00  0.00     0.214 A 
HETATM    9  N   UNL     1     -45.248  58.484 -54.882  1.00  0.00    -0.235 NA
HETATM   10  C   UNL     1     -42.919  59.758 -52.361  1.00  0.00    -0.021 A 
HETATM   11  C   UNL     1     -41.542  59.846 -51.776  1.00  0.00     0.051 C 
ENDROOT
BRANCH   1  12
HETATM   12  C   UNL     1     -44.156  61.162 -50.597  1.00  0.00     0.259 C 
HETATM   13  N   UNL     1     -44.863  60.577 -49.563  1.00  0.00    -0.354 N 
HETATM   14  H   UNL     1     -45.171  59.624 -49.746  1.00  0.00     0.162 HD
HETATM   15  O   UNL     1     -43.676  62.288 -50.461  1.00  0.00    -0.267 OA
BRANCH  13  16
HETATM   16  C   UNL     1     -44.901  61.009 -48.168  1.00  0.00     0.156 C 
BRANCH  16  17
HETATM   17  C   UNL     1     -46.050  61.927 -47.717  1.00  0.00     0.206 C 
HETATM   18  N   UNL     1     -46.251  62.049 -46.213  1.00  0.00    -0.066 N 
HETATM   19  H   UNL     1     -46.750  61.168 -45.967  1.00  0.00     0.280 HD
HETATM   20  C   UNL     1     -47.181  63.234 -46.055  1.00  0.00     0.235 C 
HETATM   21  C   UNL     1     -47.013  64.061 -47.328  1.00  0.00     0.030 C 
HETATM   22  C   UNL     1     -45.926  63.377 -48.143  1.00  0.00     0.036 C 
BRANCH  18  23
HETATM   23  C   UNL     1     -45.020  62.131 -45.346  1.00  0.00     0.231 C 
HETATM   24  C   UNL     1     -45.063  63.390 -44.497  1.00  0.00     0.034 C 
ENDBRANCH  18  23
ENDBRANCH  16  17
ENDBRANCH  13  16
ENDBRANCH   1  12
BRANCH   7  25
HETATM   25  C   UNL     1     -42.507  56.353 -56.073  1.00  0.00     0.236 C 
BRANCH  25  26
HETATM   26  C   UNL     1     -42.417  55.117 -55.165  1.00  0.00     0.240 C 
HETATM   27  N   UNL     1     -41.109  54.780 -54.849  1.00  0.00    -0.326 N 
HETATM   28  H   UNL     1     -40.368  55.334 -55.264  1.00  0.00     0.169 HD
HETATM   29  O   UNL     1     -43.421  54.497 -54.829  1.00  0.00    -0.271 OA
BRANCH  27  30
HETATM   30  C   UNL     1     -40.684  53.717 -54.021  1.00  0.00     0.036 A 
HETATM   31  C   UNL     1     -40.350  52.445 -54.490  1.00  0.00     0.053 A 
HETATM   32  C   UNL     1     -39.944  51.441 -53.600  1.00  0.00     0.042 A 
HETATM   33 CL   UNL     1     -39.567  49.887 -54.259  1.00  0.00    -0.084 Cl
HETATM   34  C   UNL     1     -39.856  51.691 -52.224  1.00  0.00    -0.040 A 
HETATM   35  C   UNL     1     -39.427  50.633 -51.248  1.00  0.00     0.050 C 
HETATM   36  C   UNL     1     -40.197  52.967 -51.758  1.00  0.00     0.011 A 
HETATM   37  C   UNL     1     -40.610  53.966 -52.646  1.00  0.00     0.030 A 
ENDBRANCH  27  30
ENDBRANCH  25  26
ENDBRANCH   7  25
TORSDOF 7
ENDMDL
MODEL 4
REMARK VINA RESULT:      -8.2      1.400      1.989
REMARK  7 active torsions:
REMARK  status: ('A' for Active; 'I' for Inactive)
REMARK    1  A    between atoms: C_2  and  N_3 
REMARK    2  A    between atoms: C_5  and  C_6 
REMARK    3  A    between atoms: C_6  and  N_7 
REMARK       I    between atoms: N_7  and  C_8 
REMARK    4  A    between atoms: C_8  and  C_9 
REMARK    5  A    between atoms: N_15  and  C_16 
REMARK    6  A    between atoms: C_16  and  C_17 
REMARK       I    between atoms: C_17  and  N_18 
REMARK    7  A    between atoms: N_18  and  C_19 
ROOT
HETATM    1  C   UNL     1     -43.183  59.110 -54.201  1.00  0.00     0.081 A 
HETATM    2  S   UNL     1     -41.670  59.773 -53.735  1.00  0.00    -0.063 SA
HETATM    3  C   UNL     1     -41.553  58.765 -52.377  1.00  0.00     0.116 A 
HETATM    4  C   UNL     1     -42.652  57.946 -52.246  1.00  0.00     0.075 A 
HETATM    5  C   UNL     1     -42.632  56.978 -51.154  1.00  0.00     0.262 A 
HETATM    6  O   UNL     1     -43.547  56.186 -50.948  1.00  0.00    -0.267 OA
HETATM    7  N   UNL     1     -41.474  57.016 -50.380  1.00  0.00    -0.299 N 
HETATM    8  C   UNL     1     -40.453  57.908 -50.645  1.00  0.00     0.214 A 
HETATM    9  N   UNL     1     -40.455  58.797 -51.585  1.00  0.00    -0.235 NA
HETATM   10  C   UNL     1     -43.646  58.180 -53.271  1.00  0.00    -0.021 A 
HETATM   11  C   UNL     1     -44.957  57.462 -53.370  1.00  0.00     0.051 C 
ENDROOT
BRANCH   1  12
HETATM   12  C   UNL     1     -43.815  59.550 -55.441  1.00  0.00     0.259 C 
HETATM   13  N   UNL     1     -42.964  60.083 -56.391  1.00  0.00    -0.354 N 
HETATM   14  H   UNL     1     -41.976  60.044 -56.145  1.00  0.00     0.162 HD
HETATM   15  O   UNL     1     -45.025  59.483 -55.660  1.00  0.00    -0.267 OA
BRANCH  13  16
HETATM   16  C   UNL     1     -43.267  60.349 -57.795  1.00  0.00     0.156 C 
BRANCH  16  17
HETATM   17  C   UNL     1     -42.383  59.698 -58.871  1.00  0.00     0.206 C 
HETATM   18  N   UNL     1     -42.457  58.179 -58.962  1.00  0.00    -0.066 N 
HETATM   19  H   UNL     1     -41.862  57.864 -58.166  1.00  0.00     0.280 HD
HETATM   20  C   UNL     1     -41.782  57.850 -60.277  1.00  0.00     0.235 C 
HETATM   21  C   UNL     1     -41.877  59.121 -61.118  1.00  0.00     0.030 C 
HETATM   22  C   UNL     1     -42.681  60.119 -60.297  1.00  0.00     0.036 C 
BRANCH  18  23
HETATM   23  C   UNL     1     -43.810  57.534 -58.801  1.00  0.00     0.231 C 
HETATM   24  C   UNL     1     -43.818  56.168 -59.467  1.00  0.00     0.034 C 
ENDBRANCH  18  23
ENDBRANCH  16  17
ENDBRANCH  13  16
ENDBRANCH   1  12
BRANCH   7  25
HETATM   25  C   UNL     1     -41.269  55.959 -49.403  1.00  0.00     0.236 C 
BRANCH  25  26
HETATM   26  C   UNL     1     -40.449  54.832 -50.049  1.00  0.00     0.240 C 
HETATM   27  N   UNL     1     -41.161  54.139 -51.017  1.00  0.00    -0.326 N 
HETATM   28  H   UNL     1     -42.127  54.405 -51.169  1.00  0.00     0.169 HD
HETATM   29  O   UNL     1     -39.308  54.577 -49.675  1.00  0.00    -0.271 OA
BRANCH  27  30
HETATM   30  C   UNL     1     -40.692  53.068 -51.810  1.00  0.00     0.036 A 
HETATM   31  C   UNL     1     -40.222  51.859 -51.294  1.00  0.00     0.053 A 
HETATM   32  C   UNL     1     -39.767  50.847 -52.150  1.00  0.00     0.042 A 
HETATM   33 CL   UNL     1     -39.182  49.387 -51.430  1.00  0.00    -0.084 Cl
HETATM   34  C   UNL     1     -39.780  51.021 -53.541  1.00  0.00    -0.040 A 
HETATM   35  C   UNL     1     -39.295  49.954 -54.481  1.00  0.00     0.050 C 
HETATM   36  C   UNL     1     -40.247  52.238 -54.053  1.00  0.00     0.011 A 
HETATM   37  C   UNL     1     -40.694  53.250 -53.198  1.00  0.00     0.030 A 
ENDBRANCH  27  30
ENDBRANCH  25  26
ENDBRANCH   7  25
TORSDOF 7
ENDMDL
MODEL 5
REMARK VINA RESULT:      -8.0      3.083      8.546
REMARK  7 active torsions:
REMARK  status: ('A' for Active; 'I' for Inactive)
REMARK    1  A    between atoms: C_2  and  N_3 
REMARK    2  A    between atoms: C_5  and  C_6 
REMARK    3  A    between atoms: C_6  and  N_7 
REMARK       I    between atoms: N_7  and  C_8 
REMARK    4  A    between atoms: C_8  and  C_9 
REMARK    5  A    between atoms: N_15  and  C_16 
REMARK    6  A    between atoms: C_16  and  C_17 
REMARK       I    between atoms: C_17  and  N_18 
REMARK    7  A    between atoms: N_18  and  C_19 
ROOT
HETATM    1  C   UNL     1     -42.403  57.553 -51.909  1.00  0.00     0.081 A 
HETATM    2  S   UNL     1     -44.080  57.819 -51.658  1.00  0.00    -0.063 SA
HETATM    3  C   UNL     1     -44.172  58.950 -52.918  1.00  0.00     0.116 A 
HETATM    4  C   UNL     1     -42.950  59.157 -53.517  1.00  0.00     0.075 A 
HETATM    5  C   UNL     1     -42.918  60.056 -54.666  1.00  0.00     0.262 A 
HETATM    6  O   UNL     1     -41.890  60.305 -55.290  1.00  0.00    -0.267 OA
HETATM    7  N   UNL     1     -44.159  60.589 -55.008  1.00  0.00    -0.299 N 
HETATM    8  C   UNL     1     -45.303  60.279 -54.297  1.00  0.00     0.214 A 
HETATM    9  N   UNL     1     -45.358  59.511 -53.258  1.00  0.00    -0.235 NA
HETATM   10  C   UNL     1     -41.890  58.393 -52.896  1.00  0.00    -0.021 A 
HETATM   11  C   UNL     1     -40.451  58.434 -53.312  1.00  0.00     0.051 C 
ENDROOT
BRANCH   1  12
HETATM   12  C   UNL     1     -41.704  56.544 -51.118  1.00  0.00     0.259 C 
HETATM   13  N   UNL     1     -41.663  55.276 -51.666  1.00  0.00    -0.354 N 
HETATM   14  H   UNL     1     -42.067  55.203 -52.598  1.00  0.00     0.162 HD
HETATM   15  O   UNL     1     -41.184  56.765 -50.023  1.00  0.00    -0.267 OA
BRANCH  13  16
HETATM   16  C   UNL     1     -40.822  54.160 -51.240  1.00  0.00     0.156 C 
BRANCH  16  17
HETATM   17  C   UNL     1     -40.169  53.282 -52.321  1.00  0.00     0.206 C 
HETATM   18  N   UNL     1     -39.475  52.022 -51.821  1.00  0.00    -0.066 N 
HETATM   19  H   UNL     1     -38.569  52.380 -51.450  1.00  0.00     0.280 HD
HETATM   20  C   UNL     1     -39.235  51.205 -53.074  1.00  0.00     0.235 C 
HETATM   21  C   UNL     1     -40.260  51.703 -54.092  1.00  0.00     0.030 C 
HETATM   22  C   UNL     1     -41.118  52.731 -53.368  1.00  0.00     0.036 C 
BRANCH  18  23
HETATM   23  C   UNL     1     -40.143  51.246 -50.715  1.00  0.00     0.231 C 
HETATM   24  C   UNL     1     -39.734  49.784 -50.784  1.00  0.00     0.034 C 
ENDBRANCH  18  23
ENDBRANCH  16  17
ENDBRANCH  13  16
ENDBRANCH   1  12
BRANCH   7  25
HETATM   25  C   UNL     1     -44.267  61.326 -56.257  1.00  0.00     0.236 C 
BRANCH  25  26
HETATM   26  C   UNL     1     -44.095  60.350 -57.431  1.00  0.00     0.240 C 
HETATM   27  N   UNL     1     -44.847  59.194 -57.280  1.00  0.00    -0.326 N 
HETATM   28  H   UNL     1     -45.383  59.091 -56.426  1.00  0.00     0.169 HD
HETATM   29  O   UNL     1     -43.320  60.589 -58.353  1.00  0.00    -0.271 OA
BRANCH  27  30
HETATM   30  C   UNL     1     -44.931  58.112 -58.185  1.00  0.00     0.036 A 
HETATM   31  C   UNL     1     -46.031  57.865 -59.009  1.00  0.00     0.053 A 
HETATM   32  C   UNL     1     -46.038  56.764 -59.876  1.00  0.00     0.042 A 
HETATM   33 CL   UNL     1     -47.447  56.516 -60.849  1.00  0.00    -0.084 Cl
HETATM   34  C   UNL     1     -44.943  55.891 -59.942  1.00  0.00    -0.040 A 
HETATM   35  C   UNL     1     -44.927  54.702 -60.859  1.00  0.00     0.050 C 
HETATM   36  C   UNL     1     -43.845  56.141 -59.109  1.00  0.00     0.011 A 
HETATM   37  C   UNL     1     -43.841  57.236 -58.238  1.00  0.00     0.030 A 
ENDBRANCH  27  30
ENDBRANCH  25  26
ENDBRANCH   7  25
TORSDOF 7
ENDMDL
MODEL 6
REMARK VINA RESULT:      -7.9      2.749      3.724
REMARK  7 active torsions:
REMARK  status: ('A' for Active; 'I' for Inactive)
REMARK    1  A    between atoms: C_2  and  N_3 
REMARK    2  A    between atoms: C_5  and  C_6 
REMARK    3  A    between atoms: C_6  and  N_7 
REMARK       I    between atoms: N_7  and  C_8 
REMARK    4  A    between atoms: C_8  and  C_9 
REMARK    5  A    between atoms: N_15  and  C_16 
REMARK    6  A    between atoms: C_16  and  C_17 
REMARK       I    between atoms: C_17  and  N_18 
REMARK    7  A    between atoms: N_18  and  C_19 
ROOT
HETATM    1  C   UNL     1     -44.076  60.308 -54.868  1.00  0.00     0.081 A 
HETATM    2  S   UNL     1     -45.422  60.038 -53.837  1.00  0.00    -0.063 SA
HETATM    3  C   UNL     1     -44.591  58.881 -52.919  1.00  0.00     0.116 A 
HETATM    4  C   UNL     1     -43.315  58.667 -53.389  1.00  0.00     0.075 A 
HETATM    5  C   UNL     1     -42.474  57.745 -52.634  1.00  0.00     0.262 A 
HETATM    6  O   UNL     1     -41.315  57.487 -52.948  1.00  0.00    -0.267 OA
HETATM    7  N   UNL     1     -43.093  57.198 -51.511  1.00  0.00    -0.299 N 
HETATM    8  C   UNL     1     -44.394  57.517 -51.173  1.00  0.00     0.214 A 
HETATM    9  N   UNL     1     -45.173  58.307 -51.839  1.00  0.00    -0.235 NA
HETATM   10  C   UNL     1     -43.019  59.449 -54.570  1.00  0.00    -0.021 A 
HETATM   11  C   UNL     1     -41.723  59.406 -55.321  1.00  0.00     0.051 C 
ENDROOT
BRANCH   1  12
HETATM   12  C   UNL     1     -44.151  61.336 -55.902  1.00  0.00     0.259 C 
HETATM   13  N   UNL     1     -44.031  60.886 -57.204  1.00  0.00    -0.354 N 
HETATM   14  H   UNL     1     -43.973  59.874 -57.299  1.00  0.00     0.162 HD
HETATM   15  O   UNL     1     -44.296  62.537 -55.671  1.00  0.00    -0.267 OA
BRANCH  13  16
HETATM   16  C   UNL     1     -44.331  61.631 -58.424  1.00  0.00     0.156 C 
BRANCH  16  17
HETATM   17  C   UNL     1     -43.536  61.301 -59.698  1.00  0.00     0.206 C 
HETATM   18  N   UNL     1     -42.326  62.184 -59.973  1.00  0.00    -0.066 N 
HETATM   19  H   UNL     1     -42.750  63.052 -60.365  1.00  0.00     0.280 HD
HETATM   20  C   UNL     1     -41.563  61.447 -61.054  1.00  0.00     0.235 C 
HETATM   21  C   UNL     1     -41.998  59.987 -60.941  1.00  0.00     0.030 C 
HETATM   22  C   UNL     1     -42.933  59.909 -59.743  1.00  0.00     0.036 C 
BRANCH  18  23
HETATM   23  C   UNL     1     -41.471  62.587 -58.799  1.00  0.00     0.231 C 
HETATM   24  C   UNL     1     -40.007  62.609 -59.204  1.00  0.00     0.034 C 
ENDBRANCH  18  23
ENDBRANCH  16  17
ENDBRANCH  13  16
ENDBRANCH   1  12
BRANCH   7  25
HETATM   25  C   UNL     1     -42.276  56.434 -50.582  1.00  0.00     0.236 C 
BRANCH  25  26
HETATM   26  C   UNL     1     -42.181  54.983 -51.076  1.00  0.00     0.240 C 
HETATM   27  N   UNL     1     -40.993  54.721 -51.743  1.00  0.00    -0.326 N 
HETATM   28  H   UNL     1     -40.348  55.493 -51.872  1.00  0.00     0.169 HD
HETATM   29  O   UNL     1     -43.107  54.193 -50.920  1.00  0.00    -0.271 OA
BRANCH  27  30
HETATM   30  C   UNL     1     -40.586  53.488 -52.298  1.00  0.00     0.036 A 
HETATM   31  C   UNL     1     -40.152  52.396 -51.544  1.00  0.00     0.053 A 
HETATM   32  C   UNL     1     -39.757  51.207 -52.173  1.00  0.00     0.042 A 
HETATM   33 CL   UNL     1     -39.213  49.908 -51.169  1.00  0.00    -0.084 Cl
HETATM   34  C   UNL     1     -39.795  51.084 -53.568  1.00  0.00    -0.040 A 
HETATM   35  C   UNL     1     -39.374  49.823 -54.268  1.00  0.00     0.050 C 
HETATM   36  C   UNL     1     -40.226  52.184 -54.320  1.00  0.00     0.011 A 
HETATM   37  C   UNL     1     -40.613  53.373 -53.692  1.00  0.00     0.030 A 
ENDBRANCH  27  30
ENDBRANCH  25  26
ENDBRANCH   7  25
TORSDOF 7
ENDMDL
MODEL 7
REMARK VINA RESULT:      -7.7      3.440      5.642
REMARK  7 active torsions:
REMARK  status: ('A' for Active; 'I' for Inactive)
REMARK    1  A    between atoms: C_2  and  N_3 
REMARK    2  A    between atoms: C_5  and  C_6 
REMARK    3  A    between atoms: C_6  and  N_7 
REMARK       I    between atoms: N_7  and  C_8 
REMARK    4  A    between atoms: C_8  and  C_9 
REMARK    5  A    between atoms: N_15  and  C_16 
REMARK    6  A    between atoms: C_16  and  C_17 
REMARK       I    between atoms: C_17  and  N_18 
REMARK    7  A    between atoms: N_18  and  C_19 
ROOT
HETATM    1  C   UNL     1     -46.173  57.073 -59.951  1.00  0.00     0.081 A 
HETATM    2  S   UNL     1     -44.775  56.148 -60.324  1.00  0.00    -0.063 SA
HETATM    3  C   UNL     1     -44.053  56.484 -58.827  1.00  0.00     0.116 A 
HETATM    4  C   UNL     1     -44.835  57.309 -58.050  1.00  0.00     0.075 A 
HETATM    5  C   UNL     1     -44.353  57.609 -56.706  1.00  0.00     0.262 A 
HETATM    6  O   UNL     1     -44.971  58.319 -55.917  1.00  0.00    -0.267 OA
HETATM    7  N   UNL     1     -43.140  57.002 -56.387  1.00  0.00    -0.299 N 
HETATM    8  C   UNL     1     -42.473  56.195 -57.289  1.00  0.00     0.214 A 
HETATM    9  N   UNL     1     -42.860  55.935 -58.496  1.00  0.00    -0.235 NA
HETATM   10  C   UNL     1     -46.052  57.715 -58.719  1.00  0.00    -0.021 A 
HETATM   11  C   UNL     1     -47.084  58.631 -58.136  1.00  0.00     0.051 C 
ENDROOT
BRANCH   1  12
HETATM   12  C   UNL     1     -47.287  57.112 -60.894  1.00  0.00     0.259 C 
HETATM   13  N   UNL     1     -47.498  58.325 -61.521  1.00  0.00    -0.354 N 
HETATM   14  H   UNL     1     -46.806  59.041 -61.306  1.00  0.00     0.162 HD
HETATM   15  O   UNL     1     -48.023  56.153 -61.132  1.00  0.00    -0.267 OA
BRANCH  13  16
HETATM   16  C   UNL     1     -48.346  58.579 -62.683  1.00  0.00     0.156 C 
BRANCH  16  17
HETATM   17  C   UNL     1     -49.097  59.920 -62.762  1.00  0.00     0.206 C 
HETATM   18  N   UNL     1     -50.596  59.826 -63.016  1.00  0.00    -0.066 N 
HETATM   19  H   UNL     1     -50.653  59.640 -64.040  1.00  0.00     0.280 HD
HETATM   20  C   UNL     1     -51.114  61.216 -62.711  1.00  0.00     0.235 C 
HETATM   21  C   UNL     1     -50.078  61.847 -61.783  1.00  0.00     0.030 C 
HETATM   22  C   UNL     1     -49.037  60.772 -61.509  1.00  0.00     0.036 C 
BRANCH  18  23
HETATM   23  C   UNL     1     -51.358  58.732 -62.313  1.00  0.00     0.231 C 
HETATM   24  C   UNL     1     -52.682  59.269 -61.794  1.00  0.00     0.034 C 
ENDBRANCH  18  23
ENDBRANCH  16  17
ENDBRANCH  13  16
ENDBRANCH   1  12
BRANCH   7  25
HETATM   25  C   UNL     1     -42.682  57.070 -55.008  1.00  0.00     0.236 C 
BRANCH  25  26
HETATM   26  C   UNL     1     -42.551  55.644 -54.454  1.00  0.00     0.240 C 
HETATM   27  N   UNL     1     -41.260  55.346 -54.042  1.00  0.00    -0.326 N 
HETATM   28  H   UNL     1     -40.549  56.055 -54.179  1.00  0.00     0.169 HD
HETATM   29  O   UNL     1     -43.504  54.870 -54.449  1.00  0.00    -0.271 OA
BRANCH  27  30
HETATM   30  C   UNL     1     -40.811  54.136 -53.467  1.00  0.00     0.036 A 
HETATM   31  C   UNL     1     -40.538  52.977 -54.197  1.00  0.00     0.053 A 
HETATM   32  C   UNL     1     -40.102  51.813 -53.549  1.00  0.00     0.042 A 
HETATM   33 CL   UNL     1     -39.804  50.415 -54.522  1.00  0.00    -0.084 Cl
HETATM   34  C   UNL     1     -39.924  51.786 -52.159  1.00  0.00    -0.040 A 
HETATM   35  C   UNL     1     -39.462  50.551 -51.439  1.00  0.00     0.050 C 
HETATM   36  C   UNL     1     -40.205  52.950 -51.432  1.00  0.00     0.011 A 
HETATM   37  C   UNL     1     -40.647  54.109 -52.078  1.00  0.00     0.030 A 
ENDBRANCH  27  30
ENDBRANCH  25  26
ENDBRANCH   7  25
TORSDOF 7
ENDMDL
MODEL 8
REMARK VINA RESULT:      -7.6      4.764      7.643
REMARK  7 active torsions:
REMARK  status: ('A' for Active; 'I' for Inactive)
REMARK    1  A    between atoms: C_2  and  N_3 
REMARK    2  A    between atoms: C_5  and  C_6 
REMARK    3  A    between atoms: C_6  and  N_7 
REMARK       I    between atoms: N_7  and  C_8 
REMARK    4  A    between atoms: C_8  and  C_9 
REMARK    5  A    between atoms: N_15  and  C_16 
REMARK    6  A    between atoms: C_16  and  C_17 
REMARK       I    between atoms: C_17  and  N_18 
REMARK    7  A    between atoms: N_18  and  C_19 
ROOT
HETATM    1  C   UNL     1     -43.154  61.360 -51.479  1.00  0.00     0.081 A 
HETATM    2  S   UNL     1     -42.011  60.409 -50.621  1.00  0.00    -0.063 SA
HETATM    3  C   UNL     1     -42.032  59.182 -51.791  1.00  0.00     0.116 A 
HETATM    4  C   UNL     1     -42.910  59.458 -52.814  1.00  0.00     0.075 A 
HETATM    5  C   UNL     1     -42.961  58.508 -53.921  1.00  0.00     0.262 A 
HETATM    6  O   UNL     1     -43.693  58.657 -54.895  1.00  0.00    -0.267 OA
HETATM    7  N   UNL     1     -42.090  57.429 -53.785  1.00  0.00    -0.299 N 
HETATM    8  C   UNL     1     -41.265  57.295 -52.684  1.00  0.00     0.214 A 
HETATM    9  N   UNL     1     -41.220  58.104 -51.676  1.00  0.00    -0.235 NA
HETATM   10  C   UNL     1     -43.623  60.702 -52.615  1.00  0.00    -0.021 A 
HETATM   11  C   UNL     1     -44.662  61.249 -53.545  1.00  0.00     0.051 C 
ENDROOT
BRANCH   1  12
HETATM   12  C   UNL     1     -43.518  62.682 -50.977  1.00  0.00     0.259 C 
HETATM   13  N   UNL     1     -44.360  62.694 -49.880  1.00  0.00    -0.354 N 
HETATM   14  H   UNL     1     -44.577  61.774 -49.501  1.00  0.00     0.162 HD
HETATM   15  O   UNL     1     -43.134  63.739 -51.477  1.00  0.00    -0.267 OA
BRANCH  13  16
HETATM   16  C   UNL     1     -44.666  63.833 -49.019  1.00  0.00     0.156 C 
BRANCH  16  17
HETATM   17  C   UNL     1     -45.214  63.558 -47.608  1.00  0.00     0.206 C 
HETATM   18  N   UNL     1     -46.718  63.730 -47.436  1.00  0.00    -0.066 N 
HETATM   19  H   UNL     1     -46.833  64.763 -47.368  1.00  0.00     0.280 HD
HETATM   20  C   UNL     1     -47.016  63.085 -46.098  1.00  0.00     0.235 C 
HETATM   21  C   UNL     1     -45.870  62.107 -45.848  1.00  0.00     0.030 C 
HETATM   22  C   UNL     1     -44.990  62.151 -47.089  1.00  0.00     0.036 C 
BRANCH  18  23
HETATM   23  C   UNL     1     -47.610  63.246 -48.550  1.00  0.00     0.231 C 
HETATM   24  C   UNL     1     -48.893  64.060 -48.581  1.00  0.00     0.034 C 
ENDBRANCH  18  23
ENDBRANCH  16  17
ENDBRANCH  13  16
ENDBRANCH   1  12
BRANCH   7  25
HETATM   25  C   UNL     1     -41.916  56.542 -54.925  1.00  0.00     0.236 C 
BRANCH  25  26
HETATM   26  C   UNL     1     -40.946  55.415 -54.539  1.00  0.00     0.240 C 
HETATM   27  N   UNL     1     -41.514  54.494 -53.671  1.00  0.00    -0.326 N 
HETATM   28  H   UNL     1     -42.462  54.670 -53.356  1.00  0.00     0.169 HD
HETATM   29  O   UNL     1     -39.786  55.407 -54.939  1.00  0.00    -0.271 OA
BRANCH  27  30
HETATM   30  C   UNL     1     -40.903  53.334 -53.146  1.00  0.00     0.036 A 
HETATM   31  C   UNL     1     -40.520  52.235 -53.916  1.00  0.00     0.053 A 
HETATM   32  C   UNL     1     -39.924  51.117 -53.316  1.00  0.00     0.042 A 
HETATM   33 CL   UNL     1     -39.497  49.788 -54.338  1.00  0.00    -0.084 Cl
HETATM   34  C   UNL     1     -39.693  51.079 -51.935  1.00  0.00    -0.040 A 
HETATM   35  C   UNL     1     -39.059  49.892 -51.266  1.00  0.00     0.050 C 
HETATM   36  C   UNL     1     -40.084  52.183 -51.166  1.00  0.00     0.011 A 
HETATM   37  C   UNL     1     -40.685  53.295 -51.764  1.00  0.00     0.030 A 
ENDBRANCH  27  30
ENDBRANCH  25  26
ENDBRANCH   7  25
TORSDOF 7
ENDMDL
MODEL 9
REMARK VINA RESULT:      -7.4      4.916      5.967
REMARK  7 active torsions:
REMARK  status: ('A' for Active; 'I' for Inactive)
REMARK    1  A    between atoms: C_2  and  N_3 
REMARK    2  A    between atoms: C_5  and  C_6 
REMARK    3  A    between atoms: C_6  and  N_7 
REMARK       I    between atoms: N_7  and  C_8 
REMARK    4  A    between atoms: C_8  and  C_9 
REMARK    5  A    between atoms: N_15  and  C_16 
REMARK    6  A    between atoms: C_16  and  C_17 
REMARK       I    between atoms: C_17  and  N_18 
REMARK    7  A    between atoms: N_18  and  C_19 
ROOT
HETATM    1  C   UNL     1     -46.300  61.359 -53.599  1.00  0.00     0.081 A 
HETATM    2  S   UNL     1     -46.768  60.713 -52.080  1.00  0.00    -0.063 SA
HETATM    3  C   UNL     1     -45.429  59.675 -52.017  1.00  0.00     0.116 A 
HETATM    4  C   UNL     1     -44.638  59.783 -53.139  1.00  0.00     0.075 A 
HETATM    5  C   UNL     1     -43.413  58.992 -53.167  1.00  0.00     0.262 A 
HETATM    6  O   UNL     1     -42.622  59.018 -54.106  1.00  0.00    -0.267 OA
HETATM    7  N   UNL     1     -43.206  58.221 -52.024  1.00  0.00    -0.299 N 
HETATM    8  C   UNL     1     -44.106  58.223 -50.975  1.00  0.00     0.214 A 
HETATM    9  N   UNL     1     -45.214  58.889 -50.935  1.00  0.00    -0.235 NA
HETATM   10  C   UNL     1     -45.169  60.720 -54.105  1.00  0.00    -0.021 A 
HETATM   11  C   UNL     1     -44.544  61.026 -55.432  1.00  0.00     0.051 C 
ENDROOT
BRANCH   1  12
HETATM   12  C   UNL     1     -47.077  62.443 -54.195  1.00  0.00     0.259 C 
HETATM   13  N   UNL     1     -48.404  62.156 -54.454  1.00  0.00    -0.354 N 
HETATM   14  H   UNL     1     -48.710  61.239 -54.134  1.00  0.00     0.162 HD
HETATM   15  O   UNL     1     -46.614  63.549 -54.476  1.00  0.00    -0.267 OA
BRANCH  13  16
HETATM   16  C   UNL     1     -49.461  63.107 -54.786  1.00  0.00     0.156 C 
BRANCH  16  17
HETATM   17  C   UNL     1     -50.670  63.219 -53.841  1.00  0.00     0.206 C 
HETATM   18  N   UNL     1     -52.030  63.347 -54.514  1.00  0.00    -0.066 N 
HETATM   19  H   UNL     1     -52.059  64.348 -54.802  1.00  0.00     0.280 HD
HETATM   20  C   UNL     1     -53.024  63.098 -53.399  1.00  0.00     0.235 C 
HETATM   21  C   UNL     1     -52.265  62.299 -52.342  1.00  0.00     0.030 C 
HETATM   22  C   UNL     1     -50.881  62.035 -52.916  1.00  0.00     0.036 C 
BRANCH  18  23
HETATM   23  C   UNL     1     -52.283  62.514 -55.745  1.00  0.00     0.231 C 
HETATM   24  C   UNL     1     -52.315  63.402 -56.978  1.00  0.00     0.034 C 
ENDBRANCH  18  23
ENDBRANCH  16  17
ENDBRANCH  13  16
ENDBRANCH   1  12
BRANCH   7  25
HETATM   25  C   UNL     1     -41.919  57.562 -51.866  1.00  0.00     0.236 C 
BRANCH  25  26
HETATM   26  C   UNL     1     -42.051  56.096 -52.304  1.00  0.00     0.240 C 
HETATM   27  N   UNL     1     -40.822  55.475 -52.472  1.00  0.00    -0.326 N 
HETATM   28  H   UNL     1     -39.990  56.038 -52.335  1.00  0.00     0.169 HD
HETATM   29  O   UNL     1     -43.148  55.590 -52.524  1.00  0.00    -0.271 OA
BRANCH  27  30
HETATM   30  C   UNL     1     -40.594  54.131 -52.845  1.00  0.00     0.036 A 
HETATM   31  C   UNL     1     -40.281  53.111 -51.945  1.00  0.00     0.053 A 
HETATM   32  C   UNL     1     -40.062  51.804 -52.397  1.00  0.00     0.042 A 
HETATM   33 CL   UNL     1     -39.660  50.602 -51.220  1.00  0.00    -0.084 Cl
HETATM   34  C   UNL     1     -40.158  51.487 -53.759  1.00  0.00    -0.040 A 
HETATM   35  C   UNL     1     -39.924  50.094 -54.272  1.00  0.00     0.050 C 
HETATM   36  C   UNL     1     -40.466  52.516 -54.659  1.00  0.00     0.011 A 
HETATM   37  C   UNL     1     -40.677  53.822 -54.207  1.00  0.00     0.030 A 
ENDBRANCH  27  30
ENDBRANCH  25  26
ENDBRANCH   7  25
TORSDOF 7
ENDMDL
MODEL 10
REMARK VINA RESULT:      -7.4      2.552      3.042
REMARK  7 active torsions:
REMARK  status: ('A' for Active; 'I' for Inactive)
REMARK    1  A    between atoms: C_2  and  N_3 
REMARK    2  A    between atoms: C_5  and  C_6 
REMARK    3  A    between atoms: C_6  and  N_7 
REMARK       I    between atoms: N_7  and  C_8 
REMARK    4  A    between atoms: C_8  and  C_9 
REMARK    5  A    between atoms: N_15  and  C_16 
REMARK    6  A    between atoms: C_16  and  C_17 
REMARK       I    between atoms: C_17  and  N_18 
REMARK    7  A    between atoms: N_18  and  C_19 
ROOT
HETATM    1  C   UNL     1     -44.182  60.393 -54.604  1.00  0.00     0.081 A 
HETATM    2  S   UNL     1     -45.494  60.033 -53.556  1.00  0.00    -0.063 SA
HETATM    3  C   UNL     1     -44.602  58.871 -52.704  1.00  0.00     0.116 A 
HETATM    4  C   UNL     1     -43.330  58.723 -53.209  1.00  0.00     0.075 A 
HETATM    5  C   UNL     1     -42.440  57.802 -52.510  1.00  0.00     0.262 A 
HETATM    6  O   UNL     1     -41.280  57.600 -52.858  1.00  0.00    -0.267 OA
HETATM    7  N   UNL     1     -43.014  57.189 -51.398  1.00  0.00    -0.299 N 
HETATM    8  C   UNL     1     -44.318  57.447 -51.019  1.00  0.00     0.214 A 
HETATM    9  N   UNL     1     -45.139  58.234 -51.636  1.00  0.00    -0.235 NA
HETATM   10  C   UNL     1     -43.089  59.562 -54.363  1.00  0.00    -0.021 A 
HETATM   11  C   UNL     1     -41.810  59.597 -55.143  1.00  0.00     0.051 C 
ENDROOT
BRANCH   1  12
HETATM   12  C   UNL     1     -44.317  61.458 -55.593  1.00  0.00     0.259 C 
HETATM   13  N   UNL     1     -44.395  61.045 -56.910  1.00  0.00    -0.354 N 
HETATM   14  H   UNL     1     -44.420  60.036 -57.037  1.00  0.00     0.162 HD
HETATM   15  O   UNL     1     -44.348  62.658 -55.315  1.00  0.00    -0.267 OA
BRANCH  13  16
HETATM   16  C   UNL     1     -44.796  61.850 -58.061  1.00  0.00     0.156 C 
BRANCH  16  17
HETATM   17  C   UNL     1     -44.904  61.162 -59.433  1.00  0.00     0.206 C 
HETATM   18  N   UNL     1     -46.151  60.316 -59.654  1.00  0.00    -0.066 N 
HETATM   19  H   UNL     1     -45.935  59.436 -59.139  1.00  0.00     0.280 HD
HETATM   20  C   UNL     1     -46.164  60.053 -61.146  1.00  0.00     0.235 C 
HETATM   21  C   UNL     1     -45.331  61.173 -61.768  1.00  0.00     0.030 C 
HETATM   22  C   UNL     1     -44.935  62.097 -60.626  1.00  0.00     0.036 C 
BRANCH  18  23
HETATM   23  C   UNL     1     -47.459  60.844 -59.124  1.00  0.00     0.231 C 
HETATM   24  C   UNL     1     -48.024  59.889 -58.085  1.00  0.00     0.034 C 
ENDBRANCH  18  23
ENDBRANCH  16  17
ENDBRANCH  13  16
ENDBRANCH   1  12
BRANCH   7  25
HETATM   25  C   UNL     1     -42.150  56.419 -50.518  1.00  0.00     0.236 C 
BRANCH  25  26
HETATM   26  C   UNL     1     -42.081  54.971 -51.026  1.00  0.00     0.240 C 
HETATM   27  N   UNL     1     -40.907  54.700 -51.714  1.00  0.00    -0.326 N 
HETATM   28  H   UNL     1     -40.254  55.464 -51.846  1.00  0.00     0.169 HD
HETATM   29  O   UNL     1     -43.015  54.192 -50.863  1.00  0.00    -0.271 OA
BRANCH  27  30
HETATM   30  C   UNL     1     -40.525  53.467 -52.286  1.00  0.00     0.036 A 
HETATM   31  C   UNL     1     -40.095  52.362 -51.549  1.00  0.00     0.053 A 
HETATM   32  C   UNL     1     -39.725  51.174 -52.194  1.00  0.00     0.042 A 
HETATM   33 CL   UNL     1     -39.185  49.858 -51.210  1.00  0.00    -0.084 Cl
HETATM   34  C   UNL     1     -39.784  51.065 -53.590  1.00  0.00    -0.040 A 
HETATM   35  C   UNL     1     -39.391  49.805 -54.307  1.00  0.00     0.050 C 
HETATM   36  C   UNL     1     -40.211  52.178 -54.325  1.00  0.00     0.011 A 
HETATM   37  C   UNL     1     -40.573  53.365 -53.681  1.00  0.00     0.030 A 
ENDBRANCH  27  30
ENDBRANCH  25  26
ENDBRANCH   7  25
TORSDOF 7
ENDMDL
