MODEL 1
REMARK VINA RESULT:      -7.6      0.000      0.000
REMARK  2 active torsions:
REMARK  status: ('A' for Active; 'I' for Inactive)
REMARK    1  A    between atoms: C_5  and  C_6 
REMARK       I    between atoms: C_6  and  N_7 
REMARK    2  A    between atoms: N_7  and  C_8 
ROOT
HETATM    1  C   UNL     1     -43.014  56.857 -56.373  1.00  0.00     0.262 C 
HETATM    2  N   UNL     1     -41.768  56.291 -56.233  1.00  0.00    -0.306 N 
HETATM    3  O   UNL     1     -43.940  56.816 -55.568  1.00  0.00    -0.267 OA
HETATM    4  H   UNL     1     -41.094  56.413 -56.986  1.00  0.00     0.170 HD
ENDROOT
BRANCH   2   5
HETATM    5  C   UNL     1     -41.342  55.533 -55.165  1.00  0.00     0.152 A 
HETATM    6  N   UNL     1     -41.202  55.963 -53.912  1.00  0.00    -0.156 NA
HETATM    7  N   UNL     1     -40.792  54.886 -53.229  1.00  0.00    -0.275 N 
HETATM    8  H   UNL     1     -40.623  54.983 -52.234  1.00  0.00     0.189 HD
HETATM    9  C   UNL     1     -40.664  53.757 -53.993  1.00  0.00     0.071 A 
HETATM   10  C   UNL     1     -40.266  52.476 -53.484  1.00  0.00     0.034 A 
HETATM   11  C   UNL     1     -41.005  54.160 -55.267  1.00  0.00     0.084 A 
HETATM   12  S   UNL     1     -39.909  52.226 -51.820  1.00  0.00    -0.076 SA
HETATM   13  C   UNL     1     -40.122  51.301 -54.201  1.00  0.00     0.023 A 
HETATM   14  C   UNL     1     -39.582  50.589 -52.076  1.00  0.00     0.075 A 
HETATM   15 CL   UNL     1     -39.124  49.593 -50.754  1.00  0.00    -0.076 Cl
HETATM   16  C   UNL     1     -39.725  50.201 -53.381  1.00  0.00     0.033 A 
ENDBRANCH   2   5
BRANCH   1  17
HETATM   17  C   UNL     1     -43.202  57.574 -57.672  1.00  0.00     0.097 A 
HETATM   18  C   UNL     1     -43.556  58.871 -57.663  1.00  0.00     0.109 A 
HETATM   19  N   UNL     1     -43.765  59.612 -58.799  1.00  0.00    -0.368 N 
HETATM   20  C   UNL     1     -43.627  59.079 -60.062  1.00  0.00     0.008 A 
HETATM   21  H   UNL     1     -44.041  60.587 -58.701  1.00  0.00     0.165 HD
HETATM   22  C   UNL     1     -43.886  59.982 -61.232  1.00  0.00     0.068 C 
HETATM   23  C   UNL     1     -43.271  57.792 -60.224  1.00  0.00     0.080 A 
HETATM   24  C   UNL     1     -43.038  56.951 -59.018  1.00  0.00     0.190 A 
HETATM   25  O   UNL     1     -42.724  55.768 -59.148  1.00  0.00    -0.287 OA
ENDBRANCH   1  17
TORSDOF 2
ENDMDL
MODEL 2
REMARK VINA RESULT:      -7.4      4.529      8.898
REMARK  2 active torsions:
REMARK  status: ('A' for Active; 'I' for Inactive)
REMARK    1  A    between atoms: C_5  and  C_6 
REMARK       I    between atoms: C_6  and  N_7 
REMARK    2  A    between atoms: N_7  and  C_8 
ROOT
HETATM    1  C   UNL     1     -40.832  54.088 -54.313  1.00  0.00     0.262 C 
HETATM    2  N   UNL     1     -42.169  54.409 -54.263  1.00  0.00    -0.306 N 
HETATM    3  O   UNL     1     -39.983  54.570 -55.058  1.00  0.00    -0.267 OA
HETATM    4  H   UNL     1     -42.756  53.929 -53.585  1.00  0.00     0.170 HD
ENDROOT
BRANCH   2   5
HETATM    5  C   UNL     1     -42.811  55.316 -55.077  1.00  0.00     0.152 A 
HETATM    6  N   UNL     1     -43.792  56.137 -54.706  1.00  0.00    -0.156 NA
HETATM    7  N   UNL     1     -44.083  56.837 -55.811  1.00  0.00    -0.275 N 
HETATM    8  H   UNL     1     -44.813  57.538 -55.758  1.00  0.00     0.189 HD
HETATM    9  C   UNL     1     -43.318  56.506 -56.897  1.00  0.00     0.071 A 
HETATM   10  C   UNL     1     -43.425  57.133 -58.183  1.00  0.00     0.034 A 
HETATM   11  C   UNL     1     -42.488  55.502 -56.444  1.00  0.00     0.084 A 
HETATM   12  S   UNL     1     -44.548  58.400 -58.491  1.00  0.00    -0.076 SA
HETATM   13  C   UNL     1     -42.682  56.847 -59.315  1.00  0.00     0.023 A 
HETATM   14  C   UNL     1     -44.030  58.549 -60.092  1.00  0.00     0.075 A 
HETATM   15 CL   UNL     1     -44.752  59.722 -61.117  1.00  0.00    -0.076 Cl
HETATM   16  C   UNL     1     -43.033  57.673 -60.427  1.00  0.00     0.033 A 
ENDBRANCH   2   5
BRANCH   1  17
HETATM   17  C   UNL     1     -40.437  53.023 -53.341  1.00  0.00     0.097 A 
HETATM   18  C   UNL     1     -40.021  51.831 -53.803  1.00  0.00     0.109 A 
HETATM   19  N   UNL     1     -39.649  50.787 -52.995  1.00  0.00    -0.368 N 
HETATM   20  C   UNL     1     -39.672  50.875 -51.621  1.00  0.00     0.008 A 
HETATM   21  H   UNL     1     -39.356  49.915 -53.430  1.00  0.00     0.165 HD
HETATM   22  C   UNL     1     -39.250  49.667 -50.836  1.00  0.00     0.068 C 
HETATM   23  C   UNL     1     -40.063  52.011 -51.017  1.00  0.00     0.080 A 
HETATM   24  C   UNL     1     -40.478  53.169 -51.857  1.00  0.00     0.190 A 
HETATM   25  O   UNL     1     -40.850  54.212 -51.321  1.00  0.00    -0.287 OA
ENDBRANCH   1  17
TORSDOF 2
ENDMDL
MODEL 3
REMARK VINA RESULT:      -7.4      6.245      8.926
REMARK  2 active torsions:
REMARK  status: ('A' for Active; 'I' for Inactive)
REMARK    1  A    between atoms: C_5  and  C_6 
REMARK       I    between atoms: C_6  and  N_7 
REMARK    2  A    between atoms: N_7  and  C_8 
ROOT
HETATM    1  C   UNL     1     -41.365  54.489 -51.385  1.00  0.00     0.262 C 
HETATM    2  N   UNL     1     -41.585  55.630 -52.123  1.00  0.00    -0.306 N 
HETATM    3  O   UNL     1     -41.517  54.350 -50.175  1.00  0.00    -0.267 OA
HETATM    4  H   UNL     1     -41.421  55.595 -53.126  1.00  0.00     0.170 HD
ENDROOT
BRANCH   2   5
HETATM    5  C   UNL     1     -41.987  56.848 -51.622  1.00  0.00     0.152 A 
HETATM    6  N   UNL     1     -41.236  57.680 -50.903  1.00  0.00    -0.156 NA
HETATM    7  N   UNL     1     -42.031  58.731 -50.663  1.00  0.00    -0.275 N 
HETATM    8  H   UNL     1     -41.657  59.504 -50.124  1.00  0.00     0.189 HD
HETATM    9  C   UNL     1     -43.282  58.619 -51.207  1.00  0.00     0.071 A 
HETATM   10  C   UNL     1     -44.301  59.625 -51.108  1.00  0.00     0.034 A 
HETATM   11  C   UNL     1     -43.282  57.387 -51.828  1.00  0.00     0.084 A 
HETATM   12  S   UNL     1     -44.041  61.110 -50.281  1.00  0.00    -0.076 SA
HETATM   13  C   UNL     1     -45.579  59.573 -51.638  1.00  0.00     0.023 A 
HETATM   14  C   UNL     1     -45.599  61.652 -50.641  1.00  0.00     0.075 A 
HETATM   15 CL   UNL     1     -46.112  63.199 -50.101  1.00  0.00    -0.076 Cl
HETATM   16  C   UNL     1     -46.335  60.754 -51.367  1.00  0.00     0.033 A 
ENDBRANCH   2   5
BRANCH   1  17
HETATM   17  C   UNL     1     -40.876  53.335 -52.201  1.00  0.00     0.097 A 
HETATM   18  C   UNL     1     -40.006  52.466 -51.658  1.00  0.00     0.109 A 
HETATM   19  N   UNL     1     -39.490  51.385 -52.326  1.00  0.00    -0.368 N 
HETATM   20  C   UNL     1     -39.825  51.097 -53.631  1.00  0.00     0.008 A 
HETATM   21  H   UNL     1     -38.829  50.782 -51.841  1.00  0.00     0.165 HD
HETATM   22  C   UNL     1     -39.194  49.891 -54.264  1.00  0.00     0.068 C 
HETATM   23  C   UNL     1     -40.690  51.880 -54.301  1.00  0.00     0.080 A 
HETATM   24  C   UNL     1     -41.271  53.065 -53.614  1.00  0.00     0.190 A 
HETATM   25  O   UNL     1     -42.054  53.799 -54.216  1.00  0.00    -0.287 OA
ENDBRANCH   1  17
TORSDOF 2
ENDMDL
MODEL 4
REMARK VINA RESULT:      -7.2      6.182      8.901
REMARK  2 active torsions:
REMARK  status: ('A' for Active; 'I' for Inactive)
REMARK    1  A    between atoms: C_5  and  C_6 
REMARK       I    between atoms: C_6  and  N_7 
REMARK    2  A    between atoms: N_7  and  C_8 
ROOT
HETATM    1  C   UNL     1     -40.961  55.197 -52.984  1.00  0.00     0.262 C 
HETATM    2  N   UNL     1     -41.416  55.529 -51.728  1.00  0.00    -0.306 N 
HETATM    3  O   UNL     1     -40.886  55.936 -53.962  1.00  0.00    -0.267 OA
HETATM    4  H   UNL     1     -41.415  54.810 -51.008  1.00  0.00     0.170 HD
ENDROOT
BRANCH   2   5
HETATM    5  C   UNL     1     -41.910  56.757 -51.348  1.00  0.00     0.152 A 
HETATM    6  N   UNL     1     -41.269  57.659 -50.608  1.00  0.00    -0.156 NA
HETATM    7  N   UNL     1     -42.120  58.689 -50.517  1.00  0.00    -0.275 N 
HETATM    8  H   UNL     1     -41.832  59.507 -49.991  1.00  0.00     0.189 HD
HETATM    9  C   UNL     1     -43.302  58.495 -51.180  1.00  0.00     0.071 A 
HETATM   10  C   UNL     1     -44.359  59.463 -51.251  1.00  0.00     0.034 A 
HETATM   11  C   UNL     1     -43.193  57.231 -51.720  1.00  0.00     0.084 A 
HETATM   12  S   UNL     1     -44.239  61.003 -50.494  1.00  0.00    -0.076 SA
HETATM   13  C   UNL     1     -45.571  59.328 -51.906  1.00  0.00     0.023 A 
HETATM   14  C   UNL     1     -45.768  61.459 -51.048  1.00  0.00     0.075 A 
HETATM   15 CL   UNL     1     -46.388  63.013 -50.661  1.00  0.00    -0.076 Cl
HETATM   16  C   UNL     1     -46.391  60.492 -51.789  1.00  0.00     0.033 A 
ENDBRANCH   2   5
BRANCH   1  17
HETATM   17  C   UNL     1     -40.541  53.768 -53.109  1.00  0.00     0.097 A 
HETATM   18  C   UNL     1     -40.695  53.136 -54.285  1.00  0.00     0.109 A 
HETATM   19  N   UNL     1     -40.353  51.825 -54.498  1.00  0.00    -0.368 N 
HETATM   20  C   UNL     1     -39.816  51.034 -53.507  1.00  0.00     0.008 A 
HETATM   21  H   UNL     1     -40.513  51.423 -55.419  1.00  0.00     0.165 HD
HETATM   22  C   UNL     1     -39.486  49.611 -53.851  1.00  0.00     0.068 C 
HETATM   23  C   UNL     1     -39.601  51.534 -52.276  1.00  0.00     0.080 A 
HETATM   24  C   UNL     1     -39.961  52.952 -52.002  1.00  0.00     0.190 A 
HETATM   25  O   UNL     1     -39.783  53.423 -50.879  1.00  0.00    -0.287 OA
ENDBRANCH   1  17
TORSDOF 2
ENDMDL
MODEL 5
REMARK VINA RESULT:      -7.1      5.280      6.658
REMARK  2 active torsions:
REMARK  status: ('A' for Active; 'I' for Inactive)
REMARK    1  A    between atoms: C_5  and  C_6 
REMARK       I    between atoms: C_6  and  N_7 
REMARK    2  A    between atoms: N_7  and  C_8 
ROOT
HETATM    1  C   UNL     1     -43.547  58.822 -51.956  1.00  0.00     0.262 C 
HETATM    2  N   UNL     1     -43.567  57.527 -51.492  1.00  0.00    -0.306 N 
HETATM    3  O   UNL     1     -43.196  59.203 -53.070  1.00  0.00    -0.267 OA
HETATM    4  H   UNL     1     -43.890  57.359 -50.542  1.00  0.00     0.170 HD
ENDROOT
BRANCH   2   5
HETATM    5  C   UNL     1     -43.157  56.413 -52.192  1.00  0.00     0.152 A 
HETATM    6  N   UNL     1     -43.597  56.042 -53.392  1.00  0.00    -0.156 NA
HETATM    7  N   UNL     1     -42.908  54.929 -53.675  1.00  0.00    -0.275 N 
HETATM    8  H   UNL     1     -43.083  54.468 -54.561  1.00  0.00     0.189 HD
HETATM    9  C   UNL     1     -42.022  54.559 -52.700  1.00  0.00     0.071 A 
HETATM   10  C   UNL     1     -41.154  53.420 -52.786  1.00  0.00     0.034 A 
HETATM   11  C   UNL     1     -42.177  55.508 -51.712  1.00  0.00     0.084 A 
HETATM   12  S   UNL     1     -41.137  52.385 -54.160  1.00  0.00    -0.076 SA
HETATM   13  C   UNL     1     -40.237  52.996 -51.839  1.00  0.00     0.023 A 
HETATM   14  C   UNL     1     -39.928  51.415 -53.489  1.00  0.00     0.075 A 
HETATM   15 CL   UNL     1     -39.335  50.063 -54.364  1.00  0.00    -0.076 Cl
HETATM   16  C   UNL     1     -39.522  51.829 -52.249  1.00  0.00     0.033 A 
ENDBRANCH   2   5
BRANCH   1  17
HETATM   17  C   UNL     1     -43.998  59.826 -50.945  1.00  0.00     0.097 A 
HETATM   18  C   UNL     1     -43.212  60.881 -50.668  1.00  0.00     0.109 A 
HETATM   19  N   UNL     1     -43.529  61.849 -49.748  1.00  0.00    -0.368 N 
HETATM   20  C   UNL     1     -44.699  61.818 -49.022  1.00  0.00     0.008 A 
HETATM   21  H   UNL     1     -42.871  62.609 -49.594  1.00  0.00     0.165 HD
HETATM   22  C   UNL     1     -44.940  62.927 -48.039  1.00  0.00     0.068 C 
HETATM   23  C   UNL     1     -45.586  60.822 -49.197  1.00  0.00     0.080 A 
HETATM   24  C   UNL     1     -45.279  59.749 -50.183  1.00  0.00     0.190 A 
HETATM   25  O   UNL     1     -46.073  58.824 -50.348  1.00  0.00    -0.287 OA
ENDBRANCH   1  17
TORSDOF 2
ENDMDL
MODEL 6
REMARK VINA RESULT:      -7.0     15.215     16.863
REMARK  2 active torsions:
REMARK  status: ('A' for Active; 'I' for Inactive)
REMARK    1  A    between atoms: C_5  and  C_6 
REMARK       I    between atoms: C_6  and  N_7 
REMARK    2  A    between atoms: N_7  and  C_8 
ROOT
HETATM    1  C   UNL     1     -35.219  41.789 -53.961  1.00  0.00     0.262 C 
HETATM    2  N   UNL     1     -34.271  40.802 -53.816  1.00  0.00    -0.306 N 
HETATM    3  O   UNL     1     -35.602  42.578 -53.102  1.00  0.00    -0.267 OA
HETATM    4  H   UNL     1     -34.049  40.223 -54.623  1.00  0.00     0.170 HD
ENDROOT
BRANCH   2   5
HETATM    5  C   UNL     1     -33.599  40.494 -52.654  1.00  0.00     0.152 A 
HETATM    6  N   UNL     1     -32.356  40.863 -52.352  1.00  0.00    -0.156 NA
HETATM    7  N   UNL     1     -32.141  40.360 -51.129  1.00  0.00    -0.275 N 
HETATM    8  H   UNL     1     -31.241  40.526 -50.692  1.00  0.00     0.189 HD
HETATM    9  C   UNL     1     -33.208  39.675 -50.614  1.00  0.00     0.071 A 
HETATM   10  C   UNL     1     -33.229  39.070 -49.313  1.00  0.00     0.034 A 
HETATM   11  C   UNL     1     -34.170  39.737 -51.600  1.00  0.00     0.084 A 
HETATM   12  S   UNL     1     -31.882  39.153 -48.245  1.00  0.00    -0.076 SA
HETATM   13  C   UNL     1     -34.274  38.370 -48.735  1.00  0.00     0.023 A 
HETATM   14  C   UNL     1     -32.700  38.280 -47.053  1.00  0.00     0.075 A 
HETATM   15 CL   UNL     1     -31.924  37.944 -45.558  1.00  0.00    -0.076 Cl
HETATM   16  C   UNL     1     -33.966  37.911 -47.418  1.00  0.00     0.033 A 
ENDBRANCH   2   5
BRANCH   1  17
HETATM   17  C   UNL     1     -35.818  41.845 -55.330  1.00  0.00     0.097 A 
HETATM   18  C   UNL     1     -35.055  42.229 -56.368  1.00  0.00     0.109 A 
HETATM   19  N   UNL     1     -35.513  42.325 -57.658  1.00  0.00    -0.368 N 
HETATM   20  C   UNL     1     -36.814  42.031 -58.001  1.00  0.00     0.008 A 
HETATM   21  H   UNL     1     -34.868  42.634 -58.382  1.00  0.00     0.165 HD
HETATM   22  C   UNL     1     -37.206  42.178 -59.442  1.00  0.00     0.068 C 
HETATM   23  C   UNL     1     -37.692  41.629 -57.065  1.00  0.00     0.080 A 
HETATM   24  C   UNL     1     -37.237  41.514 -55.651  1.00  0.00     0.190 A 
HETATM   25  O   UNL     1     -38.030  41.159 -54.780  1.00  0.00    -0.287 OA
ENDBRANCH   1  17
TORSDOF 2
ENDMDL
MODEL 7
REMARK VINA RESULT:      -6.8      4.641      9.036
REMARK  2 active torsions:
REMARK  status: ('A' for Active; 'I' for Inactive)
REMARK    1  A    between atoms: C_5  and  C_6 
REMARK       I    between atoms: C_6  and  N_7 
REMARK    2  A    between atoms: N_7  and  C_8 
ROOT
HETATM    1  C   UNL     1     -40.671  54.160 -54.613  1.00  0.00     0.262 C 
HETATM    2  N   UNL     1     -42.007  54.222 -54.939  1.00  0.00    -0.306 N 
HETATM    3  O   UNL     1     -39.764  54.848 -55.075  1.00  0.00    -0.267 OA
HETATM    4  H   UNL     1     -42.649  53.590 -54.467  1.00  0.00     0.170 HD
ENDROOT
BRANCH   2   5
HETATM    5  C   UNL     1     -42.569  55.055 -55.881  1.00  0.00     0.152 A 
HETATM    6  N   UNL     1     -43.233  54.665 -56.967  1.00  0.00    -0.156 NA
HETATM    7  N   UNL     1     -43.607  55.805 -57.562  1.00  0.00    -0.275 N 
HETATM    8  H   UNL     1     -44.140  55.746 -58.423  1.00  0.00     0.189 HD
HETATM    9  C   UNL     1     -43.212  56.936 -56.898  1.00  0.00     0.071 A 
HETATM   10  C   UNL     1     -43.515  58.272 -57.324  1.00  0.00     0.034 A 
HETATM   11  C   UNL     1     -42.518  56.469 -55.802  1.00  0.00     0.084 A 
HETATM   12  S   UNL     1     -44.432  58.592 -58.745  1.00  0.00    -0.076 SA
HETATM   13  C   UNL     1     -43.150  59.451 -56.698  1.00  0.00     0.023 A 
HETATM   14  C   UNL     1     -44.336  60.260 -58.501  1.00  0.00     0.075 A 
HETATM   15 CL   UNL     1     -45.091  61.330 -59.612  1.00  0.00    -0.076 Cl
HETATM   16  C   UNL     1     -43.629  60.609 -57.382  1.00  0.00     0.033 A 
ENDBRANCH   2   5
BRANCH   1  17
HETATM   17  C   UNL     1     -40.353  53.114 -53.594  1.00  0.00     0.097 A 
HETATM   18  C   UNL     1     -40.031  51.874 -54.000  1.00  0.00     0.109 A 
HETATM   19  N   UNL     1     -39.736  50.843 -53.144  1.00  0.00    -0.368 N 
HETATM   20  C   UNL     1     -39.745  50.997 -51.776  1.00  0.00     0.008 A 
HETATM   21  H   UNL     1     -39.512  49.932 -53.538  1.00  0.00     0.165 HD
HETATM   22  C   UNL     1     -39.411  49.798 -50.936  1.00  0.00     0.068 C 
HETATM   23  C   UNL     1     -40.045  52.186 -51.225  1.00  0.00     0.080 A 
HETATM   24  C   UNL     1     -40.375  53.332 -52.118  1.00  0.00     0.190 A 
HETATM   25  O   UNL     1     -40.664  54.424 -51.631  1.00  0.00    -0.287 OA
ENDBRANCH   1  17
TORSDOF 2
ENDMDL
MODEL 8
REMARK VINA RESULT:      -6.8     15.084     17.068
REMARK  2 active torsions:
REMARK  status: ('A' for Active; 'I' for Inactive)
REMARK    1  A    between atoms: C_5  and  C_6 
REMARK       I    between atoms: C_6  and  N_7 
REMARK    2  A    between atoms: N_7  and  C_8 
ROOT
HETATM    1  C   UNL     1     -35.852  41.348 -53.649  1.00  0.00     0.262 C 
HETATM    2  N   UNL     1     -35.309  40.116 -53.367  1.00  0.00    -0.306 N 
HETATM    3  O   UNL     1     -36.158  42.223 -52.843  1.00  0.00    -0.267 OA
HETATM    4  H   UNL     1     -35.100  39.491 -54.143  1.00  0.00     0.170 HD
ENDROOT
BRANCH   2   5
HETATM    5  C   UNL     1     -35.042  39.621 -52.110  1.00  0.00     0.152 A 
HETATM    6  N   UNL     1     -35.808  38.772 -51.428  1.00  0.00    -0.156 NA
HETATM    7  N   UNL     1     -35.144  38.561 -50.284  1.00  0.00    -0.275 N 
HETATM    8  H   UNL     1     -35.550  37.931 -49.602  1.00  0.00     0.189 HD
HETATM    9  C   UNL     1     -33.960  39.242 -50.194  1.00  0.00     0.071 A 
HETATM   10  C   UNL     1     -33.061  39.158 -49.079  1.00  0.00     0.034 A 
HETATM   11  C   UNL     1     -33.878  39.955 -51.372  1.00  0.00     0.084 A 
HETATM   12  S   UNL     1     -33.389  38.162 -47.715  1.00  0.00    -0.076 SA
HETATM   13  C   UNL     1     -31.852  39.816 -48.930  1.00  0.00     0.023 A 
HETATM   14  C   UNL     1     -31.941  38.608 -46.968  1.00  0.00     0.075 A 
HETATM   15 CL   UNL     1     -31.534  37.953 -45.434  1.00  0.00    -0.076 Cl
HETATM   16  C   UNL     1     -31.199  39.495 -47.701  1.00  0.00     0.033 A 
ENDBRANCH   2   5
BRANCH   1  17
HETATM   17  C   UNL     1     -36.083  41.580 -55.108  1.00  0.00     0.097 A 
HETATM   18  C   UNL     1     -37.334  41.791 -55.552  1.00  0.00     0.109 A 
HETATM   19  N   UNL     1     -37.650  42.001 -56.871  1.00  0.00    -0.368 N 
HETATM   20  C   UNL     1     -36.696  42.013 -57.864  1.00  0.00     0.008 A 
HETATM   21  H   UNL     1     -38.626  42.143 -57.121  1.00  0.00     0.165 HD
HETATM   22  C   UNL     1     -37.158  42.245 -59.273  1.00  0.00     0.068 C 
HETATM   23  C   UNL     1     -35.399  41.819 -57.566  1.00  0.00     0.080 A 
HETATM   24  C   UNL     1     -35.012  41.585 -56.147  1.00  0.00     0.190 A 
HETATM   25  O   UNL     1     -33.831  41.394 -55.858  1.00  0.00    -0.287 OA
ENDBRANCH   1  17
TORSDOF 2
ENDMDL
MODEL 9
REMARK VINA RESULT:      -6.6      4.873      8.915
REMARK  2 active torsions:
REMARK  status: ('A' for Active; 'I' for Inactive)
REMARK    1  A    between atoms: C_5  and  C_6 
REMARK       I    between atoms: C_6  and  N_7 
REMARK    2  A    between atoms: N_7  and  C_8 
ROOT
HETATM    1  C   UNL     1     -42.573  54.834 -53.253  1.00  0.00     0.262 C 
HETATM    2  N   UNL     1     -41.724  55.391 -54.182  1.00  0.00    -0.306 N 
HETATM    3  O   UNL     1     -43.766  54.582 -53.399  1.00  0.00    -0.267 OA
HETATM    4  H   UNL     1     -40.751  55.538 -53.921  1.00  0.00     0.170 HD
ENDROOT
BRANCH   2   5
HETATM    5  C   UNL     1     -42.073  55.803 -55.449  1.00  0.00     0.152 A 
HETATM    6  N   UNL     1     -42.372  55.006 -56.473  1.00  0.00    -0.156 NA
HETATM    7  N   UNL     1     -42.665  55.842 -57.477  1.00  0.00    -0.275 N 
HETATM    8  H   UNL     1     -42.930  55.445 -58.372  1.00  0.00     0.189 HD
HETATM    9  C   UNL     1     -42.575  57.167 -57.144  1.00  0.00     0.071 A 
HETATM   10  C   UNL     1     -42.867  58.248 -58.041  1.00  0.00     0.034 A 
HETATM   11  C   UNL     1     -42.175  57.166 -55.824  1.00  0.00     0.084 A 
HETATM   12  S   UNL     1     -43.376  57.979 -59.662  1.00  0.00    -0.076 SA
HETATM   13  C   UNL     1     -42.798  59.603 -57.765  1.00  0.00     0.023 A 
HETATM   14  C   UNL     1     -43.503  59.636 -59.959  1.00  0.00     0.075 A 
HETATM   15 CL   UNL     1     -44.012  60.190 -61.503  1.00  0.00    -0.076 Cl
HETATM   16  C   UNL     1     -43.170  60.412 -58.882  1.00  0.00     0.033 A 
ENDBRANCH   2   5
BRANCH   1  17
HETATM   17  C   UNL     1     -41.916  54.543 -51.942  1.00  0.00     0.097 A 
HETATM   18  C   UNL     1     -42.413  55.091 -50.820  1.00  0.00     0.109 A 
HETATM   19  N   UNL     1     -41.876  54.895 -49.572  1.00  0.00    -0.368 N 
HETATM   20  C   UNL     1     -40.764  54.109 -49.365  1.00  0.00     0.008 A 
HETATM   21  H   UNL     1     -42.311  55.357 -48.777  1.00  0.00     0.165 HD
HETATM   22  C   UNL     1     -40.260  53.971 -47.958  1.00  0.00     0.068 C 
HETATM   23  C   UNL     1     -40.162  53.492 -50.397  1.00  0.00     0.080 A 
HETATM   24  C   UNL     1     -40.711  53.680 -51.769  1.00  0.00     0.190 A 
HETATM   25  O   UNL     1     -40.165  53.133 -52.726  1.00  0.00    -0.287 OA
ENDBRANCH   1  17
TORSDOF 2
ENDMDL
MODEL 10
REMARK VINA RESULT:      -6.5      5.284      6.419
REMARK  2 active torsions:
REMARK  status: ('A' for Active; 'I' for Inactive)
REMARK    1  A    between atoms: C_5  and  C_6 
REMARK       I    between atoms: C_6  and  N_7 
REMARK    2  A    between atoms: N_7  and  C_8 
ROOT
HETATM    1  C   UNL     1     -42.053  59.633 -50.730  1.00  0.00     0.262 C 
HETATM    2  N   UNL     1     -42.645  58.496 -51.229  1.00  0.00    -0.306 N 
HETATM    3  O   UNL     1     -40.924  59.732 -50.258  1.00  0.00    -0.267 OA
HETATM    4  H   UNL     1     -43.592  58.565 -51.597  1.00  0.00     0.170 HD
ENDROOT
BRANCH   2   5
HETATM    5  C   UNL     1     -42.083  57.239 -51.255  1.00  0.00     0.152 A 
HETATM    6  N   UNL     1     -41.748  56.513 -50.190  1.00  0.00    -0.156 NA
HETATM    7  N   UNL     1     -41.266  55.371 -50.697  1.00  0.00    -0.275 N 
HETATM    8  H   UNL     1     -40.948  54.655 -50.052  1.00  0.00     0.189 HD
HETATM    9  C   UNL     1     -41.278  55.320 -52.065  1.00  0.00     0.071 A 
HETATM   10  C   UNL     1     -40.837  54.193 -52.836  1.00  0.00     0.034 A 
HETATM   11  C   UNL     1     -41.795  56.538 -52.453  1.00  0.00     0.084 A 
HETATM   12  S   UNL     1     -40.242  52.757 -52.098  1.00  0.00    -0.076 SA
HETATM   13  C   UNL     1     -40.828  54.078 -54.215  1.00  0.00     0.023 A 
HETATM   14  C   UNL     1     -39.995  52.019 -53.597  1.00  0.00     0.075 A 
HETATM   15 CL   UNL     1     -39.368  50.422 -53.669  1.00  0.00    -0.076 Cl
HETATM   16  C   UNL     1     -40.338  52.812 -54.659  1.00  0.00     0.033 A 
ENDBRANCH   2   5
BRANCH   1  17
HETATM   17  C   UNL     1     -42.935  60.839 -50.784  1.00  0.00     0.097 A 
HETATM   18  C   UNL     1     -43.561  61.248 -49.667  1.00  0.00     0.109 A 
HETATM   19  N   UNL     1     -44.399  62.334 -49.616  1.00  0.00    -0.368 N 
HETATM   20  C   UNL     1     -44.673  63.105 -50.724  1.00  0.00     0.008 A 
HETATM   21  H   UNL     1     -44.839  62.568 -48.729  1.00  0.00     0.165 HD
HETATM   22  C   UNL     1     -45.610  64.265 -50.553  1.00  0.00     0.068 C 
HETATM   23  C   UNL     1     -44.113  62.815 -51.912  1.00  0.00     0.080 A 
HETATM   24  C   UNL     1     -43.199  61.644 -52.013  1.00  0.00     0.190 A 
HETATM   25  O   UNL     1     -42.687  61.358 -53.094  1.00  0.00    -0.287 OA
ENDBRANCH   1  17
TORSDOF 2
ENDMDL
