MODEL 1
REMARK VINA RESULT:      -9.2      0.000      0.000
REMARK  7 active torsions:
REMARK  status: ('A' for Active; 'I' for Inactive)
REMARK    1  A    between atoms: C_2  and  O_3 
REMARK    2  A    between atoms: O_3  and  C_4 
REMARK    3  A    between atoms: C_5  and  O_6 
REMARK    4  A    between atoms: C_9  and  C_10 
REMARK    5  A    between atoms: N_11  and  N_12 
REMARK       I    between atoms: N_12  and  C_13 
REMARK    6  A    between atoms: C_13  and  C_14 
REMARK    7  A    between atoms: C_18  and  C_19 
ROOT
HETATM    1  C   UNL     1     -43.179  58.471 -51.564  1.00  0.00     0.121 A 
HETATM    2  N   UNL     1     -41.967  58.930 -51.998  1.00  0.00    -0.272 N 
HETATM    3  H   UNL     1     -41.655  59.897 -52.016  1.00  0.00     0.189 HD
HETATM    4  N   UNL     1     -41.167  57.982 -52.499  1.00  0.00    -0.174 NA
HETATM    5  C   UNL     1     -41.858  56.839 -52.372  1.00  0.00     0.090 A 
HETATM    6  C   UNL     1     -43.114  57.103 -51.743  1.00  0.00     0.071 A 
ENDROOT
BRANCH   1   7
HETATM    7  C   UNL     1     -44.210  59.375 -51.118  1.00  0.00     0.289 C 
HETATM    8  N   UNL     1     -43.782  60.323 -50.197  1.00  0.00    -0.242 N 
HETATM    9  H   UNL     1     -42.794  60.539 -50.150  1.00  0.00     0.192 HD
HETATM   10  O   UNL     1     -45.362  59.264 -51.524  1.00  0.00    -0.264 OA
BRANCH   8  11
HETATM   11  N   UNL     1     -44.575  61.202 -49.497  1.00  0.00    -0.184 NA
HETATM   12  C   UNL     1     -44.598  61.087 -48.206  1.00  0.00     0.150 C 
BRANCH  12  13
HETATM   13  C   UNL     1     -45.393  61.989 -47.347  1.00  0.00    -0.014 A 
HETATM   14  C   UNL     1     -46.633  62.431 -47.827  1.00  0.00     0.016 A 
HETATM   15  C   UNL     1     -47.435  63.239 -47.025  1.00  0.00     0.040 A 
HETATM   16  C   UNL     1     -46.986  63.595 -45.760  1.00  0.00     0.099 A 
HETATM   17  C   UNL     1     -45.741  63.176 -45.272  1.00  0.00     0.102 A 
HETATM   18  C   UNL     1     -44.941  62.363 -46.073  1.00  0.00     0.052 A 
BRANCH  16  19
HETATM   19  O   UNL     1     -47.799  64.378 -44.987  1.00  0.00    -0.358 OA
HETATM   20  H   UNL     1     -47.409  65.272 -45.034  1.00  0.00     0.218 HD
ENDBRANCH  16  19
BRANCH  17  21
HETATM   21  O   UNL     1     -45.445  63.613 -44.007  1.00  0.00    -0.349 OA
BRANCH  21  22
HETATM   22  C   UNL     1     -44.095  64.007 -43.763  1.00  0.00     0.171 C 
HETATM   23  C   UNL     1     -43.517  63.060 -42.726  1.00  0.00     0.034 C 
ENDBRANCH  21  22
ENDBRANCH  17  21
ENDBRANCH  12  13
ENDBRANCH   8  11
ENDBRANCH   1   7
BRANCH   5  24
HETATM   24  C   UNL     1     -41.376  55.551 -52.901  1.00  0.00     0.005 A 
HETATM   25  C   UNL     1     -40.994  54.456 -52.063  1.00  0.00    -0.012 A 
HETATM   26  C   UNL     1     -40.513  53.341 -52.712  1.00  0.00    -0.012 A 
HETATM   27  C   UNL     1     -41.035  54.338 -50.649  1.00  0.00     0.013 A 
HETATM   28  C   UNL     1     -40.073  52.192 -52.078  1.00  0.00    -0.046 A 
HETATM   29  C   UNL     1     -40.396  53.224 -54.083  1.00  0.00    -0.046 A 
HETATM   30  C   UNL     1     -40.094  52.072 -50.697  1.00  0.00     0.008 A 
HETATM   31  C   UNL     1     -39.601  51.193 -53.076  1.00  0.00     0.044 A 
HETATM   32  C   UNL     1     -40.591  53.173 -49.988  1.00  0.00     0.001 A 
HETATM   33  C   UNL     1     -39.833  51.894 -54.448  1.00  0.00     0.044 A 
HETATM   34  C   UNL     1     -40.765  54.254 -54.930  1.00  0.00     0.009 A 
HETATM   35  C   UNL     1     -41.251  55.418 -54.313  1.00  0.00     0.015 A 
ENDBRANCH   5  24
TORSDOF 7
ENDMDL
MODEL 2
REMARK VINA RESULT:      -9.0      6.360      9.132
REMARK  7 active torsions:
REMARK  status: ('A' for Active; 'I' for Inactive)
REMARK    1  A    between atoms: C_2  and  O_3 
REMARK    2  A    between atoms: O_3  and  C_4 
REMARK    3  A    between atoms: C_5  and  O_6 
REMARK    4  A    between atoms: C_9  and  C_10 
REMARK    5  A    between atoms: N_11  and  N_12 
REMARK       I    between atoms: N_12  and  C_13 
REMARK    6  A    between atoms: C_13  and  C_14 
REMARK    7  A    between atoms: C_18  and  C_19 
ROOT
HETATM    1  C   UNL     1     -41.487  57.513 -53.254  1.00  0.00     0.121 A 
HETATM    2  N   UNL     1     -42.397  57.388 -52.243  1.00  0.00    -0.272 N 
HETATM    3  H   UNL     1     -43.049  58.098 -51.921  1.00  0.00     0.189 HD
HETATM    4  N   UNL     1     -42.347  56.216 -51.599  1.00  0.00    -0.174 NA
HETATM    5  C   UNL     1     -41.384  55.517 -52.220  1.00  0.00     0.090 A 
HETATM    6  C   UNL     1     -40.850  56.288 -53.299  1.00  0.00     0.071 A 
ENDROOT
BRANCH   1   7
HETATM    7  C   UNL     1     -41.315  58.757 -53.962  1.00  0.00     0.289 C 
HETATM    8  N   UNL     1     -41.974  58.817 -55.184  1.00  0.00    -0.242 N 
HETATM    9  H   UNL     1     -42.752  58.187 -55.344  1.00  0.00     0.192 HD
HETATM   10  O   UNL     1     -40.615  59.653 -53.500  1.00  0.00    -0.264 OA
BRANCH   8  11
HETATM   11  N   UNL     1     -41.862  59.811 -56.128  1.00  0.00    -0.184 NA
HETATM   12  C   UNL     1     -41.815  59.449 -57.372  1.00  0.00     0.150 C 
BRANCH  12  13
HETATM   13  C   UNL     1     -41.720  60.428 -58.475  1.00  0.00    -0.014 A 
HETATM   14  C   UNL     1     -42.073  60.003 -59.763  1.00  0.00     0.016 A 
HETATM   15  C   UNL     1     -42.048  60.909 -60.819  1.00  0.00     0.040 A 
HETATM   16  C   UNL     1     -41.668  62.223 -60.576  1.00  0.00     0.099 A 
HETATM   17  C   UNL     1     -41.296  62.659 -59.297  1.00  0.00     0.102 A 
HETATM   18  C   UNL     1     -41.326  61.752 -58.238  1.00  0.00     0.052 A 
BRANCH  16  19
HETATM   19  O   UNL     1     -41.665  63.097 -61.628  1.00  0.00    -0.358 OA
HETATM   20  H   UNL     1     -40.775  63.498 -61.621  1.00  0.00     0.218 HD
ENDBRANCH  16  19
BRANCH  17  21
HETATM   21  O   UNL     1     -40.946  63.982 -59.222  1.00  0.00    -0.349 OA
BRANCH  21  22
HETATM   22  C   UNL     1     -39.717  64.286 -58.564  1.00  0.00     0.171 C 
HETATM   23  C   UNL     1     -38.596  64.108 -59.573  1.00  0.00     0.034 C 
ENDBRANCH  21  22
ENDBRANCH  17  21
ENDBRANCH  12  13
ENDBRANCH   8  11
ENDBRANCH   1   7
BRANCH   5  24
HETATM   24  C   UNL     1     -40.930  54.195 -51.755  1.00  0.00     0.005 A 
HETATM   25  C   UNL     1     -40.567  53.136 -52.646  1.00  0.00    -0.012 A 
HETATM   26  C   UNL     1     -40.217  51.944 -52.053  1.00  0.00    -0.012 A 
HETATM   27  C   UNL     1     -40.510  53.123 -54.064  1.00  0.00     0.013 A 
HETATM   28  C   UNL     1     -39.858  50.799 -52.742  1.00  0.00    -0.046 A 
HETATM   29  C   UNL     1     -40.186  51.729 -50.688  1.00  0.00    -0.046 A 
HETATM   30  C   UNL     1     -39.814  50.771 -54.127  1.00  0.00     0.008 A 
HETATM   31  C   UNL     1     -39.561  49.690 -51.795  1.00  0.00     0.044 A 
HETATM   32  C   UNL     1     -40.145  51.964 -54.782  1.00  0.00     0.001 A 
HETATM   33  C   UNL     1     -39.774  50.329 -50.389  1.00  0.00     0.044 A 
HETATM   34  C   UNL     1     -40.518  52.729 -49.792  1.00  0.00     0.009 A 
HETATM   35  C   UNL     1     -40.894  53.961 -50.351  1.00  0.00     0.015 A 
ENDBRANCH   5  24
TORSDOF 7
ENDMDL
MODEL 3
REMARK VINA RESULT:      -8.9      0.956      2.399
REMARK  7 active torsions:
REMARK  status: ('A' for Active; 'I' for Inactive)
REMARK    1  A    between atoms: C_2  and  O_3 
REMARK    2  A    between atoms: O_3  and  C_4 
REMARK    3  A    between atoms: C_5  and  O_6 
REMARK    4  A    between atoms: C_9  and  C_10 
REMARK    5  A    between atoms: N_11  and  N_12 
REMARK       I    between atoms: N_12  and  C_13 
REMARK    6  A    between atoms: C_13  and  C_14 
REMARK    7  A    between atoms: C_18  and  C_19 
ROOT
HETATM    1  C   UNL     1     -43.108  58.473 -51.906  1.00  0.00     0.121 A 
HETATM    2  N   UNL     1     -41.929  58.907 -52.443  1.00  0.00    -0.272 N 
HETATM    3  H   UNL     1     -41.634  59.872 -52.562  1.00  0.00     0.189 HD
HETATM    4  N   UNL     1     -41.140  57.928 -52.900  1.00  0.00    -0.174 NA
HETATM    5  C   UNL     1     -41.804  56.792 -52.636  1.00  0.00     0.090 A 
HETATM    6  C   UNL     1     -43.030  57.096 -51.967  1.00  0.00     0.071 A 
ENDROOT
BRANCH   1   7
HETATM    7  C   UNL     1     -44.130  59.401 -51.488  1.00  0.00     0.289 C 
HETATM    8  N   UNL     1     -43.749  60.245 -50.452  1.00  0.00    -0.242 N 
HETATM    9  H   UNL     1     -42.760  60.397 -50.292  1.00  0.00     0.192 HD
HETATM   10  O   UNL     1     -45.240  59.392 -52.011  1.00  0.00    -0.264 OA
BRANCH   8  11
HETATM   11  N   UNL     1     -44.561  61.113 -49.761  1.00  0.00    -0.184 NA
HETATM   12  C   UNL     1     -44.644  60.958 -48.476  1.00  0.00     0.150 C 
BRANCH  12  13
HETATM   13  C   UNL     1     -45.465  61.844 -47.625  1.00  0.00    -0.014 A 
HETATM   14  C   UNL     1     -45.067  62.032 -46.295  1.00  0.00     0.016 A 
HETATM   15  C   UNL     1     -45.784  62.900 -45.477  1.00  0.00     0.040 A 
HETATM   16  C   UNL     1     -46.887  63.565 -45.996  1.00  0.00     0.099 A 
HETATM   17  C   UNL     1     -47.308  63.376 -47.320  1.00  0.00     0.102 A 
HETATM   18  C   UNL     1     -46.586  62.509 -48.140  1.00  0.00     0.052 A 
BRANCH  16  19
HETATM   19  O   UNL     1     -47.565  64.424 -45.176  1.00  0.00    -0.358 OA
HETATM   20  H   UNL     1     -47.062  64.424 -44.338  1.00  0.00     0.218 HD
ENDBRANCH  16  19
BRANCH  17  21
HETATM   21  O   UNL     1     -48.412  64.103 -47.679  1.00  0.00    -0.349 OA
BRANCH  21  22
HETATM   22  C   UNL     1     -48.635  64.285 -49.077  1.00  0.00     0.171 C 
HETATM   23  C   UNL     1     -49.995  63.695 -49.409  1.00  0.00     0.034 C 
ENDBRANCH  21  22
ENDBRANCH  17  21
ENDBRANCH  12  13
ENDBRANCH   8  11
ENDBRANCH   1   7
BRANCH   5  24
HETATM   24  C   UNL     1     -41.328  55.468 -53.074  1.00  0.00     0.005 A 
HETATM   25  C   UNL     1     -40.969  54.426 -52.162  1.00  0.00    -0.012 A 
HETATM   26  C   UNL     1     -40.491  53.267 -52.731  1.00  0.00    -0.012 A 
HETATM   27  C   UNL     1     -41.030  54.400 -50.744  1.00  0.00     0.013 A 
HETATM   28  C   UNL     1     -40.071  52.157 -52.019  1.00  0.00    -0.046 A 
HETATM   29  C   UNL     1     -40.357  53.060 -54.090  1.00  0.00    -0.046 A 
HETATM   30  C   UNL     1     -40.112  52.127 -50.633  1.00  0.00     0.008 A 
HETATM   31  C   UNL     1     -39.597  51.092 -52.943  1.00  0.00     0.044 A 
HETATM   32  C   UNL     1     -40.607  53.276 -50.003  1.00  0.00     0.001 A 
HETATM   33  C   UNL     1     -39.804  51.704 -54.360  1.00  0.00     0.044 A 
HETATM   34  C   UNL     1     -40.704  54.037 -55.006  1.00  0.00     0.009 A 
HETATM   35  C   UNL     1     -41.186  55.243 -54.473  1.00  0.00     0.015 A 
ENDBRANCH   5  24
TORSDOF 7
ENDMDL
MODEL 4
REMARK VINA RESULT:      -8.9      7.282     10.941
REMARK  7 active torsions:
REMARK  status: ('A' for Active; 'I' for Inactive)
REMARK    1  A    between atoms: C_2  and  O_3 
REMARK    2  A    between atoms: O_3  and  C_4 
REMARK    3  A    between atoms: C_5  and  O_6 
REMARK    4  A    between atoms: C_9  and  C_10 
REMARK    5  A    between atoms: N_11  and  N_12 
REMARK       I    between atoms: N_12  and  C_13 
REMARK    6  A    between atoms: C_13  and  C_14 
REMARK    7  A    between atoms: C_18  and  C_19 
ROOT
HETATM    1  C   UNL     1     -42.864  55.757 -57.284  1.00  0.00     0.121 A 
HETATM    2  N   UNL     1     -42.148  56.740 -56.661  1.00  0.00    -0.272 N 
HETATM    3  H   UNL     1     -41.986  57.683 -57.003  1.00  0.00     0.189 HD
HETATM    4  N   UNL     1     -41.569  56.358 -55.517  1.00  0.00    -0.174 NA
HETATM    5  C   UNL     1     -41.932  55.077 -55.352  1.00  0.00     0.090 A 
HETATM    6  C   UNL     1     -42.787  54.678 -56.425  1.00  0.00     0.071 A 
ENDROOT
BRANCH   1   7
HETATM    7  C   UNL     1     -43.440  55.959 -58.590  1.00  0.00     0.289 C 
HETATM    8  N   UNL     1     -44.778  56.335 -58.574  1.00  0.00    -0.242 N 
HETATM    9  H   UNL     1     -45.152  56.751 -57.729  1.00  0.00     0.192 HD
HETATM   10  O   UNL     1     -42.777  55.776 -59.606  1.00  0.00    -0.264 OA
BRANCH   8  11
HETATM   11  N   UNL     1     -45.612  56.445 -59.662  1.00  0.00    -0.184 NA
HETATM   12  C   UNL     1     -46.445  57.438 -59.677  1.00  0.00     0.150 C 
BRANCH  12  13
HETATM   13  C   UNL     1     -47.372  57.674 -60.803  1.00  0.00    -0.014 A 
HETATM   14  C   UNL     1     -47.795  56.566 -61.549  1.00  0.00     0.016 A 
HETATM   15  C   UNL     1     -48.709  56.740 -62.584  1.00  0.00     0.040 A 
HETATM   16  C   UNL     1     -49.186  58.015 -62.860  1.00  0.00     0.099 A 
HETATM   17  C   UNL     1     -48.761  59.135 -62.133  1.00  0.00     0.102 A 
HETATM   18  C   UNL     1     -47.848  58.960 -61.094  1.00  0.00     0.052 A 
BRANCH  16  19
HETATM   19  O   UNL     1     -50.095  58.157 -63.872  1.00  0.00    -0.358 OA
HETATM   20  H   UNL     1     -50.856  57.605 -63.608  1.00  0.00     0.218 HD
ENDBRANCH  16  19
BRANCH  17  21
HETATM   21  O   UNL     1     -49.323  60.321 -62.529  1.00  0.00    -0.349 OA
BRANCH  21  22
HETATM   22  C   UNL     1     -49.753  61.205 -61.494  1.00  0.00     0.171 C 
HETATM   23  C   UNL     1     -51.099  60.710 -60.994  1.00  0.00     0.034 C 
ENDBRANCH  21  22
ENDBRANCH  17  21
ENDBRANCH  12  13
ENDBRANCH   8  11
ENDBRANCH   1   7
BRANCH   5  24
HETATM   24  C   UNL     1     -41.421  54.236 -54.255  1.00  0.00     0.005 A 
HETATM   25  C   UNL     1     -41.722  54.481 -52.879  1.00  0.00    -0.012 A 
HETATM   26  C   UNL     1     -41.121  53.637 -51.972  1.00  0.00    -0.012 A 
HETATM   27  C   UNL     1     -42.554  55.471 -52.293  1.00  0.00     0.013 A 
HETATM   28  C   UNL     1     -41.269  53.725 -50.599  1.00  0.00    -0.046 A 
HETATM   29  C   UNL     1     -40.283  52.593 -52.312  1.00  0.00    -0.046 A 
HETATM   30  C   UNL     1     -42.067  54.697 -50.016  1.00  0.00     0.008 A 
HETATM   31  C   UNL     1     -40.468  52.671 -49.918  1.00  0.00     0.044 A 
HETATM   32  C   UNL     1     -42.716  55.574 -50.895  1.00  0.00     0.001 A 
HETATM   33  C   UNL     1     -39.802  51.889 -51.090  1.00  0.00     0.044 A 
HETATM   34  C   UNL     1     -39.976  52.315 -53.632  1.00  0.00     0.009 A 
HETATM   35  C   UNL     1     -40.556  53.157 -54.593  1.00  0.00     0.015 A 
ENDBRANCH   5  24
TORSDOF 7
ENDMDL
MODEL 5
REMARK VINA RESULT:      -8.9      2.069      2.866
REMARK  7 active torsions:
REMARK  status: ('A' for Active; 'I' for Inactive)
REMARK    1  A    between atoms: C_2  and  O_3 
REMARK    2  A    between atoms: O_3  and  C_4 
REMARK    3  A    between atoms: C_5  and  O_6 
REMARK    4  A    between atoms: C_9  and  C_10 
REMARK    5  A    between atoms: N_11  and  N_12 
REMARK       I    between atoms: N_12  and  C_13 
REMARK    6  A    between atoms: C_13  and  C_14 
REMARK    7  A    between atoms: C_18  and  C_19 
ROOT
HETATM    1  C   UNL     1     -41.704  57.321 -51.299  1.00  0.00     0.121 A 
HETATM    2  N   UNL     1     -41.101  56.707 -50.238  1.00  0.00    -0.272 N 
HETATM    3  H   UNL     1     -40.894  57.120 -49.333  1.00  0.00     0.189 HD
HETATM    4  N   UNL     1     -40.703  55.453 -50.483  1.00  0.00    -0.174 NA
HETATM    5  C   UNL     1     -41.078  55.207 -51.748  1.00  0.00     0.090 A 
HETATM    6  C   UNL     1     -41.754  56.349 -52.279  1.00  0.00     0.071 A 
ENDROOT
BRANCH   1   7
HETATM    7  C   UNL     1     -42.073  58.714 -51.251  1.00  0.00     0.289 C 
HETATM    8  N   UNL     1     -43.333  58.955 -50.716  1.00  0.00    -0.242 N 
HETATM    9  H   UNL     1     -43.748  58.248 -50.121  1.00  0.00     0.192 HD
HETATM   10  O   UNL     1     -41.318  59.580 -51.682  1.00  0.00    -0.264 OA
BRANCH   8  11
HETATM   11  N   UNL     1     -43.995  60.160 -50.690  1.00  0.00    -0.184 NA
HETATM   12  C   UNL     1     -45.227  60.155 -50.285  1.00  0.00     0.150 C 
BRANCH  12  13
HETATM   13  C   UNL     1     -46.032  61.391 -50.190  1.00  0.00    -0.014 A 
HETATM   14  C   UNL     1     -46.663  61.854 -51.352  1.00  0.00     0.016 A 
HETATM   15  C   UNL     1     -47.474  62.985 -51.292  1.00  0.00     0.040 A 
HETATM   16  C   UNL     1     -47.639  63.636 -50.076  1.00  0.00     0.099 A 
HETATM   17  C   UNL     1     -47.001  63.194 -48.909  1.00  0.00     0.102 A 
HETATM   18  C   UNL     1     -46.193  62.059 -48.969  1.00  0.00     0.052 A 
BRANCH  16  19
HETATM   19  O   UNL     1     -48.451  64.735 -50.041  1.00  0.00    -0.358 OA
HETATM   20  H   UNL     1     -48.403  65.057 -49.120  1.00  0.00     0.218 HD
ENDBRANCH  16  19
BRANCH  17  21
HETATM   21  O   UNL     1     -47.264  63.945 -47.793  1.00  0.00    -0.349 OA
BRANCH  21  22
HETATM   22  C   UNL     1     -46.519  63.632 -46.617  1.00  0.00     0.171 C 
HETATM   23  C   UNL     1     -46.991  64.559 -45.510  1.00  0.00     0.034 C 
ENDBRANCH  21  22
ENDBRANCH  17  21
ENDBRANCH  12  13
ENDBRANCH   8  11
ENDBRANCH   1   7
BRANCH   5  24
HETATM   24  C   UNL     1     -40.736  53.960 -52.454  1.00  0.00     0.005 A 
HETATM   25  C   UNL     1     -40.471  52.728 -51.779  1.00  0.00    -0.012 A 
HETATM   26  C   UNL     1     -40.112  51.667 -52.580  1.00  0.00    -0.012 A 
HETATM   27  C   UNL     1     -40.521  52.423 -50.393  1.00  0.00     0.013 A 
HETATM   28  C   UNL     1     -39.795  50.403 -52.115  1.00  0.00    -0.046 A 
HETATM   29  C   UNL     1     -40.012  51.726 -53.957  1.00  0.00    -0.046 A 
HETATM   30  C   UNL     1     -39.826  50.099 -50.763  1.00  0.00     0.008 A 
HETATM   31  C   UNL     1     -39.435  49.505 -53.246  1.00  0.00     0.044 A 
HETATM   32  C   UNL     1     -40.202  51.138 -49.903  1.00  0.00     0.001 A 
HETATM   33  C   UNL     1     -39.594  50.407 -54.507  1.00  0.00     0.044 A 
HETATM   34  C   UNL     1     -40.272  52.895 -54.649  1.00  0.00     0.009 A 
HETATM   35  C   UNL     1     -40.630  54.009 -53.873  1.00  0.00     0.015 A 
ENDBRANCH   5  24
TORSDOF 7
ENDMDL
MODEL 6
REMARK VINA RESULT:      -8.8      7.581     10.989
REMARK  7 active torsions:
REMARK  status: ('A' for Active; 'I' for Inactive)
REMARK    1  A    between atoms: C_2  and  O_3 
REMARK    2  A    between atoms: O_3  and  C_4 
REMARK    3  A    between atoms: C_5  and  O_6 
REMARK    4  A    between atoms: C_9  and  C_10 
REMARK    5  A    between atoms: N_11  and  N_12 
REMARK       I    between atoms: N_12  and  C_13 
REMARK    6  A    between atoms: C_13  and  C_14 
REMARK    7  A    between atoms: C_18  and  C_19 
ROOT
HETATM    1  C   UNL     1     -42.854  55.965 -56.941  1.00  0.00     0.121 A 
HETATM    2  N   UNL     1     -42.072  56.985 -56.478  1.00  0.00    -0.272 N 
HETATM    3  H   UNL     1     -41.828  57.838 -56.975  1.00  0.00     0.189 HD
HETATM    4  N   UNL     1     -41.545  56.768 -55.267  1.00  0.00    -0.174 NA
HETATM    5  C   UNL     1     -42.013  55.568 -54.892  1.00  0.00     0.090 A 
HETATM    6  C   UNL     1     -42.879  55.052 -55.905  1.00  0.00     0.071 A 
ENDROOT
BRANCH   1   7
HETATM    7  C   UNL     1     -43.390  55.977 -58.279  1.00  0.00     0.289 C 
HETATM    8  N   UNL     1     -44.605  56.639 -58.404  1.00  0.00    -0.242 N 
HETATM    9  H   UNL     1     -44.860  57.317 -57.696  1.00  0.00     0.192 HD
HETATM   10  O   UNL     1     -42.803  55.412 -59.197  1.00  0.00    -0.264 OA
BRANCH   8  11
HETATM   11  N   UNL     1     -45.409  56.673 -59.520  1.00  0.00    -0.184 NA
HETATM   12  C   UNL     1     -46.355  57.559 -59.546  1.00  0.00     0.150 C 
BRANCH  12  13
HETATM   13  C   UNL     1     -47.266  57.708 -60.700  1.00  0.00    -0.014 A 
HETATM   14  C   UNL     1     -47.640  56.550 -61.395  1.00  0.00     0.016 A 
HETATM   15  C   UNL     1     -48.538  56.642 -62.455  1.00  0.00     0.040 A 
HETATM   16  C   UNL     1     -49.046  57.887 -62.806  1.00  0.00     0.099 A 
HETATM   17  C   UNL     1     -48.669  59.056 -62.131  1.00  0.00     0.102 A 
HETATM   18  C   UNL     1     -47.773  58.962 -61.067  1.00  0.00     0.052 A 
BRANCH  16  19
HETATM   19  O   UNL     1     -49.938  57.948 -63.841  1.00  0.00    -0.358 OA
HETATM   20  H   UNL     1     -50.805  57.741 -63.442  1.00  0.00     0.218 HD
ENDBRANCH  16  19
BRANCH  17  21
HETATM   21  O   UNL     1     -49.257  60.202 -62.599  1.00  0.00    -0.349 OA
BRANCH  21  22
HETATM   22  C   UNL     1     -50.086  60.919 -61.684  1.00  0.00     0.171 C 
HETATM   23  C   UNL     1     -51.530  60.566 -61.995  1.00  0.00     0.034 C 
ENDBRANCH  21  22
ENDBRANCH  17  21
ENDBRANCH  12  13
ENDBRANCH   8  11
ENDBRANCH   1   7
BRANCH   5  24
HETATM   24  C   UNL     1     -41.590  54.898 -53.650  1.00  0.00     0.005 A 
HETATM   25  C   UNL     1     -40.927  53.631 -53.634  1.00  0.00    -0.012 A 
HETATM   26  C   UNL     1     -40.647  53.114 -52.388  1.00  0.00    -0.012 A 
HETATM   27  C   UNL     1     -40.508  52.811 -54.714  1.00  0.00     0.013 A 
HETATM   28  C   UNL     1     -40.034  51.895 -52.163  1.00  0.00    -0.046 A 
HETATM   29  C   UNL     1     -40.950  53.742 -51.195  1.00  0.00    -0.046 A 
HETATM   30  C   UNL     1     -39.635  51.080 -53.211  1.00  0.00     0.008 A 
HETATM   31  C   UNL     1     -39.902  51.637 -50.704  1.00  0.00     0.044 A 
HETATM   32  C   UNL     1     -39.881  51.565 -54.502  1.00  0.00     0.001 A 
HETATM   33  C   UNL     1     -40.518  52.906 -50.041  1.00  0.00     0.044 A 
HETATM   34  C   UNL     1     -41.579  54.974 -51.167  1.00  0.00     0.009 A 
HETATM   35  C   UNL     1     -41.896  55.535 -52.414  1.00  0.00     0.015 A 
ENDBRANCH   5  24
TORSDOF 7
ENDMDL
MODEL 7
REMARK VINA RESULT:      -8.6      7.247     11.431
REMARK  7 active torsions:
REMARK  status: ('A' for Active; 'I' for Inactive)
REMARK    1  A    between atoms: C_2  and  O_3 
REMARK    2  A    between atoms: O_3  and  C_4 
REMARK    3  A    between atoms: C_5  and  O_6 
REMARK    4  A    between atoms: C_9  and  C_10 
REMARK    5  A    between atoms: N_11  and  N_12 
REMARK       I    between atoms: N_12  and  C_13 
REMARK    6  A    between atoms: C_13  and  C_14 
REMARK    7  A    between atoms: C_18  and  C_19 
ROOT
HETATM    1  C   UNL     1     -42.755  57.715 -57.579  1.00  0.00     0.121 A 
HETATM    2  N   UNL     1     -43.767  58.622 -57.435  1.00  0.00    -0.272 N 
HETATM    3  H   UNL     1     -44.573  58.541 -56.822  1.00  0.00     0.189 HD
HETATM    4  N   UNL     1     -43.676  59.680 -58.250  1.00  0.00    -0.174 NA
HETATM    5  C   UNL     1     -42.546  59.488 -58.947  1.00  0.00     0.090 A 
HETATM    6  C   UNL     1     -41.915  58.280 -58.518  1.00  0.00     0.071 A 
ENDROOT
BRANCH   1   7
HETATM    7  C   UNL     1     -42.769  56.456 -56.875  1.00  0.00     0.289 C 
HETATM    8  N   UNL     1     -42.354  56.535 -55.551  1.00  0.00    -0.242 N 
HETATM    9  H   UNL     1     -42.395  57.434 -55.086  1.00  0.00     0.192 HD
HETATM   10  O   UNL     1     -43.099  55.421 -57.445  1.00  0.00    -0.264 OA
BRANCH   8  11
HETATM   11  N   UNL     1     -42.125  55.480 -54.700  1.00  0.00    -0.184 NA
HETATM   12  C   UNL     1     -40.933  54.971 -54.688  1.00  0.00     0.150 C 
BRANCH  12  13
HETATM   13  C   UNL     1     -40.562  53.851 -53.798  1.00  0.00    -0.014 A 
HETATM   14  C   UNL     1     -40.132  52.656 -54.389  1.00  0.00     0.016 A 
HETATM   15  C   UNL     1     -39.723  51.596 -53.584  1.00  0.00     0.040 A 
HETATM   16  C   UNL     1     -39.752  51.744 -52.203  1.00  0.00     0.099 A 
HETATM   17  C   UNL     1     -40.196  52.927 -51.596  1.00  0.00     0.102 A 
HETATM   18  C   UNL     1     -40.601  53.990 -52.403  1.00  0.00     0.052 A 
BRANCH  16  19
HETATM   19  O   UNL     1     -39.331  50.694 -51.435  1.00  0.00    -0.358 OA
HETATM   20  H   UNL     1     -38.489  50.990 -51.039  1.00  0.00     0.218 HD
ENDBRANCH  16  19
BRANCH  17  21
HETATM   21  O   UNL     1     -40.165  52.914 -50.226  1.00  0.00    -0.349 OA
BRANCH  21  22
HETATM   22  C   UNL     1     -39.747  54.117 -49.581  1.00  0.00     0.171 C 
HETATM   23  C   UNL     1     -40.479  54.208 -48.254  1.00  0.00     0.034 C 
ENDBRANCH  21  22
ENDBRANCH  17  21
ENDBRANCH  12  13
ENDBRANCH   8  11
ENDBRANCH   1   7
BRANCH   5  24
HETATM   24  C   UNL     1     -42.121  60.380 -60.041  1.00  0.00     0.005 A 
HETATM   25  C   UNL     1     -41.240  61.490 -59.845  1.00  0.00    -0.012 A 
HETATM   26  C   UNL     1     -40.984  62.259 -60.958  1.00  0.00    -0.012 A 
HETATM   27  C   UNL     1     -40.580  61.929 -58.667  1.00  0.00     0.013 A 
HETATM   28  C   UNL     1     -40.179  63.384 -60.968  1.00  0.00    -0.046 A 
HETATM   29  C   UNL     1     -41.504  62.014 -62.214  1.00  0.00    -0.046 A 
HETATM   30  C   UNL     1     -39.542  63.830 -59.820  1.00  0.00     0.008 A 
HETATM   31  C   UNL     1     -40.135  63.984 -62.329  1.00  0.00     0.044 A 
HETATM   32  C   UNL     1     -39.755  63.074 -58.660  1.00  0.00     0.001 A 
HETATM   33  C   UNL     1     -41.032  63.040 -63.185  1.00  0.00     0.044 A 
HETATM   34  C   UNL     1     -42.349  60.944 -62.449  1.00  0.00     0.009 A 
HETATM   35  C   UNL     1     -42.650  60.138 -61.340  1.00  0.00     0.015 A 
ENDBRANCH   5  24
TORSDOF 7
ENDMDL
MODEL 8
REMARK VINA RESULT:      -8.5      1.609      2.035
REMARK  7 active torsions:
REMARK  status: ('A' for Active; 'I' for Inactive)
REMARK    1  A    between atoms: C_2  and  O_3 
REMARK    2  A    between atoms: O_3  and  C_4 
REMARK    3  A    between atoms: C_5  and  O_6 
REMARK    4  A    between atoms: C_9  and  C_10 
REMARK    5  A    between atoms: N_11  and  N_12 
REMARK       I    between atoms: N_12  and  C_13 
REMARK    6  A    between atoms: C_13  and  C_14 
REMARK    7  A    between atoms: C_18  and  C_19 
ROOT
HETATM    1  C   UNL     1     -41.844  58.373 -53.327  1.00  0.00     0.121 A 
HETATM    2  N   UNL     1     -42.529  57.949 -54.431  1.00  0.00    -0.272 N 
HETATM    3  H   UNL     1     -43.204  58.484 -54.970  1.00  0.00     0.189 HD
HETATM    4  N   UNL     1     -42.302  56.673 -54.762  1.00  0.00    -0.174 NA
HETATM    5  C   UNL     1     -41.410  56.231 -53.862  1.00  0.00     0.090 A 
HETATM    6  C   UNL     1     -41.064  57.292 -52.968  1.00  0.00     0.071 A 
ENDROOT
BRANCH   1   7
HETATM    7  C   UNL     1     -42.072  59.677 -52.756  1.00  0.00     0.289 C 
HETATM    8  N   UNL     1     -42.323  59.669 -51.390  1.00  0.00    -0.242 N 
HETATM    9  H   UNL     1     -42.017  58.869 -50.848  1.00  0.00     0.192 HD
HETATM   10  O   UNL     1     -42.063  60.683 -53.460  1.00  0.00    -0.264 OA
BRANCH   8  11
HETATM   11  N   UNL     1     -42.720  60.739 -50.622  1.00  0.00    -0.184 NA
HETATM   12  C   UNL     1     -43.866  60.650 -50.022  1.00  0.00     0.150 C 
BRANCH  12  13
HETATM   13  C   UNL     1     -44.387  61.724 -49.152  1.00  0.00    -0.014 A 
HETATM   14  C   UNL     1     -44.566  62.996 -49.712  1.00  0.00     0.016 A 
HETATM   15  C   UNL     1     -45.104  64.021 -48.940  1.00  0.00     0.040 A 
HETATM   16  C   UNL     1     -45.453  63.762 -47.620  1.00  0.00     0.099 A 
HETATM   17  C   UNL     1     -45.264  62.500 -47.040  1.00  0.00     0.102 A 
HETATM   18  C   UNL     1     -44.729  61.473 -47.816  1.00  0.00     0.052 A 
BRANCH  16  19
HETATM   19  O   UNL     1     -45.993  64.782 -46.886  1.00  0.00    -0.358 OA
HETATM   20  H   UNL     1     -45.866  64.519 -45.955  1.00  0.00     0.218 HD
ENDBRANCH  16  19
BRANCH  17  21
HETATM   21  O   UNL     1     -45.657  62.408 -45.730  1.00  0.00    -0.349 OA
BRANCH  21  22
HETATM   22  C   UNL     1     -44.625  62.446 -44.745  1.00  0.00     0.171 C 
HETATM   23  C   UNL     1     -44.915  63.611 -43.816  1.00  0.00     0.034 C 
ENDBRANCH  21  22
ENDBRANCH  17  21
ENDBRANCH  12  13
ENDBRANCH   8  11
ENDBRANCH   1   7
BRANCH   5  24
HETATM   24  C   UNL     1     -40.962  54.829 -53.802  1.00  0.00     0.005 A 
HETATM   25  C   UNL     1     -40.799  54.113 -52.575  1.00  0.00    -0.012 A 
HETATM   26  C   UNL     1     -40.320  52.827 -52.687  1.00  0.00    -0.012 A 
HETATM   27  C   UNL     1     -41.057  54.526 -51.241  1.00  0.00     0.013 A 
HETATM   28  C   UNL     1     -40.074  51.983 -51.618  1.00  0.00    -0.046 A 
HETATM   29  C   UNL     1     -40.013  52.209 -53.884  1.00  0.00    -0.046 A 
HETATM   30  C   UNL     1     -40.308  52.383 -50.311  1.00  0.00     0.008 A 
HETATM   31  C   UNL     1     -39.545  50.677 -52.094  1.00  0.00     0.044 A 
HETATM   32  C   UNL     1     -40.812  53.678 -50.140  1.00  0.00     0.001 A 
HETATM   33  C   UNL     1     -39.514  50.826 -53.645  1.00  0.00     0.044 A 
HETATM   34  C   UNL     1     -40.168  52.861 -55.094  1.00  0.00     0.009 A 
HETATM   35  C   UNL     1     -40.643  54.181 -55.029  1.00  0.00     0.015 A 
ENDBRANCH   5  24
TORSDOF 7
ENDMDL
MODEL 9
REMARK VINA RESULT:      -8.4      5.499      8.834
REMARK  7 active torsions:
REMARK  status: ('A' for Active; 'I' for Inactive)
REMARK    1  A    between atoms: C_2  and  O_3 
REMARK    2  A    between atoms: O_3  and  C_4 
REMARK    3  A    between atoms: C_5  and  O_6 
REMARK    4  A    between atoms: C_9  and  C_10 
REMARK    5  A    between atoms: N_11  and  N_12 
REMARK       I    between atoms: N_12  and  C_13 
REMARK    6  A    between atoms: C_13  and  C_14 
REMARK    7  A    between atoms: C_18  and  C_19 
ROOT
HETATM    1  C   UNL     1     -41.630  57.552 -51.852  1.00  0.00     0.121 A 
HETATM    2  N   UNL     1     -41.572  57.485 -50.488  1.00  0.00    -0.272 N 
HETATM    3  H   UNL     1     -41.678  58.257 -49.836  1.00  0.00     0.189 HD
HETATM    4  N   UNL     1     -41.285  56.268 -50.010  1.00  0.00    -0.174 NA
HETATM    5  C   UNL     1     -41.172  55.485 -51.093  1.00  0.00     0.090 A 
HETATM    6  C   UNL     1     -41.428  56.252 -52.271  1.00  0.00     0.071 A 
ENDROOT
BRANCH   1   7
HETATM    7  C   UNL     1     -41.797  58.811 -52.535  1.00  0.00     0.289 C 
HETATM    8  N   UNL     1     -41.719  58.725 -53.920  1.00  0.00    -0.242 N 
HETATM    9  H   UNL     1     -41.884  57.827 -54.359  1.00  0.00     0.192 HD
HETATM   10  O   UNL     1     -41.964  59.851 -51.907  1.00  0.00    -0.264 OA
BRANCH   8  11
HETATM   11  N   UNL     1     -41.689  59.777 -54.806  1.00  0.00    -0.184 NA
HETATM   12  C   UNL     1     -42.151  59.565 -55.999  1.00  0.00     0.150 C 
BRANCH  12  13
HETATM   13  C   UNL     1     -42.194  60.624 -57.028  1.00  0.00    -0.014 A 
HETATM   14  C   UNL     1     -42.689  61.881 -56.658  1.00  0.00     0.016 A 
HETATM   15  C   UNL     1     -42.696  62.920 -57.585  1.00  0.00     0.040 A 
HETATM   16  C   UNL     1     -42.213  62.688 -58.866  1.00  0.00     0.099 A 
HETATM   17  C   UNL     1     -41.730  61.432 -59.257  1.00  0.00     0.102 A 
HETATM   18  C   UNL     1     -41.718  60.393 -58.327  1.00  0.00     0.052 A 
BRANCH  16  19
HETATM   19  O   UNL     1     -42.218  63.729 -59.753  1.00  0.00    -0.358 OA
HETATM   20  H   UNL     1     -43.158  63.861 -59.983  1.00  0.00     0.218 HD
ENDBRANCH  16  19
BRANCH  17  21
HETATM   21  O   UNL     1     -41.290  61.365 -60.553  1.00  0.00    -0.349 OA
BRANCH  21  22
HETATM   22  C   UNL     1     -41.883  60.366 -61.383  1.00  0.00     0.171 C 
HETATM   23  C   UNL     1     -42.777  61.071 -62.388  1.00  0.00     0.034 C 
ENDBRANCH  21  22
ENDBRANCH  17  21
ENDBRANCH  12  13
ENDBRANCH   8  11
ENDBRANCH   1   7
BRANCH   5  24
HETATM   24  C   UNL     1     -40.756  54.073 -51.017  1.00  0.00     0.005 A 
HETATM   25  C   UNL     1     -40.459  53.284 -52.173  1.00  0.00    -0.012 A 
HETATM   26  C   UNL     1     -40.138  51.966 -51.935  1.00  0.00    -0.012 A 
HETATM   27  C   UNL     1     -40.444  53.651 -53.544  1.00  0.00     0.013 A 
HETATM   28  C   UNL     1     -39.843  51.039 -52.920  1.00  0.00    -0.046 A 
HETATM   29  C   UNL     1     -40.076  51.390 -50.681  1.00  0.00    -0.046 A 
HETATM   30  C   UNL     1     -39.841  51.384 -54.262  1.00  0.00     0.008 A 
HETATM   31  C   UNL     1     -39.562  49.708 -52.317  1.00  0.00     0.044 A 
HETATM   32  C   UNL     1     -40.144  52.718 -54.560  1.00  0.00     0.001 A 
HETATM   33  C   UNL     1     -39.709  49.951 -50.785  1.00  0.00     0.044 A 
HETATM   34  C   UNL     1     -40.343  52.121 -49.537  1.00  0.00     0.009 A 
HETATM   35  C   UNL     1     -40.688  53.468 -49.730  1.00  0.00     0.015 A 
ENDBRANCH   5  24
TORSDOF 7
ENDMDL
MODEL 10
REMARK VINA RESULT:      -8.3      7.558     10.398
REMARK  7 active torsions:
REMARK  status: ('A' for Active; 'I' for Inactive)
REMARK    1  A    between atoms: C_2  and  O_3 
REMARK    2  A    between atoms: O_3  and  C_4 
REMARK    3  A    between atoms: C_5  and  O_6 
REMARK    4  A    between atoms: C_9  and  C_10 
REMARK    5  A    between atoms: N_11  and  N_12 
REMARK       I    between atoms: N_12  and  C_13 
REMARK    6  A    between atoms: C_13  and  C_14 
REMARK    7  A    between atoms: C_18  and  C_19 
ROOT
HETATM    1  C   UNL     1     -42.333  55.980 -56.251  1.00  0.00     0.121 A 
HETATM    2  N   UNL     1     -41.362  56.579 -55.498  1.00  0.00    -0.272 N 
HETATM    3  H   UNL     1     -41.040  57.539 -55.575  1.00  0.00     0.189 HD
HETATM    4  N   UNL     1     -40.759  55.761 -54.627  1.00  0.00    -0.174 NA
HETATM    5  C   UNL     1     -41.368  54.575 -54.782  1.00  0.00     0.090 A 
HETATM    6  C   UNL     1     -42.397  54.688 -55.767  1.00  0.00     0.071 A 
ENDROOT
BRANCH   1   7
HETATM    7  C   UNL     1     -42.988  56.680 -57.327  1.00  0.00     0.289 C 
HETATM    8  N   UNL     1     -44.012  55.965 -57.936  1.00  0.00    -0.242 N 
HETATM    9  H   UNL     1     -44.443  55.205 -57.422  1.00  0.00     0.192 HD
HETATM   10  O   UNL     1     -42.623  57.802 -57.663  1.00  0.00    -0.264 OA
BRANCH   8  11
HETATM   11  N   UNL     1     -44.698  56.323 -59.073  1.00  0.00    -0.184 NA
HETATM   12  C   UNL     1     -45.842  56.912 -58.919  1.00  0.00     0.150 C 
BRANCH  12  13
HETATM   13  C   UNL     1     -46.658  57.365 -60.065  1.00  0.00    -0.014 A 
HETATM   14  C   UNL     1     -47.313  56.391 -60.831  1.00  0.00     0.016 A 
HETATM   15  C   UNL     1     -48.134  56.780 -61.886  1.00  0.00     0.040 A 
HETATM   16  C   UNL     1     -48.285  58.133 -62.163  1.00  0.00     0.099 A 
HETATM   17  C   UNL     1     -47.623  59.118 -61.418  1.00  0.00     0.102 A 
HETATM   18  C   UNL     1     -46.805  58.728 -60.358  1.00  0.00     0.052 A 
BRANCH  16  19
HETATM   19  O   UNL     1     -49.107  58.490 -63.196  1.00  0.00    -0.358 OA
HETATM   20  H   UNL     1     -50.007  58.486 -62.816  1.00  0.00     0.218 HD
ENDBRANCH  16  19
BRANCH  17  21
HETATM   21  O   UNL     1     -47.875  60.405 -61.817  1.00  0.00    -0.349 OA
BRANCH  21  22
HETATM   22  C   UNL     1     -46.962  61.407 -61.370  1.00  0.00     0.171 C 
HETATM   23  C   UNL     1     -46.396  62.097 -62.599  1.00  0.00     0.034 C 
ENDBRANCH  21  22
ENDBRANCH  17  21
ENDBRANCH  12  13
ENDBRANCH   8  11
ENDBRANCH   1   7
BRANCH   5  24
HETATM   24  C   UNL     1     -40.933  53.357 -54.077  1.00  0.00     0.005 A 
HETATM   25  C   UNL     1     -40.828  53.275 -52.652  1.00  0.00    -0.012 A 
HETATM   26  C   UNL     1     -40.354  52.083 -52.152  1.00  0.00    -0.012 A 
HETATM   27  C   UNL     1     -41.139  54.243 -51.661  1.00  0.00     0.013 A 
HETATM   28  C   UNL     1     -40.160  51.817 -50.808  1.00  0.00    -0.046 A 
HETATM   29  C   UNL     1     -40.001  50.995 -52.926  1.00  0.00    -0.046 A 
HETATM   30  C   UNL     1     -40.446  52.761 -49.833  1.00  0.00     0.008 A 
HETATM   31  C   UNL     1     -39.620  50.443 -50.619  1.00  0.00     0.044 A 
HETATM   32  C   UNL     1     -40.947  53.987 -50.287  1.00  0.00     0.001 A 
HETATM   33  C   UNL     1     -39.523  49.876 -52.067  1.00  0.00     0.044 A 
HETATM   34  C   UNL     1     -40.100  51.028 -54.305  1.00  0.00     0.009 A 
HETATM   35  C   UNL     1     -40.567  52.228 -54.864  1.00  0.00     0.015 A 
ENDBRANCH   5  24
TORSDOF 7
ENDMDL
