MODEL 1
REMARK VINA RESULT:      -8.3      0.000      0.000
REMARK  9 active torsions:
REMARK  status: ('A' for Active; 'I' for Inactive)
REMARK    1  A    between atoms: C_2  and  O_3 
REMARK    2  A    between atoms: O_3  and  C_4 
REMARK    3  A    between atoms: C_4  and  C_5 
REMARK    4  A    between atoms: C_7  and  C_8 
REMARK       I    between atoms: C_8  and  N_9 
REMARK    5  A    between atoms: N_9  and  N_10 
REMARK    6  A    between atoms: N_10  and  C_11 
REMARK    7  A    between atoms: C_11  and  N_12 
REMARK    8  A    between atoms: N_12  and  C_13 
REMARK    9  A    between atoms: C_13  and  C_14 
ROOT
HETATM    1  C   UNL     1     -42.396  56.745 -53.915  1.00  0.00     0.078 A 
HETATM    2  O   UNL     1     -43.020  57.274 -55.005  1.00  0.00    -0.307 OA
HETATM    3  C   UNL     1     -44.286  57.642 -54.630  1.00  0.00     0.145 A 
HETATM    4  C   UNL     1     -44.472  57.311 -53.298  1.00  0.00     0.045 A 
HETATM    5  C   UNL     1     -43.258  56.741 -52.840  1.00  0.00     0.038 A 
ENDROOT
BRANCH   3   6
HETATM    6  C   UNL     1     -45.122  58.284 -55.625  1.00  0.00     0.293 C 
HETATM    7  N   UNL     1     -46.191  57.527 -56.076  1.00  0.00    -0.262 N 
HETATM    8  H   UNL     1     -46.389  56.579 -55.775  1.00  0.00     0.190 HD
HETATM    9  O   UNL     1     -44.943  59.425 -56.057  1.00  0.00    -0.264 OA
BRANCH   7  10
HETATM   10  N   UNL     1     -47.105  58.126 -56.959  1.00  0.00    -0.274 N 
HETATM   11  H   UNL     1     -47.560  58.951 -56.571  1.00  0.00     0.189 HD
BRANCH  10  12
HETATM   12  C   UNL     1     -46.954  58.020 -58.317  1.00  0.00     0.186 C 
HETATM   13  S   UNL     1     -47.094  59.286 -59.401  1.00  0.00    -0.040 SA
BRANCH  12  14
HETATM   14  N   UNL     1     -46.610  56.786 -58.787  1.00  0.00    -0.364 N 
HETATM   15  H   UNL     1     -46.956  56.021 -58.212  1.00  0.00     0.162 HD
BRANCH  14  16
HETATM   16  C   UNL     1     -46.362  56.428 -60.180  1.00  0.00     0.154 C 
BRANCH  16  17
HETATM   17  C   UNL     1     -44.876  56.195 -60.447  1.00  0.00     0.139 C 
HETATM   18  O   UNL     1     -44.179  57.453 -60.560  1.00  0.00    -0.384 OA
HETATM   19  C   UNL     1     -42.855  57.279 -60.031  1.00  0.00     0.168 C 
HETATM   20  C   UNL     1     -42.741  55.847 -59.546  1.00  0.00     0.029 C 
HETATM   21  C   UNL     1     -44.180  55.453 -59.322  1.00  0.00     0.035 C 
ENDBRANCH  16  17
ENDBRANCH  14  16
ENDBRANCH  12  14
ENDBRANCH  10  12
ENDBRANCH   7  10
ENDBRANCH   3   6
BRANCH   1  22
HETATM   22  C   UNL     1     -40.986  56.315 -54.099  1.00  0.00     0.240 C 
BRANCH  22  23
HETATM   23  O   UNL     1     -41.038  54.993 -54.627  1.00  0.00    -0.345 OA
BRANCH  23  24
HETATM   24  C   UNL     1     -40.673  53.976 -53.786  1.00  0.00     0.069 A 
HETATM   25  C   UNL     1     -40.529  54.077 -52.393  1.00  0.00     0.037 A 
HETATM   26  C   UNL     1     -40.122  52.973 -51.633  1.00  0.00     0.010 A 
HETATM   27  C   UNL     1     -39.878  51.775 -52.283  1.00  0.00    -0.052 A 
HETATM   28  C   UNL     1     -40.023  51.669 -53.669  1.00  0.00    -0.049 A 
HETATM   29  C   UNL     1     -39.396  50.486 -51.699  1.00  0.00     0.039 C 
HETATM   30  C   UNL     1     -40.407  52.762 -54.430  1.00  0.00     0.044 A 
HETATM   31  C   UNL     1     -39.662  50.297 -54.141  1.00  0.00     0.039 C 
HETATM   32  C   UNL     1     -39.733  49.502 -52.829  1.00  0.00     0.009 C 
ENDBRANCH  23  24
ENDBRANCH  22  23
ENDBRANCH   1  22
TORSDOF 9
ENDMDL
MODEL 2
REMARK VINA RESULT:      -8.2      2.855      4.041
REMARK  9 active torsions:
REMARK  status: ('A' for Active; 'I' for Inactive)
REMARK    1  A    between atoms: C_2  and  O_3 
REMARK    2  A    between atoms: O_3  and  C_4 
REMARK    3  A    between atoms: C_4  and  C_5 
REMARK    4  A    between atoms: C_7  and  C_8 
REMARK       I    between atoms: C_8  and  N_9 
REMARK    5  A    between atoms: N_9  and  N_10 
REMARK    6  A    between atoms: N_10  and  C_11 
REMARK    7  A    between atoms: C_11  and  N_12 
REMARK    8  A    between atoms: N_12  and  C_13 
REMARK    9  A    between atoms: C_13  and  C_14 
ROOT
HETATM    1  C   UNL     1     -41.823  55.767 -50.387  1.00  0.00     0.078 A 
HETATM    2  O   UNL     1     -42.704  55.952 -51.411  1.00  0.00    -0.307 OA
HETATM    3  C   UNL     1     -42.469  57.190 -51.951  1.00  0.00     0.145 A 
HETATM    4  C   UNL     1     -41.452  57.803 -51.239  1.00  0.00     0.045 A 
HETATM    5  C   UNL     1     -41.035  56.887 -50.240  1.00  0.00     0.038 A 
ENDROOT
BRANCH   3   6
HETATM    6  C   UNL     1     -43.261  57.583 -53.099  1.00  0.00     0.293 C 
HETATM    7  N   UNL     1     -42.538  58.039 -54.189  1.00  0.00    -0.262 N 
HETATM    8  H   UNL     1     -41.528  58.132 -54.207  1.00  0.00     0.190 HD
HETATM    9  O   UNL     1     -44.491  57.516 -53.154  1.00  0.00    -0.264 OA
BRANCH   7  10
HETATM   10  N   UNL     1     -43.233  58.333 -55.373  1.00  0.00    -0.274 N 
HETATM   11  H   UNL     1     -44.082  58.875 -55.220  1.00  0.00     0.189 HD
BRANCH  10  12
HETATM   12  C   UNL     1     -42.580  58.438 -56.573  1.00  0.00     0.186 C 
HETATM   13  S   UNL     1     -42.066  59.871 -57.266  1.00  0.00    -0.040 SA
BRANCH  12  14
HETATM   14  N   UNL     1     -42.290  57.262 -57.202  1.00  0.00    -0.364 N 
HETATM   15  H   UNL     1     -41.294  57.112 -57.347  1.00  0.00     0.162 HD
BRANCH  14  16
HETATM   16  C   UNL     1     -43.081  56.036 -57.152  1.00  0.00     0.154 C 
BRANCH  16  17
HETATM   17  C   UNL     1     -42.407  54.965 -56.296  1.00  0.00     0.139 C 
HETATM   18  O   UNL     1     -41.259  55.509 -55.615  1.00  0.00    -0.384 OA
HETATM   19  C   UNL     1     -41.144  54.856 -54.341  1.00  0.00     0.168 C 
HETATM   20  C   UNL     1     -42.295  53.877 -54.224  1.00  0.00     0.029 C 
HETATM   21  C   UNL     1     -43.306  54.429 -55.198  1.00  0.00     0.035 C 
ENDBRANCH  16  17
ENDBRANCH  14  16
ENDBRANCH  12  14
ENDBRANCH  10  12
ENDBRANCH   7  10
ENDBRANCH   3   6
BRANCH   1  22
HETATM   22  C   UNL     1     -41.884  54.458 -49.686  1.00  0.00     0.240 C 
BRANCH  22  23
HETATM   23  O   UNL     1     -40.553  53.951 -49.671  1.00  0.00    -0.345 OA
BRANCH  23  24
HETATM   24  C   UNL     1     -40.341  52.748 -50.292  1.00  0.00     0.069 A 
HETATM   25  C   UNL     1     -40.404  51.487 -49.677  1.00  0.00     0.037 A 
HETATM   26  C   UNL     1     -40.141  50.321 -50.407  1.00  0.00     0.010 A 
HETATM   27  C   UNL     1     -39.832  50.437 -51.751  1.00  0.00    -0.052 A 
HETATM   28  C   UNL     1     -39.771  51.689 -52.367  1.00  0.00    -0.049 A 
HETATM   29  C   UNL     1     -39.473  49.352 -52.715  1.00  0.00     0.039 C 
HETATM   30  C   UNL     1     -40.012  52.849 -51.648  1.00  0.00     0.044 A 
HETATM   31  C   UNL     1     -39.376  51.560 -53.804  1.00  0.00     0.039 C 
HETATM   32  C   UNL     1     -39.661  50.072 -54.058  1.00  0.00     0.009 C 
ENDBRANCH  23  24
ENDBRANCH  22  23
ENDBRANCH   1  22
TORSDOF 9
ENDMDL
MODEL 3
REMARK VINA RESULT:      -8.0      3.183      5.469
REMARK  9 active torsions:
REMARK  status: ('A' for Active; 'I' for Inactive)
REMARK    1  A    between atoms: C_2  and  O_3 
REMARK    2  A    between atoms: O_3  and  C_4 
REMARK    3  A    between atoms: C_4  and  C_5 
REMARK    4  A    between atoms: C_7  and  C_8 
REMARK       I    between atoms: C_8  and  N_9 
REMARK    5  A    between atoms: N_9  and  N_10 
REMARK    6  A    between atoms: N_10  and  C_11 
REMARK    7  A    between atoms: C_11  and  N_12 
REMARK    8  A    between atoms: N_12  and  C_13 
REMARK    9  A    between atoms: C_13  and  C_14 
ROOT
HETATM    1  C   UNL     1     -42.505  55.866 -56.215  1.00  0.00     0.078 A 
HETATM    2  O   UNL     1     -42.143  57.070 -55.687  1.00  0.00    -0.307 OA
HETATM    3  C   UNL     1     -42.416  58.037 -56.620  1.00  0.00     0.145 A 
HETATM    4  C   UNL     1     -42.923  57.433 -57.757  1.00  0.00     0.045 A 
HETATM    5  C   UNL     1     -42.984  56.041 -57.494  1.00  0.00     0.038 A 
ENDROOT
BRANCH   3   6
HETATM    6  C   UNL     1     -42.158  59.415 -56.252  1.00  0.00     0.293 C 
HETATM    7  N   UNL     1     -42.740  59.829 -55.064  1.00  0.00    -0.262 N 
HETATM    8  H   UNL     1     -43.332  59.246 -54.483  1.00  0.00     0.190 HD
HETATM    9  O   UNL     1     -41.464  60.195 -56.907  1.00  0.00    -0.264 OA
BRANCH   7  10
HETATM   10  N   UNL     1     -42.443  61.117 -54.591  1.00  0.00    -0.274 N 
HETATM   11  H   UNL     1     -41.912  61.679 -55.254  1.00  0.00     0.189 HD
BRANCH  10  12
HETATM   12  C   UNL     1     -43.253  61.744 -53.680  1.00  0.00     0.186 C 
HETATM   13  S   UNL     1     -44.558  62.718 -54.065  1.00  0.00    -0.040 SA
BRANCH  12  14
HETATM   14  N   UNL     1     -42.985  61.492 -52.366  1.00  0.00    -0.364 N 
HETATM   15  H   UNL     1     -42.830  62.332 -51.814  1.00  0.00     0.162 HD
BRANCH  14  16
HETATM   16  C   UNL     1     -43.442  60.340 -51.595  1.00  0.00     0.154 C 
BRANCH  16  17
HETATM   17  C   UNL     1     -42.294  59.385 -51.275  1.00  0.00     0.139 C 
HETATM   18  O   UNL     1     -41.585  59.023 -52.478  1.00  0.00    -0.384 OA
HETATM   19  C   UNL     1     -40.199  58.846 -52.144  1.00  0.00     0.168 C 
HETATM   20  C   UNL     1     -40.045  59.137 -50.664  1.00  0.00     0.029 C 
HETATM   21  C   UNL     1     -41.247  59.997 -50.364  1.00  0.00     0.035 C 
ENDBRANCH  16  17
ENDBRANCH  14  16
ENDBRANCH  12  14
ENDBRANCH  10  12
ENDBRANCH   7  10
ENDBRANCH   3   6
BRANCH   1  22
HETATM   22  C   UNL     1     -42.326  54.677 -55.342  1.00  0.00     0.240 C 
BRANCH  22  23
HETATM   23  O   UNL     1     -41.155  54.922 -54.569  1.00  0.00    -0.345 OA
BRANCH  23  24
HETATM   24  C   UNL     1     -40.757  53.928 -53.715  1.00  0.00     0.069 A 
HETATM   25  C   UNL     1     -40.619  54.050 -52.323  1.00  0.00     0.037 A 
HETATM   26  C   UNL     1     -40.177  52.969 -51.550  1.00  0.00     0.010 A 
HETATM   27  C   UNL     1     -39.891  51.773 -52.186  1.00  0.00    -0.052 A 
HETATM   28  C   UNL     1     -40.030  51.646 -53.570  1.00  0.00    -0.049 A 
HETATM   29  C   UNL     1     -39.367  50.508 -51.585  1.00  0.00     0.039 C 
HETATM   30  C   UNL     1     -40.449  52.717 -54.344  1.00  0.00     0.044 A 
HETATM   31  C   UNL     1     -39.620  50.282 -54.026  1.00  0.00     0.039 C 
HETATM   32  C   UNL     1     -39.668  49.500 -52.704  1.00  0.00     0.009 C 
ENDBRANCH  23  24
ENDBRANCH  22  23
ENDBRANCH   1  22
TORSDOF 9
ENDMDL
MODEL 4
REMARK VINA RESULT:      -8.0      3.888      5.858
REMARK  9 active torsions:
REMARK  status: ('A' for Active; 'I' for Inactive)
REMARK    1  A    between atoms: C_2  and  O_3 
REMARK    2  A    between atoms: O_3  and  C_4 
REMARK    3  A    between atoms: C_4  and  C_5 
REMARK    4  A    between atoms: C_7  and  C_8 
REMARK       I    between atoms: C_8  and  N_9 
REMARK    5  A    between atoms: N_9  and  N_10 
REMARK    6  A    between atoms: N_10  and  C_11 
REMARK    7  A    between atoms: C_11  and  N_12 
REMARK    8  A    between atoms: N_12  and  C_13 
REMARK    9  A    between atoms: C_13  and  C_14 
ROOT
HETATM    1  C   UNL     1     -43.062  55.984 -54.702  1.00  0.00     0.078 A 
HETATM    2  O   UNL     1     -43.229  56.280 -53.382  1.00  0.00    -0.307 OA
HETATM    3  C   UNL     1     -44.238  57.202 -53.281  1.00  0.00     0.145 A 
HETATM    4  C   UNL     1     -44.688  57.514 -54.552  1.00  0.00     0.045 A 
HETATM    5  C   UNL     1     -43.937  56.728 -55.462  1.00  0.00     0.038 A 
ENDROOT
BRANCH   3   6
HETATM    6  C   UNL     1     -44.627  57.628 -51.951  1.00  0.00     0.293 C 
HETATM    7  N   UNL     1     -45.071  58.937 -51.855  1.00  0.00    -0.262 N 
HETATM    8  H   UNL     1     -45.107  59.587 -52.632  1.00  0.00     0.190 HD
HETATM    9  O   UNL     1     -44.599  56.908 -50.951  1.00  0.00    -0.264 OA
BRANCH   7  10
HETATM   10  N   UNL     1     -45.567  59.383 -50.619  1.00  0.00    -0.274 N 
HETATM   11  H   UNL     1     -46.079  58.666 -50.107  1.00  0.00     0.189 HD
BRANCH  10  12
HETATM   12  C   UNL     1     -44.946  60.388 -49.925  1.00  0.00     0.186 C 
HETATM   13  S   UNL     1     -45.730  61.633 -49.128  1.00  0.00    -0.040 SA
BRANCH  12  14
HETATM   14  N   UNL     1     -43.586  60.310 -49.848  1.00  0.00    -0.364 N 
HETATM   15  H   UNL     1     -43.251  59.437 -49.447  1.00  0.00     0.162 HD
BRANCH  14  16
HETATM   16  C   UNL     1     -42.630  60.976 -50.728  1.00  0.00     0.154 C 
BRANCH  16  17
HETATM   17  C   UNL     1     -41.460  60.060 -51.083  1.00  0.00     0.139 C 
HETATM   18  O   UNL     1     -41.507  58.850 -50.299  1.00  0.00    -0.384 OA
HETATM   19  C   UNL     1     -40.997  57.776 -51.104  1.00  0.00     0.168 C 
HETATM   20  C   UNL     1     -40.639  58.350 -52.461  1.00  0.00     0.029 C 
HETATM   21  C   UNL     1     -41.483  59.599 -52.528  1.00  0.00     0.035 C 
ENDBRANCH  16  17
ENDBRANCH  14  16
ENDBRANCH  12  14
ENDBRANCH  10  12
ENDBRANCH   7  10
ENDBRANCH   3   6
BRANCH   1  22
HETATM   22  C   UNL     1     -42.033  54.964 -55.029  1.00  0.00     0.240 C 
BRANCH  22  23
HETATM   23  O   UNL     1     -40.978  55.146 -54.089  1.00  0.00    -0.345 OA
BRANCH  23  24
HETATM   24  C   UNL     1     -40.615  54.053 -53.347  1.00  0.00     0.069 A 
HETATM   25  C   UNL     1     -40.454  54.027 -51.952  1.00  0.00     0.037 A 
HETATM   26  C   UNL     1     -40.051  52.856 -51.300  1.00  0.00     0.010 A 
HETATM   27  C   UNL     1     -39.828  51.719 -52.058  1.00  0.00    -0.052 A 
HETATM   28  C   UNL     1     -39.990  51.739 -53.445  1.00  0.00    -0.049 A 
HETATM   29  C   UNL     1     -39.354  50.378 -51.597  1.00  0.00     0.039 C 
HETATM   30  C   UNL     1     -40.370  52.900 -54.101  1.00  0.00     0.044 A 
HETATM   31  C   UNL     1     -39.648  50.412 -54.043  1.00  0.00     0.039 C 
HETATM   32  C   UNL     1     -39.714  49.502 -52.807  1.00  0.00     0.009 C 
ENDBRANCH  23  24
ENDBRANCH  22  23
ENDBRANCH   1  22
TORSDOF 9
ENDMDL
MODEL 5
REMARK VINA RESULT:      -7.9      2.022      2.583
REMARK  9 active torsions:
REMARK  status: ('A' for Active; 'I' for Inactive)
REMARK    1  A    between atoms: C_2  and  O_3 
REMARK    2  A    between atoms: O_3  and  C_4 
REMARK    3  A    between atoms: C_4  and  C_5 
REMARK    4  A    between atoms: C_7  and  C_8 
REMARK       I    between atoms: C_8  and  N_9 
REMARK    5  A    between atoms: N_9  and  N_10 
REMARK    6  A    between atoms: N_10  and  C_11 
REMARK    7  A    between atoms: C_11  and  N_12 
REMARK    8  A    between atoms: N_12  and  C_13 
REMARK    9  A    between atoms: C_13  and  C_14 
ROOT
HETATM    1  C   UNL     1     -42.769  57.083 -52.638  1.00  0.00     0.078 A 
HETATM    2  O   UNL     1     -43.052  56.935 -53.963  1.00  0.00    -0.307 OA
HETATM    3  C   UNL     1     -44.222  57.602 -54.221  1.00  0.00     0.145 A 
HETATM    4  C   UNL     1     -44.696  58.147 -53.040  1.00  0.00     0.045 A 
HETATM    5  C   UNL     1     -43.761  57.818 -52.027  1.00  0.00     0.038 A 
ENDROOT
BRANCH   3   6
HETATM    6  C   UNL     1     -44.693  57.625 -55.591  1.00  0.00     0.293 C 
HETATM    7  N   UNL     1     -44.006  56.800 -56.467  1.00  0.00    -0.262 N 
HETATM    8  H   UNL     1     -43.209  56.229 -56.209  1.00  0.00     0.190 HD
HETATM    9  O   UNL     1     -45.644  58.300 -55.992  1.00  0.00    -0.264 OA
BRANCH   7  10
HETATM   10  N   UNL     1     -44.478  56.689 -57.785  1.00  0.00    -0.274 N 
HETATM   11  H   UNL     1     -45.141  57.419 -58.040  1.00  0.00     0.189 HD
BRANCH  10  12
HETATM   12  C   UNL     1     -43.719  56.103 -58.765  1.00  0.00     0.186 C 
HETATM   13  S   UNL     1     -44.261  54.933 -59.830  1.00  0.00    -0.040 SA
BRANCH  12  14
HETATM   14  N   UNL     1     -42.443  56.569 -58.893  1.00  0.00    -0.364 N 
HETATM   15  H   UNL     1     -41.736  55.917 -58.562  1.00  0.00     0.162 HD
BRANCH  14  16
HETATM   16  C   UNL     1     -41.964  57.518 -59.893  1.00  0.00     0.154 C 
BRANCH  16  17
HETATM   17  C   UNL     1     -42.210  58.963 -59.463  1.00  0.00     0.139 C 
HETATM   18  O   UNL     1     -43.617  59.274 -59.513  1.00  0.00    -0.384 OA
HETATM   19  C   UNL     1     -43.908  60.202 -58.456  1.00  0.00     0.168 C 
HETATM   20  C   UNL     1     -42.616  60.455 -57.702  1.00  0.00     0.029 C 
HETATM   21  C   UNL     1     -41.792  59.236 -58.030  1.00  0.00     0.035 C 
ENDBRANCH  16  17
ENDBRANCH  14  16
ENDBRANCH  12  14
ENDBRANCH  10  12
ENDBRANCH   7  10
ENDBRANCH   3   6
BRANCH   1  22
HETATM   22  C   UNL     1     -41.508  56.463 -52.155  1.00  0.00     0.240 C 
BRANCH  22  23
HETATM   23  O   UNL     1     -41.131  55.506 -53.141  1.00  0.00    -0.345 OA
BRANCH  23  24
HETATM   24  C   UNL     1     -40.727  54.278 -52.689  1.00  0.00     0.069 A 
HETATM   25  C   UNL     1     -40.491  53.936 -51.348  1.00  0.00     0.037 A 
HETATM   26  C   UNL     1     -40.053  52.651 -51.003  1.00  0.00     0.010 A 
HETATM   27  C   UNL     1     -39.870  51.721 -52.012  1.00  0.00    -0.052 A 
HETATM   28  C   UNL     1     -40.106  52.056 -53.347  1.00  0.00    -0.049 A 
HETATM   29  C   UNL     1     -39.370  50.316 -51.896  1.00  0.00     0.039 C 
HETATM   30  C   UNL     1     -40.522  53.331 -53.699  1.00  0.00     0.044 A 
HETATM   31  C   UNL     1     -39.796  50.905 -54.251  1.00  0.00     0.039 C 
HETATM   32  C   UNL     1     -39.794  49.736 -53.254  1.00  0.00     0.009 C 
ENDBRANCH  23  24
ENDBRANCH  22  23
ENDBRANCH   1  22
TORSDOF 9
ENDMDL
MODEL 6
REMARK VINA RESULT:      -7.9      3.467      5.456
REMARK  9 active torsions:
REMARK  status: ('A' for Active; 'I' for Inactive)
REMARK    1  A    between atoms: C_2  and  O_3 
REMARK    2  A    between atoms: O_3  and  C_4 
REMARK    3  A    between atoms: C_4  and  C_5 
REMARK    4  A    between atoms: C_7  and  C_8 
REMARK       I    between atoms: C_8  and  N_9 
REMARK    5  A    between atoms: N_9  and  N_10 
REMARK    6  A    between atoms: N_10  and  C_11 
REMARK    7  A    between atoms: C_11  and  N_12 
REMARK    8  A    between atoms: N_12  and  C_13 
REMARK    9  A    between atoms: C_13  and  C_14 
ROOT
HETATM    1  C   UNL     1     -42.397  56.127 -55.873  1.00  0.00     0.078 A 
HETATM    2  O   UNL     1     -41.932  57.011 -54.944  1.00  0.00    -0.307 OA
HETATM    3  C   UNL     1     -42.177  58.278 -55.408  1.00  0.00     0.145 A 
HETATM    4  C   UNL     1     -42.773  58.190 -56.655  1.00  0.00     0.045 A 
HETATM    5  C   UNL     1     -42.917  56.811 -56.949  1.00  0.00     0.038 A 
ENDROOT
BRANCH   3   6
HETATM    6  C   UNL     1     -41.811  59.389 -54.553  1.00  0.00     0.293 C 
HETATM    7  N   UNL     1     -42.721  60.433 -54.517  1.00  0.00    -0.262 N 
HETATM    8  H   UNL     1     -43.578  60.464 -55.059  1.00  0.00     0.190 HD
HETATM    9  O   UNL     1     -40.784  59.438 -53.873  1.00  0.00    -0.264 OA
BRANCH   7  10
HETATM   10  N   UNL     1     -42.485  61.492 -53.626  1.00  0.00    -0.274 N 
HETATM   11  H   UNL     1     -42.209  62.356 -54.089  1.00  0.00     0.189 HD
BRANCH  10  12
HETATM   12  C   UNL     1     -43.120  61.556 -52.413  1.00  0.00     0.186 C 
HETATM   13  S   UNL     1     -44.009  62.862 -51.862  1.00  0.00    -0.040 SA
BRANCH  12  14
HETATM   14  N   UNL     1     -43.052  60.433 -51.642  1.00  0.00    -0.364 N 
HETATM   15  H   UNL     1     -42.420  60.521 -50.849  1.00  0.00     0.162 HD
BRANCH  14  16
HETATM   16  C   UNL     1     -44.107  59.440 -51.462  1.00  0.00     0.154 C 
BRANCH  16  17
HETATM   17  C   UNL     1     -43.603  58.025 -51.740  1.00  0.00     0.139 C 
HETATM   18  O   UNL     1     -42.228  57.887 -51.325  1.00  0.00    -0.384 OA
HETATM   19  C   UNL     1     -42.037  56.543 -50.856  1.00  0.00     0.168 C 
HETATM   20  C   UNL     1     -43.368  55.826 -50.966  1.00  0.00     0.029 C 
HETATM   21  C   UNL     1     -44.361  56.961 -50.970  1.00  0.00     0.035 C 
ENDBRANCH  16  17
ENDBRANCH  14  16
ENDBRANCH  12  14
ENDBRANCH  10  12
ENDBRANCH   7  10
ENDBRANCH   3   6
BRANCH   1  22
HETATM   22  C   UNL     1     -42.263  54.685 -55.542  1.00  0.00     0.240 C 
BRANCH  22  23
HETATM   23  O   UNL     1     -40.884  54.468 -55.254  1.00  0.00    -0.345 OA
BRANCH  23  24
HETATM   24  C   UNL     1     -40.594  53.620 -54.219  1.00  0.00     0.069 A 
HETATM   25  C   UNL     1     -40.606  53.957 -52.856  1.00  0.00     0.037 A 
HETATM   26  C   UNL     1     -40.264  53.012 -51.881  1.00  0.00     0.010 A 
HETATM   27  C   UNL     1     -39.927  51.733 -52.289  1.00  0.00    -0.052 A 
HETATM   28  C   UNL     1     -39.916  51.392 -53.644  1.00  0.00    -0.049 A 
HETATM   29  C   UNL     1     -39.487  50.578 -51.447  1.00  0.00     0.039 C 
HETATM   30  C   UNL     1     -40.235  52.327 -54.616  1.00  0.00     0.044 A 
HETATM   31  C   UNL     1     -39.478  49.975 -53.836  1.00  0.00     0.039 C 
HETATM   32  C   UNL     1     -39.678  49.407 -52.422  1.00  0.00     0.009 C 
ENDBRANCH  23  24
ENDBRANCH  22  23
ENDBRANCH   1  22
TORSDOF 9
ENDMDL
MODEL 7
REMARK VINA RESULT:      -7.9      3.053      3.875
REMARK  9 active torsions:
REMARK  status: ('A' for Active; 'I' for Inactive)
REMARK    1  A    between atoms: C_2  and  O_3 
REMARK    2  A    between atoms: O_3  and  C_4 
REMARK    3  A    between atoms: C_4  and  C_5 
REMARK    4  A    between atoms: C_7  and  C_8 
REMARK       I    between atoms: C_8  and  N_9 
REMARK    5  A    between atoms: N_9  and  N_10 
REMARK    6  A    between atoms: N_10  and  C_11 
REMARK    7  A    between atoms: C_11  and  N_12 
REMARK    8  A    between atoms: N_12  and  C_13 
REMARK    9  A    between atoms: C_13  and  C_14 
ROOT
HETATM    1  C   UNL     1     -41.499  57.126 -51.518  1.00  0.00     0.078 A 
HETATM    2  O   UNL     1     -42.163  57.939 -52.389  1.00  0.00    -0.307 OA
HETATM    3  C   UNL     1     -41.608  59.189 -52.305  1.00  0.00     0.145 A 
HETATM    4  C   UNL     1     -40.607  59.172 -51.349  1.00  0.00     0.045 A 
HETATM    5  C   UNL     1     -40.535  57.847 -50.849  1.00  0.00     0.038 A 
ENDROOT
BRANCH   3   6
HETATM    6  C   UNL     1     -42.126  60.214 -53.190  1.00  0.00     0.293 C 
HETATM    7  N   UNL     1     -41.792  60.066 -54.526  1.00  0.00    -0.262 N 
HETATM    8  H   UNL     1     -41.206  59.323 -54.891  1.00  0.00     0.190 HD
HETATM    9  O   UNL     1     -42.831  61.158 -52.827  1.00  0.00    -0.264 OA
BRANCH   7  10
HETATM   10  N   UNL     1     -42.350  60.960 -55.454  1.00  0.00    -0.274 N 
HETATM   11  H   UNL     1     -42.491  61.897 -55.079  1.00  0.00     0.189 HD
BRANCH  10  12
HETATM   12  C   UNL     1     -42.151  60.802 -56.801  1.00  0.00     0.186 C 
HETATM   13  S   UNL     1     -42.251  62.025 -57.938  1.00  0.00    -0.040 SA
BRANCH  12  14
HETATM   14  N   UNL     1     -41.791  59.551 -57.210  1.00  0.00    -0.364 N 
HETATM   15  H   UNL     1     -40.888  59.249 -56.850  1.00  0.00     0.162 HD
BRANCH  14  16
HETATM   16  C   UNL     1     -42.696  58.459 -57.555  1.00  0.00     0.154 C 
BRANCH  16  17
HETATM   17  C   UNL     1     -42.425  57.214 -56.712  1.00  0.00     0.139 C 
HETATM   18  O   UNL     1     -43.090  57.313 -55.435  1.00  0.00    -0.384 OA
HETATM   19  C   UNL     1     -43.494  55.993 -55.039  1.00  0.00     0.168 C 
HETATM   20  C   UNL     1     -43.077  55.037 -56.140  1.00  0.00     0.029 C 
HETATM   21  C   UNL     1     -42.958  55.941 -57.341  1.00  0.00     0.035 C 
ENDBRANCH  16  17
ENDBRANCH  14  16
ENDBRANCH  12  14
ENDBRANCH  10  12
ENDBRANCH   7  10
ENDBRANCH   3   6
BRANCH   1  22
HETATM   22  C   UNL     1     -41.924  55.703 -51.483  1.00  0.00     0.240 C 
BRANCH  22  23
HETATM   23  O   UNL     1     -40.733  54.935 -51.339  1.00  0.00    -0.345 OA
BRANCH  23  24
HETATM   24  C   UNL     1     -40.548  53.907 -52.226  1.00  0.00     0.069 A 
HETATM   25  C   UNL     1     -40.719  53.986 -53.617  1.00  0.00     0.037 A 
HETATM   26  C   UNL     1     -40.527  52.859 -54.427  1.00  0.00     0.010 A 
HETATM   27  C   UNL     1     -40.153  51.669 -53.827  1.00  0.00    -0.052 A 
HETATM   28  C   UNL     1     -39.979  51.587 -52.444  1.00  0.00    -0.049 A 
HETATM   29  C   UNL     1     -39.937  50.337 -54.471  1.00  0.00     0.039 C 
HETATM   30  C   UNL     1     -40.184  52.693 -51.634  1.00  0.00     0.044 A 
HETATM   31  C   UNL     1     -39.620  50.195 -52.031  1.00  0.00     0.039 C 
HETATM   32  C   UNL     1     -39.163  49.596 -53.370  1.00  0.00     0.009 C 
ENDBRANCH  23  24
ENDBRANCH  22  23
ENDBRANCH   1  22
TORSDOF 9
ENDMDL
MODEL 8
REMARK VINA RESULT:      -7.8      2.672      3.262
REMARK  9 active torsions:
REMARK  status: ('A' for Active; 'I' for Inactive)
REMARK    1  A    between atoms: C_2  and  O_3 
REMARK    2  A    between atoms: O_3  and  C_4 
REMARK    3  A    between atoms: C_4  and  C_5 
REMARK    4  A    between atoms: C_7  and  C_8 
REMARK       I    between atoms: C_8  and  N_9 
REMARK    5  A    between atoms: N_9  and  N_10 
REMARK    6  A    between atoms: N_10  and  C_11 
REMARK    7  A    between atoms: C_11  and  N_12 
REMARK    8  A    between atoms: N_12  and  C_13 
REMARK    9  A    between atoms: C_13  and  C_14 
ROOT
HETATM    1  C   UNL     1     -41.398  57.848 -50.978  1.00  0.00     0.078 A 
HETATM    2  O   UNL     1     -41.939  57.668 -52.216  1.00  0.00    -0.307 OA
HETATM    3  C   UNL     1     -42.140  58.904 -52.773  1.00  0.00     0.145 A 
HETATM    4  C   UNL     1     -41.752  59.873 -51.863  1.00  0.00     0.045 A 
HETATM    5  C   UNL     1     -41.272  59.194 -50.715  1.00  0.00     0.038 A 
ENDROOT
BRANCH   3   6
HETATM    6  C   UNL     1     -42.663  58.956 -54.124  1.00  0.00     0.293 C 
HETATM    7  N   UNL     1     -42.091  58.061 -55.014  1.00  0.00    -0.262 N 
HETATM    8  H   UNL     1     -41.339  57.422 -54.779  1.00  0.00     0.190 HD
HETATM    9  O   UNL     1     -43.563  59.712 -54.496  1.00  0.00    -0.264 OA
BRANCH   7  10
HETATM   10  N   UNL     1     -42.624  57.980 -56.310  1.00  0.00    -0.274 N 
HETATM   11  H   UNL     1     -42.661  58.878 -56.789  1.00  0.00     0.189 HD
BRANCH  10  12
HETATM   12  C   UNL     1     -42.522  56.830 -57.050  1.00  0.00     0.186 C 
HETATM   13  S   UNL     1     -42.809  55.287 -56.472  1.00  0.00    -0.040 SA
BRANCH  12  14
HETATM   14  N   UNL     1     -42.216  56.993 -58.370  1.00  0.00    -0.364 N 
HETATM   15  H   UNL     1     -41.802  56.167 -58.796  1.00  0.00     0.162 HD
BRANCH  14  16
HETATM   16  C   UNL     1     -42.887  57.884 -59.311  1.00  0.00     0.154 C 
BRANCH  16  17
HETATM   17  C   UNL     1     -43.889  57.129 -60.183  1.00  0.00     0.139 C 
HETATM   18  O   UNL     1     -43.474  55.759 -60.362  1.00  0.00    -0.384 OA
HETATM   19  C   UNL     1     -44.653  54.942 -60.442  1.00  0.00     0.168 C 
HETATM   20  C   UNL     1     -45.854  55.854 -60.280  1.00  0.00     0.029 C 
HETATM   21  C   UNL     1     -45.273  57.049 -59.566  1.00  0.00     0.035 C 
ENDBRANCH  16  17
ENDBRANCH  14  16
ENDBRANCH  12  14
ENDBRANCH  10  12
ENDBRANCH   7  10
ENDBRANCH   3   6
BRANCH   1  22
HETATM   22  C   UNL     1     -41.064  56.619 -50.214  1.00  0.00     0.240 C 
BRANCH  22  23
HETATM   23  O   UNL     1     -41.891  55.585 -50.739  1.00  0.00    -0.345 OA
BRANCH  23  24
HETATM   24  C   UNL     1     -41.263  54.441 -51.156  1.00  0.00     0.069 A 
HETATM   25  C   UNL     1     -40.565  53.543 -50.331  1.00  0.00     0.037 A 
HETATM   26  C   UNL     1     -39.936  52.416 -50.873  1.00  0.00     0.010 A 
HETATM   27  C   UNL     1     -40.028  52.197 -52.237  1.00  0.00    -0.052 A 
HETATM   28  C   UNL     1     -40.724  53.085 -53.060  1.00  0.00    -0.049 A 
HETATM   29  C   UNL     1     -39.409  51.099 -53.042  1.00  0.00     0.039 C 
HETATM   30  C   UNL     1     -41.334  54.214 -52.535  1.00  0.00     0.044 A 
HETATM   31  C   UNL     1     -40.644  52.662 -54.492  1.00  0.00     0.039 C 
HETATM   32  C   UNL     1     -40.215  51.194 -54.346  1.00  0.00     0.009 C 
ENDBRANCH  23  24
ENDBRANCH  22  23
ENDBRANCH   1  22
TORSDOF 9
ENDMDL
MODEL 9
REMARK VINA RESULT:      -7.8      1.622      2.303
REMARK  9 active torsions:
REMARK  status: ('A' for Active; 'I' for Inactive)
REMARK    1  A    between atoms: C_2  and  O_3 
REMARK    2  A    between atoms: O_3  and  C_4 
REMARK    3  A    between atoms: C_4  and  C_5 
REMARK    4  A    between atoms: C_7  and  C_8 
REMARK       I    between atoms: C_8  and  N_9 
REMARK    5  A    between atoms: N_9  and  N_10 
REMARK    6  A    between atoms: N_10  and  C_11 
REMARK    7  A    between atoms: C_11  and  N_12 
REMARK    8  A    between atoms: N_12  and  C_13 
REMARK    9  A    between atoms: C_13  and  C_14 
ROOT
HETATM    1  C   UNL     1     -42.173  56.431 -51.542  1.00  0.00     0.078 A 
HETATM    2  O   UNL     1     -43.365  56.591 -52.184  1.00  0.00    -0.307 OA
HETATM    3  C   UNL     1     -43.347  57.812 -52.808  1.00  0.00     0.145 A 
HETATM    4  C   UNL     1     -42.146  58.440 -52.528  1.00  0.00     0.045 A 
HETATM    5  C   UNL     1     -41.392  57.551 -51.721  1.00  0.00     0.038 A 
ENDROOT
BRANCH   3   6
HETATM    6  C   UNL     1     -44.503  58.175 -53.604  1.00  0.00     0.293 C 
HETATM    7  N   UNL     1     -44.682  57.433 -54.760  1.00  0.00    -0.262 N 
HETATM    8  H   UNL     1     -44.055  56.700 -55.072  1.00  0.00     0.190 HD
HETATM    9  O   UNL     1     -45.305  59.062 -53.305  1.00  0.00    -0.264 OA
BRANCH   7  10
HETATM   10  N   UNL     1     -45.840  57.657 -55.522  1.00  0.00    -0.274 N 
HETATM   11  H   UNL     1     -46.683  57.752 -54.957  1.00  0.00     0.189 HD
BRANCH  10  12
HETATM   12  C   UNL     1     -45.779  58.276 -56.743  1.00  0.00     0.186 C 
HETATM   13  S   UNL     1     -45.083  59.770 -57.029  1.00  0.00    -0.040 SA
BRANCH  12  14
HETATM   14  N   UNL     1     -46.283  57.571 -57.797  1.00  0.00    -0.364 N 
HETATM   15  H   UNL     1     -47.066  56.971 -57.548  1.00  0.00     0.162 HD
BRANCH  14  16
HETATM   16  C   UNL     1     -46.256  57.974 -59.200  1.00  0.00     0.154 C 
BRANCH  16  17
HETATM   17  C   UNL     1     -45.374  57.048 -60.035  1.00  0.00     0.139 C 
HETATM   18  O   UNL     1     -44.220  56.629 -59.279  1.00  0.00    -0.384 OA
HETATM   19  C   UNL     1     -43.886  55.291 -59.677  1.00  0.00     0.168 C 
HETATM   20  C   UNL     1     -44.902  54.856 -60.716  1.00  0.00     0.029 C 
HETATM   21  C   UNL     1     -46.074  55.765 -60.439  1.00  0.00     0.035 C 
ENDBRANCH  16  17
ENDBRANCH  14  16
ENDBRANCH  12  14
ENDBRANCH  10  12
ENDBRANCH   7  10
ENDBRANCH   3   6
BRANCH   1  22
HETATM   22  C   UNL     1     -41.970  55.144 -50.830  1.00  0.00     0.240 C 
BRANCH  22  23
HETATM   23  O   UNL     1     -40.638  54.731 -51.122  1.00  0.00    -0.345 OA
BRANCH  23  24
HETATM   24  C   UNL     1     -40.487  53.740 -52.056  1.00  0.00     0.069 A 
HETATM   25  C   UNL     1     -40.695  53.879 -53.438  1.00  0.00     0.037 A 
HETATM   26  C   UNL     1     -40.537  52.786 -54.299  1.00  0.00     0.010 A 
HETATM   27  C   UNL     1     -40.159  51.568 -53.760  1.00  0.00    -0.052 A 
HETATM   28  C   UNL     1     -39.949  51.426 -52.387  1.00  0.00    -0.049 A 
HETATM   29  C   UNL     1     -39.975  50.262 -54.465  1.00  0.00     0.039 C 
HETATM   30  C   UNL     1     -40.121  52.498 -51.526  1.00  0.00     0.044 A 
HETATM   31  C   UNL     1     -39.595  50.014 -52.043  1.00  0.00     0.039 C 
HETATM   32  C   UNL     1     -39.180  49.468 -53.417  1.00  0.00     0.009 C 
ENDBRANCH  23  24
ENDBRANCH  22  23
ENDBRANCH   1  22
TORSDOF 9
ENDMDL
MODEL 10
REMARK VINA RESULT:      -7.7      1.795      2.475
REMARK  9 active torsions:
REMARK  status: ('A' for Active; 'I' for Inactive)
REMARK    1  A    between atoms: C_2  and  O_3 
REMARK    2  A    between atoms: O_3  and  C_4 
REMARK    3  A    between atoms: C_4  and  C_5 
REMARK    4  A    between atoms: C_7  and  C_8 
REMARK       I    between atoms: C_8  and  N_9 
REMARK    5  A    between atoms: N_9  and  N_10 
REMARK    6  A    between atoms: N_10  and  C_11 
REMARK    7  A    between atoms: C_11  and  N_12 
REMARK    8  A    between atoms: N_12  and  C_13 
REMARK    9  A    between atoms: C_13  and  C_14 
ROOT
HETATM    1  C   UNL     1     -43.057  55.976 -51.236  1.00  0.00     0.078 A 
HETATM    2  O   UNL     1     -43.138  55.689 -52.567  1.00  0.00    -0.307 OA
HETATM    3  C   UNL     1     -43.941  56.634 -53.153  1.00  0.00     0.145 A 
HETATM    4  C   UNL     1     -44.396  57.503 -52.176  1.00  0.00     0.045 A 
HETATM    5  C   UNL     1     -43.824  57.083 -50.949  1.00  0.00     0.038 A 
ENDROOT
BRANCH   3   6
HETATM    6  C   UNL     1     -44.128  56.558 -54.588  1.00  0.00     0.293 C 
HETATM    7  N   UNL     1     -45.127  57.371 -55.098  1.00  0.00    -0.262 N 
HETATM    8  H   UNL     1     -45.724  57.967 -54.534  1.00  0.00     0.190 HD
HETATM    9  O   UNL     1     -43.458  55.850 -55.343  1.00  0.00    -0.264 OA
BRANCH   7  10
HETATM   10  N   UNL     1     -45.290  57.430 -56.492  1.00  0.00    -0.274 N 
HETATM   11  H   UNL     1     -46.234  57.201 -56.798  1.00  0.00     0.189 HD
BRANCH  10  12
HETATM   12  C   UNL     1     -44.520  58.261 -57.262  1.00  0.00     0.186 C 
HETATM   13  S   UNL     1     -44.568  59.933 -57.218  1.00  0.00    -0.040 SA
BRANCH  12  14
HETATM   14  N   UNL     1     -43.613  57.650 -58.079  1.00  0.00    -0.364 N 
HETATM   15  H   UNL     1     -43.455  56.671 -57.851  1.00  0.00     0.162 HD
BRANCH  14  16
HETATM   16  C   UNL     1     -43.325  57.999 -59.467  1.00  0.00     0.154 C 
BRANCH  16  17
HETATM   17  C   UNL     1     -44.102  57.117 -60.442  1.00  0.00     0.139 C 
HETATM   18  O   UNL     1     -43.621  55.758 -60.390  1.00  0.00    -0.384 OA
HETATM   19  C   UNL     1     -44.734  54.881 -60.624  1.00  0.00     0.168 C 
HETATM   20  C   UNL     1     -45.967  55.745 -60.805  1.00  0.00     0.029 C 
HETATM   21  C   UNL     1     -45.581  57.029 -60.115  1.00  0.00     0.035 C 
ENDBRANCH  16  17
ENDBRANCH  14  16
ENDBRANCH  12  14
ENDBRANCH  10  12
ENDBRANCH   7  10
ENDBRANCH   3   6
BRANCH   1  22
HETATM   22  C   UNL     1     -42.193  55.087 -50.417  1.00  0.00     0.240 C 
BRANCH  22  23
HETATM   23  O   UNL     1     -40.998  54.889 -51.167  1.00  0.00    -0.345 OA
BRANCH  23  24
HETATM   24  C   UNL     1     -40.639  53.593 -51.430  1.00  0.00     0.069 A 
HETATM   25  C   UNL     1     -40.355  52.611 -50.467  1.00  0.00     0.037 A 
HETATM   26  C   UNL     1     -39.970  51.321 -50.853  1.00  0.00     0.010 A 
HETATM   27  C   UNL     1     -39.889  51.031 -52.204  1.00  0.00    -0.052 A 
HETATM   28  C   UNL     1     -40.174  52.004 -53.165  1.00  0.00    -0.049 A 
HETATM   29  C   UNL     1     -39.461  49.753 -52.852  1.00  0.00     0.039 C 
HETATM   30  C   UNL     1     -40.537  53.288 -52.792  1.00  0.00     0.044 A 
HETATM   31  C   UNL     1     -39.973  51.467 -54.546  1.00  0.00     0.039 C 
HETATM   32  C   UNL     1     -39.984  49.954 -54.282  1.00  0.00     0.009 C 
ENDBRANCH  23  24
ENDBRANCH  22  23
ENDBRANCH   1  22
TORSDOF 9
ENDMDL
