MODEL 1
REMARK VINA RESULT:      -8.9      0.000      0.000
REMARK  5 active torsions:
REMARK  status: ('A' for Active; 'I' for Inactive)
REMARK    1  A    between atoms: O_2  and  C_3 
REMARK    2  A    between atoms: C_5  and  O_6 
REMARK    3  A    between atoms: C_8  and  C_9 
REMARK    4  A    between atoms: C_21  and  N_22 
REMARK       I    between atoms: N_22  and  C_23 
REMARK    5  A    between atoms: C_23  and  C_24 
ROOT
HETATM    1  C   UNL     1     -43.354  58.172 -56.371  1.00  0.00    -0.022 A 
HETATM    2  C   UNL     1     -42.441  57.688 -55.422  1.00  0.00     0.031 A 
HETATM    3  C   UNL     1     -42.830  57.372 -54.104  1.00  0.00     0.059 A 
HETATM    4  C   UNL     1     -44.173  57.538 -53.721  1.00  0.00     0.050 A 
HETATM    5  N   UNL     1     -44.702  57.281 -52.442  1.00  0.00    -0.324 N 
HETATM    6  C   UNL     1     -44.262  56.382 -51.506  1.00  0.00     0.245 C 
HETATM    7  O   UNL     1     -44.835  56.305 -50.419  1.00  0.00    -0.271 OA
HETATM    8  C   UNL     1     -43.118  55.456 -51.922  1.00  0.00     0.181 C 
HETATM    9  N   UNL     1     -41.917  56.276 -52.055  1.00  0.00    -0.334 N 
HETATM   10  C   UNL     1     -41.715  57.102 -53.155  1.00  0.00     0.256 C 
HETATM   11  O   UNL     1     -40.629  57.646 -53.350  1.00  0.00    -0.267 OA
HETATM   12  C   UNL     1     -42.948  54.229 -51.009  1.00  0.00     0.060 C 
HETATM   13  C   UNL     1     -41.577  54.136 -50.337  1.00  0.00     0.088 C 
HETATM   14  C   UNL     1     -41.193  55.500 -49.781  1.00  0.00     0.045 C 
HETATM   15  C   UNL     1     -41.090  56.546 -50.880  1.00  0.00     0.129 C 
HETATM   16  C   UNL     1     -45.084  58.041 -54.660  1.00  0.00     0.031 A 
HETATM   17  C   UNL     1     -44.683  58.342 -55.966  1.00  0.00     0.014 A 
HETATM   18  H   UNL     1     -45.589  57.708 -52.194  1.00  0.00     0.169 HD
ENDROOT
BRANCH  13  19
HETATM   19  N   UNL     1     -40.557  53.621 -51.253  1.00  0.00    -0.356 N 
HETATM   20  C   UNL     1     -40.106  52.327 -51.170  1.00  0.00     0.222 C 
HETATM   21  O   UNL     1     -40.393  51.560 -50.258  1.00  0.00    -0.273 OA
HETATM   22  H   UNL     1     -40.477  54.099 -52.147  1.00  0.00     0.162 HD
BRANCH  20  23
HETATM   23  C   UNL     1     -39.102  51.939 -52.248  1.00  0.00     0.081 C 
HETATM   24  C   UNL     1     -39.593  52.357 -53.643  1.00  0.00     0.041 C 
HETATM   25  C   UNL     1     -40.749  51.511 -54.164  1.00  0.00     0.233 C 
HETATM   26  N   UNL     1     -40.404  50.064 -54.050  1.00  0.00    -0.075 N 
HETATM   27  H   UNL     1     -39.641  49.835 -54.700  1.00  0.00     0.277 HD
HETATM   28  H   UNL     1     -41.215  49.515 -54.367  1.00  0.00     0.277 HD
HETATM   29  C   UNL     1     -40.049  49.629 -52.667  1.00  0.00     0.233 C 
HETATM   30  C   UNL     1     -38.846  50.429 -52.184  1.00  0.00     0.041 C 
ENDBRANCH  20  23
ENDBRANCH  13  19
BRANCH   1  31
HETATM   31  C   UNL     1     -42.909  58.560 -57.725  1.00  0.00     0.008 A 
HETATM   32  C   UNL     1     -42.850  57.653 -58.804  1.00  0.00     0.082 A 
HETATM   33  C   UNL     1     -42.421  58.096 -60.063  1.00  0.00     0.074 A 
HETATM   34  C   UNL     1     -42.066  59.432 -60.280  1.00  0.00     0.070 A 
HETATM   35  C   UNL     1     -42.130  60.334 -59.224  1.00  0.00     0.038 A 
HETATM   36  C   UNL     1     -42.546  59.901 -57.962  1.00  0.00     0.018 A 
BRANCH  32  37
HETATM   37  O   UNL     1     -43.194  56.350 -58.530  1.00  0.00    -0.355 OA
HETATM   38  C   UNL     1     -43.532  55.523 -59.639  1.00  0.00     0.210 C 
ENDBRANCH  32  37
BRANCH  34  39
HETATM   39  O   UNL     1     -41.673  59.719 -61.558  1.00  0.00    -0.356 OA
HETATM   40  C   UNL     1     -42.174  60.922 -62.131  1.00  0.00     0.210 C 
ENDBRANCH  34  39
ENDBRANCH   1  31
TORSDOF 5
ENDMDL
MODEL 2
REMARK VINA RESULT:      -8.4      2.776      8.782
REMARK  5 active torsions:
REMARK  status: ('A' for Active; 'I' for Inactive)
REMARK    1  A    between atoms: O_2  and  C_3 
REMARK    2  A    between atoms: C_5  and  O_6 
REMARK    3  A    between atoms: C_8  and  C_9 
REMARK    4  A    between atoms: C_21  and  N_22 
REMARK       I    between atoms: N_22  and  C_23 
REMARK    5  A    between atoms: C_23  and  C_24 
ROOT
HETATM    1  C   UNL     1     -41.249  55.570 -51.579  1.00  0.00    -0.022 A 
HETATM    2  C   UNL     1     -42.063  56.003 -52.637  1.00  0.00     0.031 A 
HETATM    3  C   UNL     1     -42.572  57.316 -52.699  1.00  0.00     0.059 A 
HETATM    4  C   UNL     1     -42.255  58.229 -51.678  1.00  0.00     0.050 A 
HETATM    5  N   UNL     1     -42.702  59.562 -51.596  1.00  0.00    -0.324 N 
HETATM    6  C   UNL     1     -43.041  60.408 -52.621  1.00  0.00     0.245 C 
HETATM    7  O   UNL     1     -43.439  61.544 -52.365  1.00  0.00    -0.271 OA
HETATM    8  C   UNL     1     -42.814  59.894 -54.044  1.00  0.00     0.181 C 
HETATM    9  N   UNL     1     -43.778  58.824 -54.282  1.00  0.00    -0.334 N 
HETATM   10  C   UNL     1     -43.606  57.554 -53.744  1.00  0.00     0.256 C 
HETATM   11  O   UNL     1     -44.317  56.613 -54.095  1.00  0.00    -0.267 OA
HETATM   12  C   UNL     1     -42.821  61.002 -55.112  1.00  0.00     0.060 C 
HETATM   13  C   UNL     1     -43.896  60.826 -56.186  1.00  0.00     0.088 C 
HETATM   14  C   UNL     1     -45.218  60.461 -55.524  1.00  0.00     0.045 C 
HETATM   15  C   UNL     1     -45.120  59.150 -54.760  1.00  0.00     0.129 C 
HETATM   16  C   UNL     1     -41.459  57.795 -50.609  1.00  0.00     0.031 A 
HETATM   17  C   UNL     1     -40.956  56.490 -50.566  1.00  0.00     0.014 A 
HETATM   18  H   UNL     1     -42.665  60.027 -50.695  1.00  0.00     0.169 HD
ENDROOT
BRANCH  13  19
HETATM   19  N   UNL     1     -43.504  59.833 -57.189  1.00  0.00    -0.356 N 
HETATM   20  C   UNL     1     -44.019  59.856 -58.462  1.00  0.00     0.222 C 
HETATM   21  O   UNL     1     -44.936  60.589 -58.815  1.00  0.00    -0.273 OA
HETATM   22  H   UNL     1     -42.602  59.387 -57.047  1.00  0.00     0.162 HD
BRANCH  20  23
HETATM   23  C   UNL     1     -43.445  58.798 -59.394  1.00  0.00     0.081 C 
HETATM   24  C   UNL     1     -44.548  58.146 -60.244  1.00  0.00     0.041 C 
HETATM   25  C   UNL     1     -45.459  57.214 -59.453  1.00  0.00     0.233 C 
HETATM   26  N   UNL     1     -44.633  56.240 -58.682  1.00  0.00    -0.075 N 
HETATM   27  H   UNL     1     -44.153  55.599 -59.327  1.00  0.00     0.277 HD
HETATM   28  H   UNL     1     -45.267  55.651 -58.126  1.00  0.00     0.277 HD
HETATM   29  C   UNL     1     -43.645  56.874 -57.759  1.00  0.00     0.233 C 
HETATM   30  C   UNL     1     -42.694  57.747 -58.568  1.00  0.00     0.041 C 
ENDBRANCH  20  23
ENDBRANCH  13  19
BRANCH   1  31
HETATM   31  C   UNL     1     -40.784  54.170 -51.502  1.00  0.00     0.008 A 
HETATM   32  C   UNL     1     -40.777  53.429 -50.301  1.00  0.00     0.082 A 
HETATM   33  C   UNL     1     -40.326  52.101 -50.305  1.00  0.00     0.074 A 
HETATM   34  C   UNL     1     -39.896  51.485 -51.486  1.00  0.00     0.070 A 
HETATM   35  C   UNL     1     -39.908  52.205 -52.674  1.00  0.00     0.038 A 
HETATM   36  C   UNL     1     -40.346  53.532 -52.680  1.00  0.00     0.018 A 
BRANCH  32  37
HETATM   37  O   UNL     1     -41.193  54.089 -49.169  1.00  0.00    -0.355 OA
HETATM   38  C   UNL     1     -40.423  53.897 -47.987  1.00  0.00     0.210 C 
ENDBRANCH  32  37
BRANCH  34  39
HETATM   39  O   UNL     1     -39.489  50.187 -51.338  1.00  0.00    -0.356 OA
HETATM   40  C   UNL     1     -39.565  49.353 -52.489  1.00  0.00     0.210 C 
ENDBRANCH  34  39
ENDBRANCH   1  31
TORSDOF 5
ENDMDL
MODEL 3
REMARK VINA RESULT:      -8.4      2.763      8.512
REMARK  5 active torsions:
REMARK  status: ('A' for Active; 'I' for Inactive)
REMARK    1  A    between atoms: O_2  and  C_3 
REMARK    2  A    between atoms: C_5  and  O_6 
REMARK    3  A    between atoms: C_8  and  C_9 
REMARK    4  A    between atoms: C_21  and  N_22 
REMARK       I    between atoms: N_22  and  C_23 
REMARK    5  A    between atoms: C_23  and  C_24 
ROOT
HETATM    1  C   UNL     1     -41.247  55.505 -51.550  1.00  0.00    -0.022 A 
HETATM    2  C   UNL     1     -42.064  55.955 -52.597  1.00  0.00     0.031 A 
HETATM    3  C   UNL     1     -42.570  57.270 -52.638  1.00  0.00     0.059 A 
HETATM    4  C   UNL     1     -42.245  58.168 -51.606  1.00  0.00     0.050 A 
HETATM    5  N   UNL     1     -42.688  59.501 -51.504  1.00  0.00    -0.324 N 
HETATM    6  C   UNL     1     -43.029  60.362 -52.514  1.00  0.00     0.245 C 
HETATM    7  O   UNL     1     -43.422  61.495 -52.241  1.00  0.00    -0.271 OA
HETATM    8  C   UNL     1     -42.809  59.868 -53.946  1.00  0.00     0.181 C 
HETATM    9  N   UNL     1     -43.777  58.804 -54.195  1.00  0.00    -0.334 N 
HETATM   10  C   UNL     1     -43.607  57.526 -53.676  1.00  0.00     0.256 C 
HETATM   11  O   UNL     1     -44.323  56.592 -54.036  1.00  0.00    -0.267 OA
HETATM   12  C   UNL     1     -42.818  60.991 -54.998  1.00  0.00     0.060 C 
HETATM   13  C   UNL     1     -43.898  60.833 -56.070  1.00  0.00     0.088 C 
HETATM   14  C   UNL     1     -45.218  60.463 -55.407  1.00  0.00     0.045 C 
HETATM   15  C   UNL     1     -45.121  59.141 -54.662  1.00  0.00     0.129 C 
HETATM   16  C   UNL     1     -41.446  57.716 -50.547  1.00  0.00     0.031 A 
HETATM   17  C   UNL     1     -40.946  56.409 -50.525  1.00  0.00     0.014 A 
HETATM   18  H   UNL     1     -42.646  59.953 -50.596  1.00  0.00     0.169 HD
ENDROOT
BRANCH  13  19
HETATM   19  N   UNL     1     -43.513  59.853 -57.088  1.00  0.00    -0.356 N 
HETATM   20  C   UNL     1     -44.008  59.916 -58.368  1.00  0.00     0.222 C 
HETATM   21  O   UNL     1     -44.903  60.678 -58.718  1.00  0.00    -0.273 OA
HETATM   22  H   UNL     1     -42.624  59.383 -56.943  1.00  0.00     0.162 HD
BRANCH  20  23
HETATM   23  C   UNL     1     -43.444  58.865 -59.314  1.00  0.00     0.081 C 
HETATM   24  C   UNL     1     -44.555  58.228 -60.165  1.00  0.00     0.041 C 
HETATM   25  C   UNL     1     -45.466  57.291 -59.380  1.00  0.00     0.233 C 
HETATM   26  N   UNL     1     -44.640  56.305 -58.623  1.00  0.00    -0.075 N 
HETATM   27  H   UNL     1     -44.167  55.669 -59.278  1.00  0.00     0.277 HD
HETATM   28  H   UNL     1     -45.274  55.713 -58.070  1.00  0.00     0.277 HD
HETATM   29  C   UNL     1     -43.645  56.925 -57.699  1.00  0.00     0.233 C 
HETATM   30  C   UNL     1     -42.694  57.802 -58.504  1.00  0.00     0.041 C 
ENDBRANCH  20  23
ENDBRANCH  13  19
BRANCH   1  31
HETATM   31  C   UNL     1     -40.786  54.102 -51.494  1.00  0.00     0.008 A 
HETATM   32  C   UNL     1     -40.235  53.430 -52.606  1.00  0.00     0.082 A 
HETATM   33  C   UNL     1     -39.815  52.098 -52.475  1.00  0.00     0.074 A 
HETATM   34  C   UNL     1     -39.913  51.423 -51.254  1.00  0.00     0.070 A 
HETATM   35  C   UNL     1     -40.447  52.080 -50.152  1.00  0.00     0.038 A 
HETATM   36  C   UNL     1     -40.879  53.404 -50.273  1.00  0.00     0.018 A 
BRANCH  32  37
HETATM   37  O   UNL     1     -40.178  54.136 -53.784  1.00  0.00    -0.355 OA
HETATM   38  C   UNL     1     -40.354  53.399 -54.989  1.00  0.00     0.210 C 
ENDBRANCH  32  37
BRANCH  34  39
HETATM   39  O   UNL     1     -39.460  50.132 -51.276  1.00  0.00    -0.356 OA
HETATM   40  C   UNL     1     -39.558  49.436 -52.513  1.00  0.00     0.210 C 
ENDBRANCH  34  39
ENDBRANCH   1  31
TORSDOF 5
ENDMDL
MODEL 4
REMARK VINA RESULT:      -8.3      3.105      8.546
REMARK  5 active torsions:
REMARK  status: ('A' for Active; 'I' for Inactive)
REMARK    1  A    between atoms: O_2  and  C_3 
REMARK    2  A    between atoms: C_5  and  O_6 
REMARK    3  A    between atoms: C_8  and  C_9 
REMARK    4  A    between atoms: C_21  and  N_22 
REMARK       I    between atoms: N_22  and  C_23 
REMARK    5  A    between atoms: C_23  and  C_24 
ROOT
HETATM    1  C   UNL     1     -41.828  54.688 -54.548  1.00  0.00    -0.022 A 
HETATM    2  C   UNL     1     -41.770  56.064 -54.279  1.00  0.00     0.031 A 
HETATM    3  C   UNL     1     -42.399  57.014 -55.108  1.00  0.00     0.059 A 
HETATM    4  C   UNL     1     -43.114  56.581 -56.238  1.00  0.00     0.050 A 
HETATM    5  N   UNL     1     -43.776  57.411 -57.164  1.00  0.00    -0.324 N 
HETATM    6  C   UNL     1     -44.329  58.647 -56.951  1.00  0.00     0.245 C 
HETATM    7  O   UNL     1     -44.853  59.248 -57.887  1.00  0.00    -0.271 OA
HETATM    8  C   UNL     1     -44.332  59.163 -55.510  1.00  0.00     0.181 C 
HETATM    9  N   UNL     1     -42.948  59.450 -55.145  1.00  0.00    -0.334 N 
HETATM   10  C   UNL     1     -42.051  58.436 -54.832  1.00  0.00     0.256 C 
HETATM   11  O   UNL     1     -40.947  58.690 -54.351  1.00  0.00    -0.267 OA
HETATM   12  C   UNL     1     -45.305  60.331 -55.272  1.00  0.00     0.060 C 
HETATM   13  C   UNL     1     -44.632  61.612 -54.775  1.00  0.00     0.088 C 
HETATM   14  C   UNL     1     -43.382  61.879 -55.600  1.00  0.00     0.045 C 
HETATM   15  C   UNL     1     -42.369  60.753 -55.467  1.00  0.00     0.129 C 
HETATM   16  C   UNL     1     -43.157  55.209 -56.523  1.00  0.00     0.031 A 
HETATM   17  C   UNL     1     -42.533  54.277 -55.685  1.00  0.00     0.014 A 
HETATM   18  H   UNL     1     -43.996  57.031 -58.079  1.00  0.00     0.169 HD
ENDROOT
BRANCH  13  19
HETATM   19  N   UNL     1     -44.328  61.545 -53.343  1.00  0.00    -0.356 N 
HETATM   20  C   UNL     1     -45.315  61.656 -52.395  1.00  0.00     0.222 C 
HETATM   21  O   UNL     1     -46.475  61.964 -52.647  1.00  0.00    -0.273 OA
HETATM   22  H   UNL     1     -43.475  61.055 -53.090  1.00  0.00     0.162 HD
BRANCH  20  23
HETATM   23  C   UNL     1     -44.832  61.489 -50.960  1.00  0.00     0.081 C 
HETATM   24  C   UNL     1     -43.414  60.896 -50.916  1.00  0.00     0.041 C 
HETATM   25  C   UNL     1     -43.355  59.422 -51.298  1.00  0.00     0.233 C 
HETATM   26  N   UNL     1     -44.358  58.656 -50.502  1.00  0.00    -0.075 N 
HETATM   27  H   UNL     1     -44.085  58.647 -49.510  1.00  0.00     0.277 HD
HETATM   28  H   UNL     1     -44.328  57.674 -50.808  1.00  0.00     0.277 HD
HETATM   29  C   UNL     1     -45.758  59.153 -50.644  1.00  0.00     0.233 C 
HETATM   30  C   UNL     1     -45.822  60.606 -50.191  1.00  0.00     0.041 C 
ENDBRANCH  20  23
ENDBRANCH  13  19
BRANCH   1  31
HETATM   31  C   UNL     1     -41.104  53.717 -53.703  1.00  0.00     0.008 A 
HETATM   32  C   UNL     1     -41.230  53.677 -52.298  1.00  0.00     0.082 A 
HETATM   33  C   UNL     1     -40.514  52.722 -51.562  1.00  0.00     0.074 A 
HETATM   34  C   UNL     1     -39.684  51.790 -52.195  1.00  0.00     0.070 A 
HETATM   35  C   UNL     1     -39.560  51.818 -53.579  1.00  0.00     0.038 A 
HETATM   36  C   UNL     1     -40.262  52.772 -54.322  1.00  0.00     0.018 A 
BRANCH  32  37
HETATM   37  O   UNL     1     -42.045  54.625 -51.728  1.00  0.00    -0.355 OA
HETATM   38  C   UNL     1     -43.292  54.178 -51.205  1.00  0.00     0.210 C 
ENDBRANCH  32  37
BRANCH  34  39
HETATM   39  O   UNL     1     -39.054  50.918 -51.350  1.00  0.00    -0.356 OA
HETATM   40  C   UNL     1     -39.786  49.766 -50.949  1.00  0.00     0.210 C 
ENDBRANCH  34  39
ENDBRANCH   1  31
TORSDOF 5
ENDMDL
MODEL 5
REMARK VINA RESULT:      -8.2      2.809      8.683
REMARK  5 active torsions:
REMARK  status: ('A' for Active; 'I' for Inactive)
REMARK    1  A    between atoms: O_2  and  C_3 
REMARK    2  A    between atoms: C_5  and  O_6 
REMARK    3  A    between atoms: C_8  and  C_9 
REMARK    4  A    between atoms: C_21  and  N_22 
REMARK       I    between atoms: N_22  and  C_23 
REMARK    5  A    between atoms: C_23  and  C_24 
ROOT
HETATM    1  C   UNL     1     -41.229  56.209 -51.267  1.00  0.00    -0.022 A 
HETATM    2  C   UNL     1     -42.277  56.573 -52.126  1.00  0.00     0.031 A 
HETATM    3  C   UNL     1     -42.633  57.920 -52.339  1.00  0.00     0.059 A 
HETATM    4  C   UNL     1     -41.918  58.937 -51.682  1.00  0.00     0.050 A 
HETATM    5  N   UNL     1     -42.169  60.319 -51.784  1.00  0.00    -0.324 N 
HETATM    6  C   UNL     1     -42.713  61.008 -52.837  1.00  0.00     0.245 C 
HETATM    7  O   UNL     1     -42.886  62.222 -52.746  1.00  0.00    -0.271 OA
HETATM    8  C   UNL     1     -42.994  60.210 -54.112  1.00  0.00     0.181 C 
HETATM    9  N   UNL     1     -44.095  59.296 -53.824  1.00  0.00    -0.334 N 
HETATM   10  C   UNL     1     -43.906  58.136 -53.081  1.00  0.00     0.256 C 
HETATM   11  O   UNL     1     -44.789  57.284 -52.997  1.00  0.00    -0.267 OA
HETATM   12  C   UNL     1     -43.209  61.087 -55.358  1.00  0.00     0.060 C 
HETATM   13  C   UNL     1     -44.575  60.904 -56.021  1.00  0.00     0.088 C 
HETATM   14  C   UNL     1     -45.660  60.900 -54.953  1.00  0.00     0.045 C 
HETATM   15  C   UNL     1     -45.475  59.755 -53.970  1.00  0.00     0.129 C 
HETATM   16  C   UNL     1     -40.884  58.576 -50.808  1.00  0.00     0.031 A 
HETATM   17  C   UNL     1     -40.538  57.234 -50.612  1.00  0.00     0.014 A 
HETATM   18  H   UNL     1     -41.806  60.929 -51.058  1.00  0.00     0.169 HD
ENDROOT
BRANCH  13  19
HETATM   19  N   UNL     1     -44.623  59.691 -56.841  1.00  0.00    -0.356 N 
HETATM   20  C   UNL     1     -44.473  59.741 -58.206  1.00  0.00     0.222 C 
HETATM   21  O   UNL     1     -44.442  60.782 -58.852  1.00  0.00    -0.273 OA
HETATM   22  H   UNL     1     -44.394  58.822 -56.367  1.00  0.00     0.162 HD
BRANCH  20  23
HETATM   23  C   UNL     1     -44.474  58.381 -58.890  1.00  0.00     0.081 C 
HETATM   24  C   UNL     1     -43.984  57.278 -57.938  1.00  0.00     0.041 C 
HETATM   25  C   UNL     1     -42.488  57.335 -57.653  1.00  0.00     0.233 C 
HETATM   26  N   UNL     1     -41.735  57.404 -58.939  1.00  0.00    -0.075 N 
HETATM   27  H   UNL     1     -41.837  56.519 -59.453  1.00  0.00     0.277 HD
HETATM   28  H   UNL     1     -40.732  57.484 -58.720  1.00  0.00     0.277 HD
HETATM   29  C   UNL     1     -42.121  58.552 -59.811  1.00  0.00     0.233 C 
HETATM   30  C   UNL     1     -43.603  58.446 -60.150  1.00  0.00     0.041 C 
ENDBRANCH  20  23
ENDBRANCH  13  19
BRANCH   1  31
HETATM   31  C   UNL     1     -40.919  54.788 -51.006  1.00  0.00     0.008 A 
HETATM   32  C   UNL     1     -40.591  53.873 -52.030  1.00  0.00     0.082 A 
HETATM   33  C   UNL     1     -40.304  52.539 -51.705  1.00  0.00     0.074 A 
HETATM   34  C   UNL     1     -40.318  52.097 -50.377  1.00  0.00     0.070 A 
HETATM   35  C   UNL     1     -40.631  52.994 -49.363  1.00  0.00     0.038 A 
HETATM   36  C   UNL     1     -40.929  54.323 -49.676  1.00  0.00     0.018 A 
BRANCH  32  37
HETATM   37  O   UNL     1     -40.610  54.357 -53.316  1.00  0.00    -0.355 OA
HETATM   38  C   UNL     1     -40.265  53.448 -54.355  1.00  0.00     0.210 C 
ENDBRANCH  32  37
BRANCH  34  39
HETATM   39  O   UNL     1     -40.013  50.773 -50.212  1.00  0.00    -0.356 OA
HETATM   40  C   UNL     1     -39.485  50.088 -51.342  1.00  0.00     0.210 C 
ENDBRANCH  34  39
ENDBRANCH   1  31
TORSDOF 5
ENDMDL
MODEL 6
REMARK VINA RESULT:      -8.2      4.808      8.322
REMARK  5 active torsions:
REMARK  status: ('A' for Active; 'I' for Inactive)
REMARK    1  A    between atoms: O_2  and  C_3 
REMARK    2  A    between atoms: C_5  and  O_6 
REMARK    3  A    between atoms: C_8  and  C_9 
REMARK    4  A    between atoms: C_21  and  N_22 
REMARK       I    between atoms: N_22  and  C_23 
REMARK    5  A    between atoms: C_23  and  C_24 
ROOT
HETATM    1  C   UNL     1     -44.562  61.575 -50.104  1.00  0.00    -0.022 A 
HETATM    2  C   UNL     1     -44.631  60.299 -50.683  1.00  0.00     0.031 A 
HETATM    3  C   UNL     1     -43.964  59.987 -51.885  1.00  0.00     0.059 A 
HETATM    4  C   UNL     1     -43.198  60.975 -52.527  1.00  0.00     0.050 A 
HETATM    5  N   UNL     1     -42.493  60.815 -53.736  1.00  0.00    -0.324 N 
HETATM    6  C   UNL     1     -41.949  59.669 -54.257  1.00  0.00     0.245 C 
HETATM    7  O   UNL     1     -41.383  59.706 -55.348  1.00  0.00    -0.271 OA
HETATM    8  C   UNL     1     -42.012  58.415 -53.382  1.00  0.00     0.181 C 
HETATM    9  N   UNL     1     -43.412  58.007 -53.303  1.00  0.00    -0.334 N 
HETATM   10  C   UNL     1     -44.323  58.677 -52.495  1.00  0.00     0.256 C 
HETATM   11  O   UNL     1     -45.448  58.220 -52.292  1.00  0.00    -0.267 OA
HETATM   12  C   UNL     1     -41.051  57.299 -53.826  1.00  0.00     0.060 C 
HETATM   13  C   UNL     1     -41.746  55.985 -54.188  1.00  0.00     0.088 C 
HETATM   14  C   UNL     1     -42.956  56.277 -55.063  1.00  0.00     0.045 C 
HETATM   15  C   UNL     1     -43.975  57.146 -54.341  1.00  0.00     0.129 C 
HETATM   16  C   UNL     1     -43.143  62.257 -51.964  1.00  0.00     0.031 A 
HETATM   17  C   UNL     1     -43.805  62.549 -50.766  1.00  0.00     0.014 A 
HETATM   18  H   UNL     1     -42.231  61.648 -54.254  1.00  0.00     0.169 HD
ENDROOT
BRANCH  13  19
HETATM   19  N   UNL     1     -42.115  55.220 -52.995  1.00  0.00    -0.356 N 
HETATM   20  C   UNL     1     -41.329  54.196 -52.527  1.00  0.00     0.222 C 
HETATM   21  O   UNL     1     -40.362  53.746 -53.131  1.00  0.00    -0.273 OA
HETATM   22  H   UNL     1     -42.731  55.690 -52.336  1.00  0.00     0.162 HD
BRANCH  20  23
HETATM   23  C   UNL     1     -41.824  53.560 -51.235  1.00  0.00     0.081 C 
HETATM   24  C   UNL     1     -42.530  54.593 -50.341  1.00  0.00     0.041 C 
HETATM   25  C   UNL     1     -41.579  55.594 -49.694  1.00  0.00     0.233 C 
HETATM   26  N   UNL     1     -40.466  54.865 -49.018  1.00  0.00    -0.075 N 
HETATM   27  H   UNL     1     -40.830  54.341 -48.212  1.00  0.00     0.277 HD
HETATM   28  H   UNL     1     -39.817  55.562 -48.627  1.00  0.00     0.277 HD
HETATM   29  C   UNL     1     -39.698  53.955 -49.918  1.00  0.00     0.233 C 
HETATM   30  C   UNL     1     -40.644  52.913 -50.502  1.00  0.00     0.041 C 
ENDBRANCH  20  23
ENDBRANCH  13  19
BRANCH   1  31
HETATM   31  C   UNL     1     -45.325  61.898 -48.881  1.00  0.00     0.008 A 
HETATM   32  C   UNL     1     -46.607  62.487 -48.909  1.00  0.00     0.082 A 
HETATM   33  C   UNL     1     -47.274  62.760 -47.707  1.00  0.00     0.074 A 
HETATM   34  C   UNL     1     -46.700  62.442 -46.471  1.00  0.00     0.070 A 
HETATM   35  C   UNL     1     -45.441  61.855 -46.435  1.00  0.00     0.038 A 
HETATM   36  C   UNL     1     -44.763  61.587 -47.627  1.00  0.00     0.018 A 
BRANCH  32  37
HETATM   37  O   UNL     1     -47.115  62.793 -50.150  1.00  0.00    -0.355 OA
HETATM   38  C   UNL     1     -47.466  64.152 -50.388  1.00  0.00     0.210 C 
ENDBRANCH  32  37
BRANCH  34  39
HETATM   39  O   UNL     1     -47.468  62.762 -45.384  1.00  0.00    -0.356 OA
HETATM   40  C   UNL     1     -47.384  64.100 -44.907  1.00  0.00     0.210 C 
ENDBRANCH  34  39
ENDBRANCH   1  31
TORSDOF 5
ENDMDL
MODEL 7
REMARK VINA RESULT:      -7.8      3.312      8.873
REMARK  5 active torsions:
REMARK  status: ('A' for Active; 'I' for Inactive)
REMARK    1  A    between atoms: O_2  and  C_3 
REMARK    2  A    between atoms: C_5  and  O_6 
REMARK    3  A    between atoms: C_8  and  C_9 
REMARK    4  A    between atoms: C_21  and  N_22 
REMARK       I    between atoms: N_22  and  C_23 
REMARK    5  A    between atoms: C_23  and  C_24 
ROOT
HETATM    1  C   UNL     1     -41.202  56.283 -51.439  1.00  0.00    -0.022 A 
HETATM    2  C   UNL     1     -42.463  56.735 -51.858  1.00  0.00     0.031 A 
HETATM    3  C   UNL     1     -42.897  58.056 -51.629  1.00  0.00     0.059 A 
HETATM    4  C   UNL     1     -42.045  58.959 -50.968  1.00  0.00     0.050 A 
HETATM    5  N   UNL     1     -42.347  60.299 -50.657  1.00  0.00    -0.324 N 
HETATM    6  C   UNL     1     -43.190  61.155 -51.317  1.00  0.00     0.245 C 
HETATM    7  O   UNL     1     -43.356  62.296 -50.888  1.00  0.00    -0.271 OA
HETATM    8  C   UNL     1     -43.811  60.645 -52.619  1.00  0.00     0.181 C 
HETATM    9  N   UNL     1     -44.759  59.592 -52.268  1.00  0.00    -0.334 N 
HETATM   10  C   UNL     1     -44.335  58.317 -51.913  1.00  0.00     0.256 C 
HETATM   11  O   UNL     1     -45.136  57.389 -51.798  1.00  0.00    -0.267 OA
HETATM   12  C   UNL     1     -44.400  61.759 -53.503  1.00  0.00     0.060 C 
HETATM   13  C   UNL     1     -45.895  61.605 -53.785  1.00  0.00     0.088 C 
HETATM   14  C   UNL     1     -46.621  61.259 -52.493  1.00  0.00     0.045 C 
HETATM   15  C   UNL     1     -46.132  59.943 -51.909  1.00  0.00     0.129 C 
HETATM   16  C   UNL     1     -40.793  58.506 -50.530  1.00  0.00     0.031 A 
HETATM   17  C   UNL     1     -40.375  57.193 -50.771  1.00  0.00     0.014 A 
HETATM   18  H   UNL     1     -41.802  60.759 -49.934  1.00  0.00     0.169 HD
ENDROOT
BRANCH  13  19
HETATM   19  N   UNL     1     -46.151  60.611 -54.830  1.00  0.00    -0.356 N 
HETATM   20  C   UNL     1     -45.864  60.865 -56.149  1.00  0.00     0.222 C 
HETATM   21  O   UNL     1     -45.522  61.963 -56.575  1.00  0.00    -0.273 OA
HETATM   22  H   UNL     1     -46.184  59.641 -54.526  1.00  0.00     0.162 HD
BRANCH  20  23
HETATM   23  C   UNL     1     -46.123  59.694 -57.088  1.00  0.00     0.081 C 
HETATM   24  C   UNL     1     -45.854  58.351 -56.390  1.00  0.00     0.041 C 
HETATM   25  C   UNL     1     -44.374  58.068 -56.155  1.00  0.00     0.233 C 
HETATM   26  N   UNL     1     -43.620  58.252 -57.430  1.00  0.00    -0.075 N 
HETATM   27  H   UNL     1     -43.889  57.524 -58.104  1.00  0.00     0.277 HD
HETATM   28  H   UNL     1     -42.621  58.098 -57.236  1.00  0.00     0.277 HD
HETATM   29  C   UNL     1     -43.780  59.604 -58.044  1.00  0.00     0.233 C 
HETATM   30  C   UNL     1     -45.254  59.847 -58.341  1.00  0.00     0.041 C 
ENDBRANCH  20  23
ENDBRANCH  13  19
BRANCH   1  31
HETATM   31  C   UNL     1     -40.798  54.875 -51.629  1.00  0.00     0.008 A 
HETATM   32  C   UNL     1     -40.291  54.074 -50.583  1.00  0.00     0.082 A 
HETATM   33  C   UNL     1     -39.932  52.743 -50.838  1.00  0.00     0.074 A 
HETATM   34  C   UNL     1     -40.083  52.182 -52.111  1.00  0.00     0.070 A 
HETATM   35  C   UNL     1     -40.589  52.961 -53.144  1.00  0.00     0.038 A 
HETATM   36  C   UNL     1     -40.941  54.293 -52.904  1.00  0.00     0.018 A 
BRANCH  32  37
HETATM   37  O   UNL     1     -40.148  54.682 -49.358  1.00  0.00    -0.355 OA
HETATM   38  C   UNL     1     -40.597  53.955 -48.219  1.00  0.00     0.210 C 
ENDBRANCH  32  37
BRANCH  34  39
HETATM   39  O   UNL     1     -39.696  50.873 -52.208  1.00  0.00    -0.356 OA
HETATM   40  C   UNL     1     -39.555  50.150 -50.991  1.00  0.00     0.210 C 
ENDBRANCH  34  39
ENDBRANCH   1  31
TORSDOF 5
ENDMDL
MODEL 8
REMARK VINA RESULT:      -7.7      4.118      9.298
REMARK  5 active torsions:
REMARK  status: ('A' for Active; 'I' for Inactive)
REMARK    1  A    between atoms: O_2  and  C_3 
REMARK    2  A    between atoms: C_5  and  O_6 
REMARK    3  A    between atoms: C_8  and  C_9 
REMARK    4  A    between atoms: C_21  and  N_22 
REMARK       I    between atoms: N_22  and  C_23 
REMARK    5  A    between atoms: C_23  and  C_24 
ROOT
HETATM    1  C   UNL     1     -42.154  55.068 -53.267  1.00  0.00    -0.022 A 
HETATM    2  C   UNL     1     -42.209  56.301 -52.600  1.00  0.00     0.031 A 
HETATM    3  C   UNL     1     -42.922  57.400 -53.120  1.00  0.00     0.059 A 
HETATM    4  C   UNL     1     -43.608  57.265 -54.339  1.00  0.00     0.050 A 
HETATM    5  N   UNL     1     -44.345  58.275 -54.987  1.00  0.00    -0.324 N 
HETATM    6  C   UNL     1     -44.998  59.342 -54.426  1.00  0.00     0.245 C 
HETATM    7  O   UNL     1     -45.578  60.150 -55.150  1.00  0.00    -0.271 OA
HETATM    8  C   UNL     1     -45.032  59.405 -52.897  1.00  0.00     0.181 C 
HETATM    9  N   UNL     1     -43.673  59.683 -52.440  1.00  0.00    -0.334 N 
HETATM   10  C   UNL     1     -42.692  58.699 -52.428  1.00  0.00     0.256 C 
HETATM   11  O   UNL     1     -41.609  58.888 -51.875  1.00  0.00    -0.267 OA
HETATM   12  C   UNL     1     -46.097  60.365 -52.339  1.00  0.00     0.060 C 
HETATM   13  C   UNL     1     -45.529  61.490 -51.473  1.00  0.00     0.088 C 
HETATM   14  C   UNL     1     -44.312  62.093 -52.160  1.00  0.00     0.045 C 
HETATM   15  C   UNL     1     -43.208  61.065 -52.351  1.00  0.00     0.129 C 
HETATM   16  C   UNL     1     -43.539  56.041 -55.019  1.00  0.00     0.031 A 
HETATM   17  C   UNL     1     -42.832  54.957 -54.486  1.00  0.00     0.014 A 
HETATM   18  H   UNL     1     -44.541  58.168 -55.977  1.00  0.00     0.169 HD
ENDROOT
BRANCH  13  19
HETATM   19  N   UNL     1     -45.208  61.026 -50.120  1.00  0.00    -0.356 N 
HETATM   20  C   UNL     1     -46.002  61.345 -49.046  1.00  0.00     0.222 C 
HETATM   21  O   UNL     1     -46.929  62.144 -49.094  1.00  0.00    -0.273 OA
HETATM   22  H   UNL     1     -44.635  60.189 -50.060  1.00  0.00     0.162 HD
BRANCH  20  23
HETATM   23  C   UNL     1     -45.562  60.716 -47.730  1.00  0.00     0.081 C 
HETATM   24  C   UNL     1     -46.737  60.611 -46.744  1.00  0.00     0.041 C 
HETATM   25  C   UNL     1     -47.172  61.952 -46.165  1.00  0.00     0.233 C 
HETATM   26  N   UNL     1     -45.985  62.673 -45.620  1.00  0.00    -0.075 N 
HETATM   27  H   UNL     1     -45.621  62.176 -44.797  1.00  0.00     0.277 HD
HETATM   28  H   UNL     1     -46.298  63.591 -45.274  1.00  0.00     0.277 HD
HETATM   29  C   UNL     1     -44.893  62.889 -46.614  1.00  0.00     0.233 C 
HETATM   30  C   UNL     1     -44.414  61.539 -47.133  1.00  0.00     0.041 C 
ENDBRANCH  20  23
ENDBRANCH  13  19
BRANCH   1  31
HETATM   31  C   UNL     1     -41.344  53.953 -52.736  1.00  0.00     0.008 A 
HETATM   32  C   UNL     1     -41.268  53.644 -51.361  1.00  0.00     0.082 A 
HETATM   33  C   UNL     1     -40.481  52.566 -50.932  1.00  0.00     0.074 A 
HETATM   34  C   UNL     1     -39.778  51.772 -51.845  1.00  0.00     0.070 A 
HETATM   35  C   UNL     1     -39.854  52.064 -53.202  1.00  0.00     0.038 A 
HETATM   36  C   UNL     1     -40.628  53.143 -53.640  1.00  0.00     0.018 A 
BRANCH  32  37
HETATM   37  O   UNL     1     -41.965  54.467 -50.508  1.00  0.00    -0.355 OA
HETATM   38  C   UNL     1     -41.352  54.774 -49.260  1.00  0.00     0.210 C 
ENDBRANCH  32  37
BRANCH  34  39
HETATM   39  O   UNL     1     -39.058  50.754 -51.283  1.00  0.00    -0.356 OA
HETATM   40  C   UNL     1     -39.796  49.720 -50.642  1.00  0.00     0.210 C 
ENDBRANCH  34  39
ENDBRANCH   1  31
TORSDOF 5
ENDMDL
MODEL 9
REMARK VINA RESULT:      -7.6      3.675      9.318
REMARK  5 active torsions:
REMARK  status: ('A' for Active; 'I' for Inactive)
REMARK    1  A    between atoms: O_2  and  C_3 
REMARK    2  A    between atoms: C_5  and  O_6 
REMARK    3  A    between atoms: C_8  and  C_9 
REMARK    4  A    between atoms: C_21  and  N_22 
REMARK       I    between atoms: N_22  and  C_23 
REMARK    5  A    between atoms: C_23  and  C_24 
ROOT
HETATM    1  C   UNL     1     -42.321  55.667 -55.732  1.00  0.00    -0.022 A 
HETATM    2  C   UNL     1     -42.300  57.058 -55.550  1.00  0.00     0.031 A 
HETATM    3  C   UNL     1     -42.791  57.946 -56.528  1.00  0.00     0.059 A 
HETATM    4  C   UNL     1     -43.326  57.432 -57.723  1.00  0.00     0.050 A 
HETATM    5  N   UNL     1     -43.836  58.194 -58.792  1.00  0.00    -0.324 N 
HETATM    6  C   UNL     1     -44.411  59.437 -58.751  1.00  0.00     0.245 C 
HETATM    7  O   UNL     1     -44.783  59.971 -59.795  1.00  0.00    -0.271 OA
HETATM    8  C   UNL     1     -44.633  60.049 -57.366  1.00  0.00     0.181 C 
HETATM    9  N   UNL     1     -43.319  60.370 -56.813  1.00  0.00    -0.334 N 
HETATM   10  C   UNL     1     -42.484  59.385 -56.299  1.00  0.00     0.256 C 
HETATM   11  O   UNL     1     -41.466  59.678 -55.673  1.00  0.00    -0.267 OA
HETATM   12  C   UNL     1     -45.627  61.224 -57.358  1.00  0.00     0.060 C 
HETATM   13  C   UNL     1     -45.033  62.540 -56.852  1.00  0.00     0.088 C 
HETATM   14  C   UNL     1     -43.670  62.760 -57.493  1.00  0.00     0.045 C 
HETATM   15  C   UNL     1     -42.693  61.652 -57.130  1.00  0.00     0.129 C 
HETATM   16  C   UNL     1     -43.330  56.044 -57.917  1.00  0.00     0.031 A 
HETATM   17  C   UNL     1     -42.845  55.175 -56.933  1.00  0.00     0.014 A 
HETATM   18  H   UNL     1     -43.915  57.752 -59.702  1.00  0.00     0.169 HD
ENDROOT
BRANCH  13  19
HETATM   19  N   UNL     1     -44.952  62.572 -55.389  1.00  0.00    -0.356 N 
HETATM   20  C   UNL     1     -45.868  63.263 -54.635  1.00  0.00     0.222 C 
HETATM   21  O   UNL     1     -46.715  64.013 -55.107  1.00  0.00    -0.273 OA
HETATM   22  H   UNL     1     -44.459  61.798 -54.952  1.00  0.00     0.162 HD
BRANCH  20  23
HETATM   23  C   UNL     1     -45.678  63.126 -53.131  1.00  0.00     0.081 C 
HETATM   24  C   UNL     1     -45.004  61.791 -52.774  1.00  0.00     0.041 C 
HETATM   25  C   UNL     1     -45.913  60.580 -52.950  1.00  0.00     0.233 C 
HETATM   26  N   UNL     1     -47.206  60.816 -52.243  1.00  0.00    -0.075 N 
HETATM   27  H   UNL     1     -47.049  60.839 -51.227  1.00  0.00     0.277 HD
HETATM   28  H   UNL     1     -47.816  60.005 -52.412  1.00  0.00     0.277 HD
HETATM   29  C   UNL     1     -47.925  62.049 -52.680  1.00  0.00     0.233 C 
HETATM   30  C   UNL     1     -47.036  63.261 -52.433  1.00  0.00     0.041 C 
ENDBRANCH  20  23
ENDBRANCH  13  19
BRANCH   1  31
HETATM   31  C   UNL     1     -41.738  54.760 -54.722  1.00  0.00     0.008 A 
HETATM   32  C   UNL     1     -42.303  54.569 -53.443  1.00  0.00     0.082 A 
HETATM   33  C   UNL     1     -41.695  53.687 -52.538  1.00  0.00     0.074 A 
HETATM   34  C   UNL     1     -40.543  52.972 -52.884  1.00  0.00     0.070 A 
HETATM   35  C   UNL     1     -39.985  53.148 -54.145  1.00  0.00     0.038 A 
HETATM   36  C   UNL     1     -40.576  54.032 -55.051  1.00  0.00     0.018 A 
BRANCH  32  37
HETATM   37  O   UNL     1     -43.424  55.309 -53.151  1.00  0.00    -0.355 OA
HETATM   38  C   UNL     1     -43.360  56.158 -52.009  1.00  0.00     0.210 C 
ENDBRANCH  32  37
BRANCH  34  39
HETATM   39  O   UNL     1     -40.065  52.147 -51.903  1.00  0.00    -0.356 OA
HETATM   40  C   UNL     1     -40.443  52.451 -50.565  1.00  0.00     0.210 C 
ENDBRANCH  34  39
ENDBRANCH   1  31
TORSDOF 5
ENDMDL
MODEL 10
REMARK VINA RESULT:      -7.6      2.921      5.289
REMARK  5 active torsions:
REMARK  status: ('A' for Active; 'I' for Inactive)
REMARK    1  A    between atoms: O_2  and  C_3 
REMARK    2  A    between atoms: C_5  and  O_6 
REMARK    3  A    between atoms: C_8  and  C_9 
REMARK    4  A    between atoms: C_21  and  N_22 
REMARK       I    between atoms: N_22  and  C_23 
REMARK    5  A    between atoms: C_23  and  C_24 
ROOT
HETATM    1  C   UNL     1     -43.109  58.198 -59.561  1.00  0.00    -0.022 A 
HETATM    2  C   UNL     1     -43.181  58.297 -58.163  1.00  0.00     0.031 A 
HETATM    3  C   UNL     1     -43.304  57.161 -57.339  1.00  0.00     0.059 A 
HETATM    4  C   UNL     1     -43.349  55.884 -57.924  1.00  0.00     0.050 A 
HETATM    5  N   UNL     1     -43.485  54.664 -57.233  1.00  0.00    -0.324 N 
HETATM    6  C   UNL     1     -43.087  54.363 -55.956  1.00  0.00     0.245 C 
HETATM    7  O   UNL     1     -43.310  53.244 -55.497  1.00  0.00    -0.271 OA
HETATM    8  C   UNL     1     -42.300  55.440 -55.206  1.00  0.00     0.181 C 
HETATM    9  N   UNL     1     -43.220  56.538 -54.922  1.00  0.00    -0.334 N 
HETATM   10  C   UNL     1     -43.608  57.438 -55.908  1.00  0.00     0.256 C 
HETATM   11  O   UNL     1     -44.233  58.460 -55.625  1.00  0.00    -0.267 OA
HETATM   12  C   UNL     1     -41.544  54.912 -53.974  1.00  0.00     0.060 C 
HETATM   13  C   UNL     1     -41.957  55.575 -52.659  1.00  0.00     0.088 C 
HETATM   14  C   UNL     1     -43.475  55.656 -52.587  1.00  0.00     0.045 C 
HETATM   15  C   UNL     1     -44.047  56.496 -53.718  1.00  0.00     0.129 C 
HETATM   16  C   UNL     1     -43.298  55.780 -59.321  1.00  0.00     0.031 A 
HETATM   17  C   UNL     1     -43.169  56.918 -60.125  1.00  0.00     0.014 A 
HETATM   18  H   UNL     1     -43.802  53.851 -57.750  1.00  0.00     0.169 HD
ENDROOT
BRANCH  13  19
HETATM   19  N   UNL     1     -41.339  56.893 -52.498  1.00  0.00    -0.356 N 
HETATM   20  C   UNL     1     -41.023  57.391 -51.258  1.00  0.00     0.222 C 
HETATM   21  O   UNL     1     -41.357  56.863 -50.203  1.00  0.00    -0.273 OA
HETATM   22  H   UNL     1     -40.824  57.246 -53.300  1.00  0.00     0.162 HD
BRANCH  20  23
HETATM   23  C   UNL     1     -40.318  58.741 -51.281  1.00  0.00     0.081 C 
HETATM   24  C   UNL     1     -40.910  59.696 -50.231  1.00  0.00     0.041 C 
HETATM   25  C   UNL     1     -42.299  60.213 -50.588  1.00  0.00     0.233 C 
HETATM   26  N   UNL     1     -42.289  60.765 -51.974  1.00  0.00    -0.075 N 
HETATM   27  H   UNL     1     -41.712  61.616 -52.007  1.00  0.00     0.277 HD
HETATM   28  H   UNL     1     -43.245  61.068 -52.205  1.00  0.00     0.277 HD
HETATM   29  C   UNL     1     -41.834  59.796 -53.013  1.00  0.00     0.233 C 
HETATM   30  C   UNL     1     -40.417  59.341 -52.688  1.00  0.00     0.041 C 
ENDBRANCH  20  23
ENDBRANCH  13  19
BRANCH   1  31
HETATM   31  C   UNL     1     -43.050  59.407 -60.407  1.00  0.00     0.008 A 
HETATM   32  C   UNL     1     -44.196  60.002 -60.977  1.00  0.00     0.082 A 
HETATM   33  C   UNL     1     -44.063  61.153 -61.766  1.00  0.00     0.074 A 
HETATM   34  C   UNL     1     -42.812  61.740 -61.989  1.00  0.00     0.070 A 
HETATM   35  C   UNL     1     -41.679  61.164 -61.425  1.00  0.00     0.038 A 
HETATM   36  C   UNL     1     -41.799  60.011 -60.645  1.00  0.00     0.018 A 
BRANCH  32  37
HETATM   37  O   UNL     1     -45.396  59.375 -60.739  1.00  0.00    -0.355 OA
HETATM   38  C   UNL     1     -46.313  60.038 -59.875  1.00  0.00     0.210 C 
ENDBRANCH  32  37
BRANCH  34  39
HETATM   39  O   UNL     1     -42.837  62.860 -62.774  1.00  0.00    -0.356 OA
HETATM   40  C   UNL     1     -41.592  63.303 -63.303  1.00  0.00     0.210 C 
ENDBRANCH  34  39
ENDBRANCH   1  31
TORSDOF 5
ENDMDL
