MODEL 1
REMARK VINA RESULT:      -9.0      0.000      0.000
REMARK  4 active torsions:
REMARK  status: ('A' for Active; 'I' for Inactive)
REMARK       I    between atoms: N_6  and  C_7 
REMARK    1  A    between atoms: C_7  and  C_8 
REMARK    2  A    between atoms: C_9  and  N_10 
REMARK       I    between atoms: N_10  and  C_11 
REMARK    3  A    between atoms: C_11  and  C_12 
REMARK    4  A    between atoms: N_20  and  C_21 
ROOT
HETATM    1  C   UNL     1     -41.184  56.066 -51.931  1.00  0.00     0.097 C 
HETATM    2  C   UNL     1     -40.949  55.092 -52.894  1.00  0.00     0.149 C 
HETATM    3  N   UNL     1     -40.519  53.945 -52.215  1.00  0.00    -0.217 N 
HETATM    4  N   UNL     1     -40.415  54.199 -50.879  1.00  0.00    -0.177 NA
HETATM    5  C   UNL     1     -40.951  55.404 -50.716  1.00  0.00     0.160 C 
ENDROOT
BRANCH   2   6
HETATM    6  N   UNL     1     -41.119  55.353 -54.258  1.00  0.00    -0.306 N 
HETATM    7  C   UNL     1     -42.379  55.183 -54.915  1.00  0.00     0.257 C 
HETATM    8  O   UNL     1     -43.224  54.482 -54.388  1.00  0.00    -0.267 OA
HETATM    9  H   UNL     1     -40.268  55.471 -54.806  1.00  0.00     0.170 HD
BRANCH   7  10
HETATM   10  C   UNL     1     -42.574  55.850 -56.231  1.00  0.00     0.032 A 
HETATM   11  C   UNL     1     -42.990  55.157 -57.377  1.00  0.00     0.018 A 
HETATM   12  C   UNL     1     -43.103  55.829 -58.600  1.00  0.00     0.020 A 
HETATM   13  C   UNL     1     -42.791  57.185 -58.683  1.00  0.00     0.011 A 
HETATM   14 BR   UNL     1     -42.926  58.079 -60.340  1.00  0.00    -0.051 Br
HETATM   15  C   UNL     1     -42.370  57.881 -57.551  1.00  0.00     0.020 A 
HETATM   16  C   UNL     1     -42.264  57.215 -56.327  1.00  0.00     0.018 A 
ENDBRANCH   7  10
ENDBRANCH   2   6
BRANCH   1  17
HETATM   17  C   UNL     1     -41.589  57.428 -52.221  1.00  0.00     0.259 C 
HETATM   18  N   UNL     1     -42.912  57.704 -52.587  1.00  0.00    -0.345 N 
HETATM   19  C   UNL     1     -43.226  59.080 -53.000  1.00  0.00     0.154 C 
HETATM   20  C   UNL     1     -44.086  56.955 -52.104  1.00  0.00     0.154 C 
HETATM   21  C   UNL     1     -43.873  59.874 -51.849  1.00  0.00     0.254 C 
HETATM   22  N   UNL     1     -45.113  59.129 -51.350  1.00  0.00    -0.072 N 
HETATM   23  C   UNL     1     -45.808  59.871 -50.241  1.00  0.00     0.269 C 
HETATM   24  H   UNL     1     -45.780  59.088 -52.133  1.00  0.00     0.279 HD
HETATM   25  C   UNL     1     -44.790  57.696 -50.947  1.00  0.00     0.254 C 
HETATM   26  O   UNL     1     -40.767  58.339 -52.093  1.00  0.00    -0.267 OA
ENDBRANCH   1  17
BRANCH   3  27
HETATM   27  C   UNL     1     -40.293  52.619 -52.677  1.00  0.00     0.060 A 
HETATM   28  C   UNL     1     -40.563  52.240 -53.998  1.00  0.00     0.031 A 
HETATM   29  C   UNL     1     -40.280  50.938 -54.420  1.00  0.00     0.002 A 
HETATM   30  C   UNL     1     -39.753  50.007 -53.526  1.00  0.00     0.000 A 
HETATM   31  C   UNL     1     -39.531  50.364 -52.198  1.00  0.00     0.002 A 
HETATM   32  C   UNL     1     -39.810  51.662 -51.770  1.00  0.00     0.031 A 
ENDBRANCH   3  27
TORSDOF 4
ENDMDL
MODEL 2
REMARK VINA RESULT:      -8.9      1.679      2.353
REMARK  4 active torsions:
REMARK  status: ('A' for Active; 'I' for Inactive)
REMARK       I    between atoms: N_6  and  C_7 
REMARK    1  A    between atoms: C_7  and  C_8 
REMARK    2  A    between atoms: C_9  and  N_10 
REMARK       I    between atoms: N_10  and  C_11 
REMARK    3  A    between atoms: C_11  and  C_12 
REMARK    4  A    between atoms: N_20  and  C_21 
ROOT
HETATM    1  C   UNL     1     -42.629  56.368 -51.128  1.00  0.00     0.097 C 
HETATM    2  C   UNL     1     -42.244  55.612 -52.229  1.00  0.00     0.149 C 
HETATM    3  N   UNL     1     -41.316  54.669 -51.768  1.00  0.00    -0.217 N 
HETATM    4  N   UNL     1     -41.065  54.863 -50.442  1.00  0.00    -0.177 NA
HETATM    5  C   UNL     1     -41.955  55.770 -50.052  1.00  0.00     0.160 C 
ENDROOT
BRANCH   2   6
HETATM    6  N   UNL     1     -42.745  55.871 -53.509  1.00  0.00    -0.306 N 
HETATM    7  C   UNL     1     -41.943  56.469 -54.533  1.00  0.00     0.257 C 
HETATM    8  O   UNL     1     -40.938  57.077 -54.209  1.00  0.00    -0.267 OA
HETATM    9  H   UNL     1     -43.755  55.807 -53.622  1.00  0.00     0.170 HD
BRANCH   7  10
HETATM   10  C   UNL     1     -42.404  56.341 -55.941  1.00  0.00     0.032 A 
HETATM   11  C   UNL     1     -42.458  57.432 -56.822  1.00  0.00     0.018 A 
HETATM   12  C   UNL     1     -42.954  57.259 -58.121  1.00  0.00     0.020 A 
HETATM   13  C   UNL     1     -43.404  56.007 -58.536  1.00  0.00     0.011 A 
HETATM   14 BR   UNL     1     -44.090  55.789 -60.282  1.00  0.00    -0.051 Br
HETATM   15  C   UNL     1     -43.361  54.920 -57.666  1.00  0.00     0.020 A 
HETATM   16  C   UNL     1     -42.860  55.086 -56.372  1.00  0.00     0.018 A 
ENDBRANCH   7  10
ENDBRANCH   2   6
BRANCH   1  17
HETATM   17  C   UNL     1     -43.539  57.496 -51.183  1.00  0.00     0.259 C 
HETATM   18  N   UNL     1     -43.045  58.802 -51.070  1.00  0.00    -0.345 N 
HETATM   19  C   UNL     1     -44.029  59.892 -50.995  1.00  0.00     0.154 C 
HETATM   20  C   UNL     1     -41.721  59.239 -51.548  1.00  0.00     0.154 C 
HETATM   21  C   UNL     1     -44.205  60.579 -52.363  1.00  0.00     0.254 C 
HETATM   22  N   UNL     1     -42.845  61.068 -52.867  1.00  0.00    -0.072 N 
HETATM   23  C   UNL     1     -42.956  61.776 -54.190  1.00  0.00     0.269 C 
HETATM   24  H   UNL     1     -42.504  61.767 -52.192  1.00  0.00     0.279 HD
HETATM   25  C   UNL     1     -41.821  59.942 -52.918  1.00  0.00     0.254 C 
HETATM   26  O   UNL     1     -44.740  57.292 -51.380  1.00  0.00    -0.267 OA
ENDBRANCH   1  17
BRANCH   3  27
HETATM   27  C   UNL     1     -40.722  53.553 -52.419  1.00  0.00     0.060 A 
HETATM   28  C   UNL     1     -40.852  53.345 -53.797  1.00  0.00     0.031 A 
HETATM   29  C   UNL     1     -40.210  52.260 -54.402  1.00  0.00     0.002 A 
HETATM   30  C   UNL     1     -39.461  51.370 -53.635  1.00  0.00     0.000 A 
HETATM   31  C   UNL     1     -39.371  51.542 -52.256  1.00  0.00     0.002 A 
HETATM   32  C   UNL     1     -40.008  52.623 -51.645  1.00  0.00     0.031 A 
ENDBRANCH   3  27
TORSDOF 4
ENDMDL
MODEL 3
REMARK VINA RESULT:      -8.6      1.609      2.542
REMARK  4 active torsions:
REMARK  status: ('A' for Active; 'I' for Inactive)
REMARK       I    between atoms: N_6  and  C_7 
REMARK    1  A    between atoms: C_7  and  C_8 
REMARK    2  A    between atoms: C_9  and  N_10 
REMARK       I    between atoms: N_10  and  C_11 
REMARK    3  A    between atoms: C_11  and  C_12 
REMARK    4  A    between atoms: N_20  and  C_21 
ROOT
HETATM    1  C   UNL     1     -42.514  56.420 -51.586  1.00  0.00     0.097 C 
HETATM    2  C   UNL     1     -41.925  55.613 -52.552  1.00  0.00     0.149 C 
HETATM    3  N   UNL     1     -41.254  54.589 -51.872  1.00  0.00    -0.217 N 
HETATM    4  N   UNL     1     -41.351  54.776 -50.524  1.00  0.00    -0.177 NA
HETATM    5  C   UNL     1     -42.217  55.773 -50.377  1.00  0.00     0.160 C 
ENDROOT
BRANCH   2   6
HETATM    6  N   UNL     1     -42.034  55.903 -53.917  1.00  0.00    -0.306 N 
HETATM    7  C   UNL     1     -43.189  55.542 -54.682  1.00  0.00     0.257 C 
HETATM    8  O   UNL     1     -43.930  54.677 -54.251  1.00  0.00    -0.267 OA
HETATM    9  H   UNL     1     -41.179  56.197 -54.387  1.00  0.00     0.170 HD
BRANCH   7  10
HETATM   10  C   UNL     1     -43.399  56.225 -55.987  1.00  0.00     0.032 A 
HETATM   11  C   UNL     1     -44.050  57.463 -56.097  1.00  0.00     0.018 A 
HETATM   12  C   UNL     1     -44.266  58.031 -57.359  1.00  0.00     0.020 A 
HETATM   13  C   UNL     1     -43.846  57.362 -58.507  1.00  0.00     0.011 A 
HETATM   14 BR   UNL     1     -44.161  58.125 -60.205  1.00  0.00    -0.051 Br
HETATM   15  C   UNL     1     -43.206  56.128 -58.409  1.00  0.00     0.020 A 
HETATM   16  C   UNL     1     -42.981  55.562 -57.151  1.00  0.00     0.018 A 
ENDBRANCH   7  10
ENDBRANCH   2   6
BRANCH   1  17
HETATM   17  C   UNL     1     -43.257  57.633 -51.869  1.00  0.00     0.259 C 
HETATM   18  N   UNL     1     -42.577  58.837 -52.093  1.00  0.00    -0.345 N 
HETATM   19  C   UNL     1     -43.388  60.055 -52.238  1.00  0.00     0.154 C 
HETATM   20  C   UNL     1     -41.248  58.940 -52.720  1.00  0.00     0.154 C 
HETATM   21  C   UNL     1     -43.575  60.427 -53.721  1.00  0.00     0.254 C 
HETATM   22  N   UNL     1     -42.205  60.570 -54.388  1.00  0.00    -0.072 N 
HETATM   23  C   UNL     1     -42.320  60.963 -55.835  1.00  0.00     0.269 C 
HETATM   24  H   UNL     1     -41.715  61.343 -53.916  1.00  0.00     0.279 HD
HETATM   25  C   UNL     1     -41.357  59.317 -54.213  1.00  0.00     0.254 C 
HETATM   26  O   UNL     1     -44.487  57.578 -51.957  1.00  0.00    -0.267 OA
ENDBRANCH   1  17
BRANCH   3  27
HETATM   27  C   UNL     1     -40.622  53.410 -52.354  1.00  0.00     0.060 A 
HETATM   28  C   UNL     1     -39.864  52.582 -51.517  1.00  0.00     0.031 A 
HETATM   29  C   UNL     1     -39.301  51.407 -52.025  1.00  0.00     0.002 A 
HETATM   30  C   UNL     1     -39.471  51.068 -53.366  1.00  0.00     0.000 A 
HETATM   31  C   UNL     1     -40.181  51.914 -54.215  1.00  0.00     0.002 A 
HETATM   32  C   UNL     1     -40.746  53.088 -53.715  1.00  0.00     0.031 A 
ENDBRANCH   3  27
TORSDOF 4
ENDMDL
MODEL 4
REMARK VINA RESULT:      -8.2      2.071      3.014
REMARK  4 active torsions:
REMARK  status: ('A' for Active; 'I' for Inactive)
REMARK       I    between atoms: N_6  and  C_7 
REMARK    1  A    between atoms: C_7  and  C_8 
REMARK    2  A    between atoms: C_9  and  N_10 
REMARK       I    between atoms: N_10  and  C_11 
REMARK    3  A    between atoms: C_11  and  C_12 
REMARK    4  A    between atoms: N_20  and  C_21 
ROOT
HETATM    1  C   UNL     1     -43.039  58.373 -52.696  1.00  0.00     0.097 C 
HETATM    2  C   UNL     1     -42.776  57.324 -53.570  1.00  0.00     0.149 C 
HETATM    3  N   UNL     1     -41.766  56.551 -52.983  1.00  0.00    -0.217 N 
HETATM    4  N   UNL     1     -41.352  57.122 -51.816  1.00  0.00    -0.177 NA
HETATM    5  C   UNL     1     -42.213  58.109 -51.593  1.00  0.00     0.160 C 
ENDROOT
BRANCH   2   6
HETATM    6  N   UNL     1     -43.446  57.202 -54.792  1.00  0.00    -0.306 N 
HETATM    7  C   UNL     1     -42.878  57.667 -56.021  1.00  0.00     0.257 C 
HETATM    8  O   UNL     1     -41.974  58.482 -55.978  1.00  0.00    -0.267 OA
HETATM    9  H   UNL     1     -44.434  56.957 -54.744  1.00  0.00     0.170 HD
BRANCH   7  10
HETATM   10  C   UNL     1     -43.453  57.149 -57.292  1.00  0.00     0.032 A 
HETATM   11  C   UNL     1     -44.437  57.840 -58.015  1.00  0.00     0.018 A 
HETATM   12  C   UNL     1     -44.979  57.276 -59.177  1.00  0.00     0.020 A 
HETATM   13  C   UNL     1     -44.550  56.022 -59.610  1.00  0.00     0.011 A 
HETATM   14 BR   UNL     1     -45.301  55.260 -61.165  1.00  0.00    -0.051 Br
HETATM   15  C   UNL     1     -43.578  55.325 -58.895  1.00  0.00     0.020 A 
HETATM   16  C   UNL     1     -43.029  55.888 -57.739  1.00  0.00     0.018 A 
ENDBRANCH   7  10
ENDBRANCH   2   6
BRANCH   1  17
HETATM   17  C   UNL     1     -43.984  59.442 -52.955  1.00  0.00     0.259 C 
HETATM   18  N   UNL     1     -45.180  59.513 -52.229  1.00  0.00    -0.345 N 
HETATM   19  C   UNL     1     -46.155  60.537 -52.632  1.00  0.00     0.154 C 
HETATM   20  C   UNL     1     -45.336  59.072 -50.832  1.00  0.00     0.154 C 
HETATM   21  C   UNL     1     -46.074  61.774 -51.717  1.00  0.00     0.254 C 
HETATM   22  N   UNL     1     -46.263  61.344 -50.260  1.00  0.00    -0.072 N 
HETATM   23  C   UNL     1     -46.223  62.516 -49.318  1.00  0.00     0.269 C 
HETATM   24  H   UNL     1     -47.208  60.941 -50.182  1.00  0.00     0.279 HD
HETATM   25  C   UNL     1     -45.269  60.265 -49.854  1.00  0.00     0.254 C 
HETATM   26  O   UNL     1     -43.697  60.310 -53.783  1.00  0.00    -0.267 OA
ENDBRANCH   1  17
BRANCH   3  27
HETATM   27  C   UNL     1     -41.227  55.289 -53.355  1.00  0.00     0.060 A 
HETATM   28  C   UNL     1     -40.751  55.039 -54.648  1.00  0.00     0.031 A 
HETATM   29  C   UNL     1     -40.185  53.798 -54.954  1.00  0.00     0.002 A 
HETATM   30  C   UNL     1     -40.113  52.799 -53.985  1.00  0.00     0.000 A 
HETATM   31  C   UNL     1     -40.631  53.024 -52.712  1.00  0.00     0.002 A 
HETATM   32  C   UNL     1     -41.197  54.260 -52.399  1.00  0.00     0.031 A 
ENDBRANCH   3  27
TORSDOF 4
ENDMDL
MODEL 5
REMARK VINA RESULT:      -8.1      3.337      6.342
REMARK  4 active torsions:
REMARK  status: ('A' for Active; 'I' for Inactive)
REMARK       I    between atoms: N_6  and  C_7 
REMARK    1  A    between atoms: C_7  and  C_8 
REMARK    2  A    between atoms: C_9  and  N_10 
REMARK       I    between atoms: N_10  and  C_11 
REMARK    3  A    between atoms: C_11  and  C_12 
REMARK    4  A    between atoms: N_20  and  C_21 
ROOT
HETATM    1  C   UNL     1     -43.603  59.601 -56.650  1.00  0.00     0.097 C 
HETATM    2  C   UNL     1     -43.540  58.249 -56.968  1.00  0.00     0.149 C 
HETATM    3  N   UNL     1     -44.384  58.052 -58.069  1.00  0.00    -0.217 N 
HETATM    4  N   UNL     1     -45.015  59.217 -58.394  1.00  0.00    -0.177 NA
HETATM    5  C   UNL     1     -44.432  60.145 -57.643  1.00  0.00     0.160 C 
ENDROOT
BRANCH   2   6
HETATM    6  N   UNL     1     -42.762  57.356 -56.224  1.00  0.00    -0.306 N 
HETATM    7  C   UNL     1     -43.325  56.522 -55.205  1.00  0.00     0.257 C 
HETATM    8  O   UNL     1     -44.406  56.825 -54.733  1.00  0.00    -0.267 OA
HETATM    9  H   UNL     1     -41.752  57.468 -56.294  1.00  0.00     0.170 HD
BRANCH   7  10
HETATM   10  C   UNL     1     -42.536  55.344 -54.756  1.00  0.00     0.032 A 
HETATM   11  C   UNL     1     -42.851  54.619 -53.598  1.00  0.00     0.018 A 
HETATM   12  C   UNL     1     -42.038  53.551 -53.196  1.00  0.00     0.020 A 
HETATM   13  C   UNL     1     -40.909  53.215 -53.941  1.00  0.00     0.011 A 
HETATM   14 BR   UNL     1     -39.807  51.788 -53.381  1.00  0.00    -0.051 Br
HETATM   15  C   UNL     1     -40.583  53.934 -55.089  1.00  0.00     0.020 A 
HETATM   16  C   UNL     1     -41.397  54.995 -55.498  1.00  0.00     0.018 A 
ENDBRANCH   7  10
ENDBRANCH   2   6
BRANCH   1  17
HETATM   17  C   UNL     1     -42.919  60.214 -55.528  1.00  0.00     0.259 C 
HETATM   18  N   UNL     1     -43.633  61.003 -54.617  1.00  0.00    -0.345 N 
HETATM   19  C   UNL     1     -42.860  61.708 -53.583  1.00  0.00     0.154 C 
HETATM   20  C   UNL     1     -45.043  60.784 -54.248  1.00  0.00     0.154 C 
HETATM   21  C   UNL     1     -42.903  60.950 -52.242  1.00  0.00     0.254 C 
HETATM   22  N   UNL     1     -44.359  60.737 -51.823  1.00  0.00    -0.072 N 
HETATM   23  C   UNL     1     -44.467  60.026 -50.502  1.00  0.00     0.269 C 
HETATM   24  H   UNL     1     -44.776  61.668 -51.685  1.00  0.00     0.279 HD
HETATM   25  C   UNL     1     -45.163  60.031 -52.907  1.00  0.00     0.254 C 
HETATM   26  O   UNL     1     -41.717  59.992 -55.362  1.00  0.00    -0.267 OA
ENDBRANCH   1  17
BRANCH   3  27
HETATM   27  C   UNL     1     -44.579  56.915 -58.899  1.00  0.00     0.060 A 
HETATM   28  C   UNL     1     -43.701  55.824 -58.879  1.00  0.00     0.031 A 
HETATM   29  C   UNL     1     -43.961  54.706 -59.678  1.00  0.00     0.002 A 
HETATM   30  C   UNL     1     -45.076  54.682 -60.513  1.00  0.00     0.000 A 
HETATM   31  C   UNL     1     -45.924  55.785 -60.576  1.00  0.00     0.002 A 
HETATM   32  C   UNL     1     -45.672  56.904 -59.781  1.00  0.00     0.031 A 
ENDBRANCH   3  27
TORSDOF 4
ENDMDL
MODEL 6
REMARK VINA RESULT:      -8.1      2.986      5.976
REMARK  4 active torsions:
REMARK  status: ('A' for Active; 'I' for Inactive)
REMARK       I    between atoms: N_6  and  C_7 
REMARK    1  A    between atoms: C_7  and  C_8 
REMARK    2  A    between atoms: C_9  and  N_10 
REMARK       I    between atoms: N_10  and  C_11 
REMARK    3  A    between atoms: C_11  and  C_12 
REMARK    4  A    between atoms: N_20  and  C_21 
ROOT
HETATM    1  C   UNL     1     -42.462  60.039 -54.851  1.00  0.00     0.097 C 
HETATM    2  C   UNL     1     -42.283  58.784 -55.421  1.00  0.00     0.149 C 
HETATM    3  N   UNL     1     -42.734  58.872 -56.745  1.00  0.00    -0.217 N 
HETATM    4  N   UNL     1     -43.246  60.112 -56.988  1.00  0.00    -0.177 NA
HETATM    5  C   UNL     1     -42.942  60.827 -55.909  1.00  0.00     0.160 C 
ENDROOT
BRANCH   2   6
HETATM    6  N   UNL     1     -41.769  57.711 -54.686  1.00  0.00    -0.306 N 
HETATM    7  C   UNL     1     -42.593  56.629 -54.240  1.00  0.00     0.257 C 
HETATM    8  O   UNL     1     -43.798  56.794 -54.187  1.00  0.00    -0.267 OA
HETATM    9  H   UNL     1     -40.831  57.831 -54.307  1.00  0.00     0.170 HD
BRANCH   7  10
HETATM   10  C   UNL     1     -41.921  55.365 -53.833  1.00  0.00     0.032 A 
HETATM   11  C   UNL     1     -42.048  54.821 -52.546  1.00  0.00     0.018 A 
HETATM   12  C   UNL     1     -41.348  53.657 -52.205  1.00  0.00     0.020 A 
HETATM   13  C   UNL     1     -40.514  53.045 -53.139  1.00  0.00     0.011 A 
HETATM   14 BR   UNL     1     -39.557  51.488 -52.664  1.00  0.00    -0.051 Br
HETATM   15  C   UNL     1     -40.375  53.582 -54.417  1.00  0.00     0.020 A 
HETATM   16  C   UNL     1     -41.079  54.739 -54.764  1.00  0.00     0.018 A 
ENDBRANCH   7  10
ENDBRANCH   2   6
BRANCH   1  17
HETATM   17  C   UNL     1     -42.175  60.362 -53.467  1.00  0.00     0.259 C 
HETATM   18  N   UNL     1     -43.041  61.195 -52.747  1.00  0.00    -0.345 N 
HETATM   19  C   UNL     1     -42.624  61.596 -51.395  1.00  0.00     0.154 C 
HETATM   20  C   UNL     1     -44.498  61.266 -52.957  1.00  0.00     0.154 C 
HETATM   21  C   UNL     1     -43.315  60.734 -50.321  1.00  0.00     0.254 C 
HETATM   22  N   UNL     1     -44.833  60.816 -50.500  1.00  0.00    -0.072 N 
HETATM   23  C   UNL     1     -45.567  60.015 -49.458  1.00  0.00     0.269 C 
HETATM   24  H   UNL     1     -45.105  61.798 -50.355  1.00  0.00     0.279 HD
HETATM   25  C   UNL     1     -45.259  60.426 -51.909  1.00  0.00     0.254 C 
HETATM   26  O   UNL     1     -41.190  59.857 -52.923  1.00  0.00    -0.267 OA
ENDBRANCH   1  17
BRANCH   3  27
HETATM   27  C   UNL     1     -42.642  57.948 -57.822  1.00  0.00     0.060 A 
HETATM   28  C   UNL     1     -43.232  56.680 -57.761  1.00  0.00     0.031 A 
HETATM   29  C   UNL     1     -43.157  55.824 -58.864  1.00  0.00     0.002 A 
HETATM   30  C   UNL     1     -42.476  56.217 -60.014  1.00  0.00     0.000 A 
HETATM   31  C   UNL     1     -41.843  57.456 -60.061  1.00  0.00     0.002 A 
HETATM   32  C   UNL     1     -41.915  58.317 -58.965  1.00  0.00     0.031 A 
ENDBRANCH   3  27
TORSDOF 4
ENDMDL
MODEL 7
REMARK VINA RESULT:      -8.0      3.103      6.451
REMARK  4 active torsions:
REMARK  status: ('A' for Active; 'I' for Inactive)
REMARK       I    between atoms: N_6  and  C_7 
REMARK    1  A    between atoms: C_7  and  C_8 
REMARK    2  A    between atoms: C_9  and  N_10 
REMARK       I    between atoms: N_10  and  C_11 
REMARK    3  A    between atoms: C_11  and  C_12 
REMARK    4  A    between atoms: N_20  and  C_21 
ROOT
HETATM    1  C   UNL     1     -42.574  59.671 -54.271  1.00  0.00     0.097 C 
HETATM    2  C   UNL     1     -43.290  58.720 -54.989  1.00  0.00     0.149 C 
HETATM    3  N   UNL     1     -44.193  59.420 -55.799  1.00  0.00    -0.217 N 
HETATM    4  N   UNL     1     -44.107  60.759 -55.555  1.00  0.00    -0.177 NA
HETATM    5  C   UNL     1     -43.049  60.897 -54.763  1.00  0.00     0.160 C 
ENDROOT
BRANCH   2   6
HETATM    6  N   UNL     1     -43.071  57.350 -54.813  1.00  0.00    -0.306 N 
HETATM    7  C   UNL     1     -42.342  56.567 -55.765  1.00  0.00     0.257 C 
HETATM    8  O   UNL     1     -42.208  56.998 -56.896  1.00  0.00    -0.267 OA
HETATM    9  H   UNL     1     -43.622  56.892 -54.088  1.00  0.00     0.170 HD
BRANCH   7  10
HETATM   10  C   UNL     1     -41.815  55.248 -55.322  1.00  0.00     0.032 A 
HETATM   11  C   UNL     1     -42.651  54.168 -55.004  1.00  0.00     0.018 A 
HETATM   12  C   UNL     1     -42.099  52.967 -54.541  1.00  0.00     0.020 A 
HETATM   13  C   UNL     1     -40.719  52.848 -54.385  1.00  0.00     0.011 A 
HETATM   14 BR   UNL     1     -39.984  51.232 -53.741  1.00  0.00    -0.051 Br
HETATM   15  C   UNL     1     -39.880  53.917 -54.692  1.00  0.00     0.020 A 
HETATM   16  C   UNL     1     -40.427  55.115 -55.162  1.00  0.00     0.018 A 
ENDBRANCH   7  10
ENDBRANCH   2   6
BRANCH   1  17
HETATM   17  C   UNL     1     -41.573  59.362 -53.268  1.00  0.00     0.259 C 
HETATM   18  N   UNL     1     -41.954  59.160 -51.935  1.00  0.00    -0.345 N 
HETATM   19  C   UNL     1     -40.882  58.987 -50.944  1.00  0.00     0.154 C 
HETATM   20  C   UNL     1     -43.241  58.578 -51.514  1.00  0.00     0.154 C 
HETATM   21  C   UNL     1     -40.661  57.498 -50.616  1.00  0.00     0.254 C 
HETATM   22  N   UNL     1     -41.979  56.878 -50.147  1.00  0.00    -0.072 N 
HETATM   23  C   UNL     1     -41.820  55.427 -49.782  1.00  0.00     0.269 C 
HETATM   24  H   UNL     1     -42.254  57.366 -49.283  1.00  0.00     0.279 HD
HETATM   25  C   UNL     1     -43.094  57.082 -51.163  1.00  0.00     0.254 C 
HETATM   26  O   UNL     1     -40.396  59.233 -53.613  1.00  0.00    -0.267 OA
ENDBRANCH   1  17
BRANCH   3  27
HETATM   27  C   UNL     1     -45.050  58.969 -56.840  1.00  0.00     0.060 A 
HETATM   28  C   UNL     1     -46.271  58.338 -56.573  1.00  0.00     0.031 A 
HETATM   29  C   UNL     1     -47.103  57.955 -57.629  1.00  0.00     0.002 A 
HETATM   30  C   UNL     1     -46.713  58.177 -58.948  1.00  0.00     0.000 A 
HETATM   31  C   UNL     1     -45.477  58.759 -59.222  1.00  0.00     0.002 A 
HETATM   32  C   UNL     1     -44.641  59.144 -58.173  1.00  0.00     0.031 A 
ENDBRANCH   3  27
TORSDOF 4
ENDMDL
MODEL 8
REMARK VINA RESULT:      -7.8      3.203      5.885
REMARK  4 active torsions:
REMARK  status: ('A' for Active; 'I' for Inactive)
REMARK       I    between atoms: N_6  and  C_7 
REMARK    1  A    between atoms: C_7  and  C_8 
REMARK    2  A    between atoms: C_9  and  N_10 
REMARK       I    between atoms: N_10  and  C_11 
REMARK    3  A    between atoms: C_11  and  C_12 
REMARK    4  A    between atoms: N_20  and  C_21 
ROOT
HETATM    1  C   UNL     1     -43.345  55.760 -55.012  1.00  0.00     0.097 C 
HETATM    2  C   UNL     1     -42.896  55.527 -53.718  1.00  0.00     0.149 C 
HETATM    3  N   UNL     1     -42.229  54.295 -53.735  1.00  0.00    -0.217 N 
HETATM    4  N   UNL     1     -42.313  53.732 -54.975  1.00  0.00    -0.177 NA
HETATM    5  C   UNL     1     -42.843  54.674 -55.746  1.00  0.00     0.160 C 
ENDROOT
BRANCH   2   6
HETATM    6  N   UNL     1     -43.158  56.424 -52.677  1.00  0.00    -0.306 N 
HETATM    7  C   UNL     1     -42.288  57.522 -52.380  1.00  0.00     0.257 C 
HETATM    8  O   UNL     1     -41.143  57.489 -52.792  1.00  0.00    -0.267 OA
HETATM    9  H   UNL     1     -43.879  56.148 -52.012  1.00  0.00     0.170 HD
BRANCH   7  10
HETATM   10  C   UNL     1     -42.829  58.633 -51.552  1.00  0.00     0.032 A 
HETATM   11  C   UNL     1     -44.203  58.819 -51.338  1.00  0.00     0.018 A 
HETATM   12  C   UNL     1     -44.655  59.915 -50.593  1.00  0.00     0.020 A 
HETATM   13  C   UNL     1     -43.740  60.830 -50.072  1.00  0.00     0.011 A 
HETATM   14 BR   UNL     1     -44.360  62.316 -49.087  1.00  0.00    -0.051 Br
HETATM   15  C   UNL     1     -42.374  60.658 -50.285  1.00  0.00     0.020 A 
HETATM   16  C   UNL     1     -41.919  59.560 -51.022  1.00  0.00     0.018 A 
ENDBRANCH   7  10
ENDBRANCH   2   6
BRANCH   1  17
HETATM   17  C   UNL     1     -44.138  56.906 -55.413  1.00  0.00     0.259 C 
HETATM   18  N   UNL     1     -43.832  57.592 -56.596  1.00  0.00    -0.345 N 
HETATM   19  C   UNL     1     -44.583  58.824 -56.877  1.00  0.00     0.154 C 
HETATM   20  C   UNL     1     -43.264  56.963 -57.802  1.00  0.00     0.154 C 
HETATM   21  C   UNL     1     -45.726  58.564 -57.876  1.00  0.00     0.254 C 
HETATM   22  N   UNL     1     -45.156  57.938 -59.151  1.00  0.00    -0.072 N 
HETATM   23  C   UNL     1     -46.224  57.687 -60.181  1.00  0.00     0.269 C 
HETATM   24  H   UNL     1     -44.510  58.625 -59.565  1.00  0.00     0.279 HD
HETATM   25  C   UNL     1     -44.356  56.677 -58.854  1.00  0.00     0.254 C 
HETATM   26  O   UNL     1     -45.109  57.236 -54.728  1.00  0.00    -0.267 OA
ENDBRANCH   1  17
BRANCH   3  27
HETATM   27  C   UNL     1     -41.446  53.647 -52.742  1.00  0.00     0.060 A 
HETATM   28  C   UNL     1     -41.616  53.909 -51.377  1.00  0.00     0.031 A 
HETATM   29  C   UNL     1     -40.855  53.212 -50.434  1.00  0.00     0.002 A 
HETATM   30  C   UNL     1     -39.911  52.274 -50.846  1.00  0.00     0.000 A 
HETATM   31  C   UNL     1     -39.701  52.046 -52.204  1.00  0.00     0.002 A 
HETATM   32  C   UNL     1     -40.457  52.737 -53.151  1.00  0.00     0.031 A 
ENDBRANCH   3  27
TORSDOF 4
ENDMDL
MODEL 9
REMARK VINA RESULT:      -7.8     16.197     18.737
REMARK  4 active torsions:
REMARK  status: ('A' for Active; 'I' for Inactive)
REMARK       I    between atoms: N_6  and  C_7 
REMARK    1  A    between atoms: C_7  and  C_8 
REMARK    2  A    between atoms: C_9  and  N_10 
REMARK       I    between atoms: N_10  and  C_11 
REMARK    3  A    between atoms: C_11  and  C_12 
REMARK    4  A    between atoms: N_20  and  C_21 
ROOT
HETATM    1  C   UNL     1     -35.120  41.311 -53.564  1.00  0.00     0.097 C 
HETATM    2  C   UNL     1     -34.087  40.737 -52.832  1.00  0.00     0.149 C 
HETATM    3  N   UNL     1     -34.534  40.639 -51.507  1.00  0.00    -0.217 N 
HETATM    4  N   UNL     1     -35.775  41.193 -51.386  1.00  0.00    -0.177 NA
HETATM    5  C   UNL     1     -36.161  41.448 -52.632  1.00  0.00     0.160 C 
ENDROOT
BRANCH   2   6
HETATM    6  N   UNL     1     -32.867  40.399 -53.426  1.00  0.00    -0.306 N 
HETATM    7  C   UNL     1     -32.550  39.054 -53.803  1.00  0.00     0.257 C 
HETATM    8  O   UNL     1     -33.180  38.142 -53.301  1.00  0.00    -0.267 OA
HETATM    9  H   UNL     1     -32.135  41.107 -53.392  1.00  0.00     0.170 HD
BRANCH   7  10
HETATM   10  C   UNL     1     -31.439  38.847 -54.771  1.00  0.00     0.032 A 
HETATM   11  C   UNL     1     -31.205  39.711 -55.851  1.00  0.00     0.018 A 
HETATM   12  C   UNL     1     -30.176  39.434 -56.759  1.00  0.00     0.020 A 
HETATM   13  C   UNL     1     -29.390  38.294 -56.598  1.00  0.00     0.011 A 
HETATM   14 BR   UNL     1     -28.018  37.917 -57.840  1.00  0.00    -0.051 Br
HETATM   15  C   UNL     1     -29.619  37.426 -55.532  1.00  0.00     0.020 A 
HETATM   16  C   UNL     1     -30.641  37.704 -54.619  1.00  0.00     0.018 A 
ENDBRANCH   7  10
ENDBRANCH   2   6
BRANCH   1  17
HETATM   17  C   UNL     1     -35.044  41.643 -54.973  1.00  0.00     0.259 C 
HETATM   18  N   UNL     1     -35.093  40.627 -55.937  1.00  0.00    -0.345 N 
HETATM   19  C   UNL     1     -34.873  41.014 -57.338  1.00  0.00     0.154 C 
HETATM   20  C   UNL     1     -35.849  39.371 -55.787  1.00  0.00     0.154 C 
HETATM   21  C   UNL     1     -36.209  41.153 -58.094  1.00  0.00     0.254 C 
HETATM   22  N   UNL     1     -36.999  39.847 -57.978  1.00  0.00    -0.072 N 
HETATM   23  C   UNL     1     -38.304  39.911 -58.724  1.00  0.00     0.269 C 
HETATM   24  H   UNL     1     -36.441  39.112 -58.434  1.00  0.00     0.279 HD
HETATM   25  C   UNL     1     -37.202  39.436 -56.526  1.00  0.00     0.254 C 
HETATM   26  O   UNL     1     -34.984  42.828 -55.310  1.00  0.00    -0.267 OA
ENDBRANCH   1  17
BRANCH   3  27
HETATM   27  C   UNL     1     -33.961  39.994 -50.378  1.00  0.00     0.060 A 
HETATM   28  C   UNL     1     -34.643  38.998 -49.668  1.00  0.00     0.031 A 
HETATM   29  C   UNL     1     -34.020  38.358 -48.593  1.00  0.00     0.002 A 
HETATM   30  C   UNL     1     -32.732  38.723 -48.208  1.00  0.00     0.000 A 
HETATM   31  C   UNL     1     -32.068  39.749 -48.876  1.00  0.00     0.002 A 
HETATM   32  C   UNL     1     -32.683  40.392 -49.951  1.00  0.00     0.031 A 
ENDBRANCH   3  27
TORSDOF 4
ENDMDL
MODEL 10
REMARK VINA RESULT:      -7.7      1.580      6.369
REMARK  4 active torsions:
REMARK  status: ('A' for Active; 'I' for Inactive)
REMARK       I    between atoms: N_6  and  C_7 
REMARK    1  A    between atoms: C_7  and  C_8 
REMARK    2  A    between atoms: C_9  and  N_10 
REMARK       I    between atoms: N_10  and  C_11 
REMARK    3  A    between atoms: C_11  and  C_12 
REMARK    4  A    between atoms: N_20  and  C_21 
ROOT
HETATM    1  C   UNL     1     -42.131  55.016 -52.426  1.00  0.00     0.097 C 
HETATM    2  C   UNL     1     -43.011  56.054 -52.709  1.00  0.00     0.149 C 
HETATM    3  N   UNL     1     -43.187  56.773 -51.520  1.00  0.00    -0.217 N 
HETATM    4  N   UNL     1     -42.503  56.176 -50.502  1.00  0.00    -0.177 NA
HETATM    5  C   UNL     1     -41.772  55.232 -51.086  1.00  0.00     0.160 C 
ENDROOT
BRANCH   2   6
HETATM    6  N   UNL     1     -43.570  56.215 -53.981  1.00  0.00    -0.306 N 
HETATM    7  C   UNL     1     -42.952  57.024 -54.987  1.00  0.00     0.257 C 
HETATM    8  O   UNL     1     -42.131  57.856 -54.646  1.00  0.00    -0.267 OA
HETATM    9  H   UNL     1     -44.533  55.901 -54.096  1.00  0.00     0.170 HD
BRANCH   7  10
HETATM   10  C   UNL     1     -43.377  56.824 -56.399  1.00  0.00     0.032 A 
HETATM   11  C   UNL     1     -44.254  57.699 -57.057  1.00  0.00     0.018 A 
HETATM   12  C   UNL     1     -44.660  57.428 -58.370  1.00  0.00     0.020 A 
HETATM   13  C   UNL     1     -44.203  56.283 -59.020  1.00  0.00     0.011 A 
HETATM   14 BR   UNL     1     -44.772  55.914 -60.782  1.00  0.00    -0.051 Br
HETATM   15  C   UNL     1     -43.337  55.404 -58.372  1.00  0.00     0.020 A 
HETATM   16  C   UNL     1     -42.923  55.675 -57.065  1.00  0.00     0.018 A 
ENDBRANCH   7  10
ENDBRANCH   2   6
BRANCH   1  17
HETATM   17  C   UNL     1     -41.728  53.997 -53.375  1.00  0.00     0.259 C 
HETATM   18  N   UNL     1     -40.460  53.410 -53.278  1.00  0.00    -0.345 N 
HETATM   19  C   UNL     1     -40.059  52.486 -54.349  1.00  0.00     0.154 C 
HETATM   20  C   UNL     1     -39.735  53.192 -52.014  1.00  0.00     0.154 C 
HETATM   21  C   UNL     1     -40.255  51.019 -53.921  1.00  0.00     0.254 C 
HETATM   22  N   UNL     1     -39.486  50.759 -52.623  1.00  0.00    -0.072 N 
HETATM   23  C   UNL     1     -39.614  49.331 -52.168  1.00  0.00     0.269 C 
HETATM   24  H   UNL     1     -38.488  50.910 -52.825  1.00  0.00     0.279 HD
HETATM   25  C   UNL     1     -39.884  51.735 -51.524  1.00  0.00     0.254 C 
HETATM   26  O   UNL     1     -42.531  53.622 -54.233  1.00  0.00    -0.267 OA
ENDBRANCH   1  17
BRANCH   3  27
HETATM   27  C   UNL     1     -43.846  58.007 -51.268  1.00  0.00     0.060 A 
HETATM   28  C   UNL     1     -45.222  58.074 -51.017  1.00  0.00     0.031 A 
HETATM   29  C   UNL     1     -45.817  59.306 -50.726  1.00  0.00     0.002 A 
HETATM   30  C   UNL     1     -45.053  60.470 -50.710  1.00  0.00     0.000 A 
HETATM   31  C   UNL     1     -43.694  60.417 -51.010  1.00  0.00     0.002 A 
HETATM   32  C   UNL     1     -43.092  59.192 -51.299  1.00  0.00     0.031 A 
ENDBRANCH   3  27
TORSDOF 4
ENDMDL
