MODEL 1
REMARK VINA RESULT:      -9.9      0.000      0.000
REMARK  3 active torsions:
REMARK  status: ('A' for Active; 'I' for Inactive)
REMARK    1  A    between atoms: C_5  and  C_6 
REMARK    2  A    between atoms: C_10  and  N_11 
REMARK    3  A    between atoms: N_11  and  N_12 
ROOT
HETATM    1  N   UNL     1     -43.533  55.645 -56.608  1.00  0.00    -0.261 N 
HETATM    2  H   UNL     1     -44.096  56.358 -56.138  1.00  0.00     0.191 HD
ENDROOT
BRANCH   1   3
HETATM    3  C   UNL     1     -42.560  55.025 -55.890  1.00  0.00     0.140 A 
HETATM    4  N   UNL     1     -41.299  55.536 -55.810  1.00  0.00    -0.261 N 
HETATM    5  N   UNL     1     -40.457  54.815 -55.056  1.00  0.00    -0.172 NA
HETATM    6  H   UNL     1     -40.939  56.373 -56.250  1.00  0.00     0.191 HD
HETATM    7  C   UNL     1     -41.197  53.781 -54.614  1.00  0.00     0.090 A 
HETATM    8  C   UNL     1     -42.525  53.876 -55.130  1.00  0.00     0.085 A 
BRANCH   7   9
HETATM    9  C   UNL     1     -40.620  52.771 -53.710  1.00  0.00    -0.006 A 
HETATM   10  C   UNL     1     -40.460  53.058 -52.343  1.00  0.00     0.014 A 
HETATM   11  C   UNL     1     -39.972  52.098 -51.449  1.00  0.00     0.007 A 
HETATM   12  C   UNL     1     -39.625  50.824 -51.902  1.00  0.00    -0.062 A 
HETATM   13  C   UNL     1     -39.150  49.770 -50.945  1.00  0.00     0.048 C 
HETATM   14  C   UNL     1     -39.758  50.534 -53.266  1.00  0.00     0.007 A 
HETATM   15  C   UNL     1     -40.248  51.498 -54.160  1.00  0.00     0.014 A 
ENDBRANCH   7   9
ENDBRANCH   1   3
BRANCH   1  16
HETATM   16  N   UNL     1     -43.426  55.750 -57.967  1.00  0.00    -0.166 NA
HETATM   17  C   UNL     1     -43.219  56.927 -58.490  1.00  0.00     0.169 C 
HETATM   18  C   UNL     1     -42.990  57.056 -59.984  1.00  0.00     0.278 C 
HETATM   19  C   UNL     1     -43.219  58.187 -57.699  1.00  0.00     0.067 C 
HETATM   20  O   UNL     1     -43.273  56.123 -60.729  1.00  0.00    -0.265 OA
HETATM   21  N   UNL     1     -42.539  58.245 -60.528  1.00  0.00    -0.319 N 
HETATM   22  C   UNL     1     -42.079  59.467 -59.971  1.00  0.00     0.064 A 
HETATM   23  H   UNL     1     -42.532  58.186 -61.541  1.00  0.00     0.169 HD
HETATM   24  C   UNL     1     -41.848  59.720 -58.598  1.00  0.00     0.084 A 
HETATM   25  C   UNL     1     -41.826  60.495 -60.895  1.00  0.00     0.032 A 
HETATM   26  C   UNL     1     -41.344  60.964 -58.197  1.00  0.00     0.034 A 
HETATM   27  N   UNL     1     -42.059  58.751 -57.601  1.00  0.00    -0.249 NA
HETATM   28  C   UNL     1     -41.101  61.971 -59.129  1.00  0.00     0.002 A 
HETATM   29  C   UNL     1     -41.350  61.740 -60.477  1.00  0.00     0.002 A 
HETATM   30  C   UNL     1     -44.535  58.889 -57.545  1.00  0.00     0.073 C 
ENDBRANCH   1  16
TORSDOF 3
ENDMDL
MODEL 2
REMARK VINA RESULT:      -9.3      2.382      3.834
REMARK  3 active torsions:
REMARK  status: ('A' for Active; 'I' for Inactive)
REMARK    1  A    between atoms: C_5  and  C_6 
REMARK    2  A    between atoms: C_10  and  N_11 
REMARK    3  A    between atoms: N_11  and  N_12 
ROOT
HETATM    1  N   UNL     1     -41.861  58.114 -54.968  1.00  0.00    -0.261 N 
HETATM    2  H   UNL     1     -41.126  58.485 -55.575  1.00  0.00     0.191 HD
ENDROOT
BRANCH   1   3
HETATM    3  C   UNL     1     -41.616  56.955 -54.304  1.00  0.00     0.140 A 
HETATM    4  N   UNL     1     -42.040  56.764 -53.023  1.00  0.00    -0.261 N 
HETATM    5  N   UNL     1     -41.730  55.566 -52.510  1.00  0.00    -0.172 NA
HETATM    6  H   UNL     1     -42.544  57.414 -52.433  1.00  0.00     0.191 HD
HETATM    7  C   UNL     1     -41.073  54.932 -53.500  1.00  0.00     0.090 A 
HETATM    8  C   UNL     1     -40.973  55.784 -54.642  1.00  0.00     0.085 A 
BRANCH   7   9
HETATM    9  C   UNL     1     -40.595  53.550 -53.325  1.00  0.00    -0.006 A 
HETATM   10  C   UNL     1     -40.177  53.103 -52.060  1.00  0.00     0.014 A 
HETATM   11  C   UNL     1     -39.776  51.779 -51.851  1.00  0.00     0.007 A 
HETATM   12  C   UNL     1     -39.779  50.865 -52.907  1.00  0.00    -0.062 A 
HETATM   13  C   UNL     1     -39.400  49.430 -52.685  1.00  0.00     0.048 C 
HETATM   14  C   UNL     1     -40.171  51.305 -54.177  1.00  0.00     0.007 A 
HETATM   15  C   UNL     1     -40.573  52.633 -54.385  1.00  0.00     0.014 A 
ENDBRANCH   7   9
ENDBRANCH   1   3
BRANCH   1  16
HETATM   16  N   UNL     1     -43.143  58.476 -55.275  1.00  0.00    -0.166 NA
HETATM   17  C   UNL     1     -43.633  58.127 -56.433  1.00  0.00     0.169 C 
HETATM   18  C   UNL     1     -45.087  58.421 -56.754  1.00  0.00     0.278 C 
HETATM   19  C   UNL     1     -42.831  57.464 -57.496  1.00  0.00     0.067 C 
HETATM   20  O   UNL     1     -45.716  59.219 -56.066  1.00  0.00    -0.265 OA
HETATM   21  N   UNL     1     -45.691  57.860 -57.864  1.00  0.00    -0.319 N 
HETATM   22  C   UNL     1     -45.287  56.886 -58.815  1.00  0.00     0.064 A 
HETATM   23  H   UNL     1     -46.626  58.235 -57.981  1.00  0.00     0.169 HD
HETATM   24  C   UNL     1     -44.102  56.114 -58.761  1.00  0.00     0.084 A 
HETATM   25  C   UNL     1     -46.171  56.685 -59.888  1.00  0.00     0.032 A 
HETATM   26  C   UNL     1     -43.857  55.150 -59.748  1.00  0.00     0.034 A 
HETATM   27  N   UNL     1     -43.163  56.234 -57.721  1.00  0.00    -0.249 NA
HETATM   28  C   UNL     1     -44.746  54.967 -60.805  1.00  0.00     0.002 A 
HETATM   29  C   UNL     1     -45.900  55.740 -60.880  1.00  0.00     0.002 A 
HETATM   30  C   UNL     1     -42.131  58.360 -58.472  1.00  0.00     0.073 C 
ENDBRANCH   1  16
TORSDOF 3
ENDMDL
MODEL 3
REMARK VINA RESULT:      -8.9      2.475      9.115
REMARK  3 active torsions:
REMARK  status: ('A' for Active; 'I' for Inactive)
REMARK    1  A    between atoms: C_5  and  C_6 
REMARK    2  A    between atoms: C_10  and  N_11 
REMARK    3  A    between atoms: N_11  and  N_12 
ROOT
HETATM    1  N   UNL     1     -43.436  54.973 -55.644  1.00  0.00    -0.261 N 
HETATM    2  H   UNL     1     -44.411  54.827 -55.370  1.00  0.00     0.191 HD
ENDROOT
BRANCH   1   3
HETATM    3  C   UNL     1     -43.186  55.782 -56.706  1.00  0.00     0.140 A 
HETATM    4  N   UNL     1     -43.478  55.395 -57.981  1.00  0.00    -0.261 N 
HETATM    5  N   UNL     1     -43.182  56.307 -58.916  1.00  0.00    -0.172 NA
HETATM    6  H   UNL     1     -43.877  54.517 -58.287  1.00  0.00     0.191 HD
HETATM    7  C   UNL     1     -42.673  57.347 -58.230  1.00  0.00     0.090 A 
HETATM    8  C   UNL     1     -42.650  57.045 -56.834  1.00  0.00     0.085 A 
BRANCH   7   9
HETATM    9  C   UNL     1     -42.258  58.580 -58.922  1.00  0.00    -0.006 A 
HETATM   10  C   UNL     1     -42.254  58.632 -60.327  1.00  0.00     0.014 A 
HETATM   11  C   UNL     1     -41.923  59.807 -61.011  1.00  0.00     0.007 A 
HETATM   12  C   UNL     1     -41.582  60.963 -60.305  1.00  0.00    -0.062 A 
HETATM   13  C   UNL     1     -41.276  62.243 -61.026  1.00  0.00     0.048 C 
HETATM   14  C   UNL     1     -41.560  60.916 -58.905  1.00  0.00     0.007 A 
HETATM   15  C   UNL     1     -41.892  59.737 -58.222  1.00  0.00     0.014 A 
ENDBRANCH   7   9
ENDBRANCH   1   3
BRANCH   1  16
HETATM   16  N   UNL     1     -42.555  53.983 -55.308  1.00  0.00    -0.166 NA
HETATM   17  C   UNL     1     -41.918  54.069 -54.173  1.00  0.00     0.169 C 
HETATM   18  C   UNL     1     -41.018  52.931 -53.727  1.00  0.00     0.278 C 
HETATM   19  C   UNL     1     -42.001  55.252 -53.275  1.00  0.00     0.067 C 
HETATM   20  O   UNL     1     -40.667  52.077 -54.535  1.00  0.00    -0.265 OA
HETATM   21  N   UNL     1     -40.522  52.890 -52.437  1.00  0.00    -0.319 N 
HETATM   22  C   UNL     1     -40.759  53.660 -51.268  1.00  0.00     0.064 A 
HETATM   23  H   UNL     1     -39.868  52.121 -52.339  1.00  0.00     0.169 HD
HETATM   24  C   UNL     1     -41.741  54.669 -51.123  1.00  0.00     0.084 A 
HETATM   25  C   UNL     1     -39.937  53.361 -50.169  1.00  0.00     0.032 A 
HETATM   26  C   UNL     1     -41.894  55.315 -49.890  1.00  0.00     0.034 A 
HETATM   27  N   UNL     1     -42.619  55.030 -52.160  1.00  0.00    -0.249 NA
HETATM   28  C   UNL     1     -41.067  55.004 -48.812  1.00  0.00     0.002 A 
HETATM   29  C   UNL     1     -40.082  54.033 -48.954  1.00  0.00     0.002 A 
HETATM   30  C   UNL     1     -40.998  56.344 -53.502  1.00  0.00     0.073 C 
ENDBRANCH   1  16
TORSDOF 3
ENDMDL
MODEL 4
REMARK VINA RESULT:      -8.8      3.262      9.405
REMARK  3 active torsions:
REMARK  status: ('A' for Active; 'I' for Inactive)
REMARK    1  A    between atoms: C_5  and  C_6 
REMARK    2  A    between atoms: C_10  and  N_11 
REMARK    3  A    between atoms: N_11  and  N_12 
ROOT
HETATM    1  N   UNL     1     -42.336  56.827 -57.095  1.00  0.00    -0.261 N 
HETATM    2  H   UNL     1     -41.521  56.870 -57.712  1.00  0.00     0.191 HD
ENDROOT
BRANCH   1   3
HETATM    3  C   UNL     1     -43.560  57.056 -57.638  1.00  0.00     0.140 A 
HETATM    4  N   UNL     1     -44.614  57.462 -56.875  1.00  0.00    -0.261 N 
HETATM    5  N   UNL     1     -45.750  57.655 -57.559  1.00  0.00    -0.172 NA
HETATM    6  H   UNL     1     -44.631  57.624 -55.876  1.00  0.00     0.191 HD
HETATM    7  C   UNL     1     -45.433  57.365 -58.834  1.00  0.00     0.090 A 
HETATM    8  C   UNL     1     -44.063  56.972 -58.919  1.00  0.00     0.085 A 
BRANCH   7   9
HETATM    9  C   UNL     1     -46.431  57.497 -59.910  1.00  0.00    -0.006 A 
HETATM   10  C   UNL     1     -46.836  58.772 -60.344  1.00  0.00     0.014 A 
HETATM   11  C   UNL     1     -47.736  58.928 -61.404  1.00  0.00     0.007 A 
HETATM   12  C   UNL     1     -48.260  57.810 -62.056  1.00  0.00    -0.062 A 
HETATM   13  C   UNL     1     -49.186  57.966 -63.227  1.00  0.00     0.048 C 
HETATM   14  C   UNL     1     -47.882  56.535 -61.617  1.00  0.00     0.007 A 
HETATM   15  C   UNL     1     -46.979  56.380 -60.554  1.00  0.00     0.014 A 
ENDBRANCH   7   9
ENDBRANCH   1   3
BRANCH   1  16
HETATM   16  N   UNL     1     -42.111  57.081 -55.771  1.00  0.00    -0.166 NA
HETATM   17  C   UNL     1     -41.863  56.078 -54.974  1.00  0.00     0.169 C 
HETATM   18  C   UNL     1     -41.503  56.342 -53.523  1.00  0.00     0.278 C 
HETATM   19  C   UNL     1     -41.938  54.655 -55.400  1.00  0.00     0.067 C 
HETATM   20  O   UNL     1     -41.716  57.446 -53.031  1.00  0.00    -0.265 OA
HETATM   21  N   UNL     1     -41.011  55.327 -52.724  1.00  0.00    -0.319 N 
HETATM   22  C   UNL     1     -40.607  53.989 -52.973  1.00  0.00     0.064 A 
HETATM   23  H   UNL     1     -40.914  55.651 -51.768  1.00  0.00     0.169 HD
HETATM   24  C   UNL     1     -40.499  53.377 -54.245  1.00  0.00     0.084 A 
HETATM   25  C   UNL     1     -40.277  53.234 -51.835  1.00  0.00     0.032 A 
HETATM   26  C   UNL     1     -40.037  52.058 -54.343  1.00  0.00     0.034 A 
HETATM   27  N   UNL     1     -40.793  54.054 -55.442  1.00  0.00    -0.249 NA
HETATM   28  C   UNL     1     -39.717  51.326 -53.201  1.00  0.00     0.002 A 
HETATM   29  C   UNL     1     -39.845  51.911 -51.946  1.00  0.00     0.002 A 
HETATM   30  C   UNL     1     -43.265  53.973 -55.250  1.00  0.00     0.073 C 
ENDBRANCH   1  16
TORSDOF 3
ENDMDL
MODEL 5
REMARK VINA RESULT:      -8.7      6.314      7.266
REMARK  3 active torsions:
REMARK  status: ('A' for Active; 'I' for Inactive)
REMARK    1  A    between atoms: C_5  and  C_6 
REMARK    2  A    between atoms: C_10  and  N_11 
REMARK    3  A    between atoms: N_11  and  N_12 
ROOT
HETATM    1  N   UNL     1     -43.285  58.501 -53.108  1.00  0.00    -0.261 N 
HETATM    2  H   UNL     1     -43.468  59.032 -53.963  1.00  0.00     0.191 HD
ENDROOT
BRANCH   1   3
HETATM    3  C   UNL     1     -42.497  57.398 -53.199  1.00  0.00     0.140 A 
HETATM    4  N   UNL     1     -41.565  57.267 -54.185  1.00  0.00    -0.261 N 
HETATM    5  N   UNL     1     -40.862  56.128 -54.133  1.00  0.00    -0.172 NA
HETATM    6  H   UNL     1     -41.358  57.916 -54.933  1.00  0.00     0.191 HD
HETATM    7  C   UNL     1     -41.349  55.476 -53.061  1.00  0.00     0.090 A 
HETATM    8  C   UNL     1     -42.389  56.243 -52.455  1.00  0.00     0.085 A 
BRANCH   7   9
HETATM    9  C   UNL     1     -40.791  54.175 -52.650  1.00  0.00    -0.006 A 
HETATM   10  C   UNL     1     -40.574  53.899 -51.288  1.00  0.00     0.014 A 
HETATM   11  C   UNL     1     -40.104  52.652 -50.864  1.00  0.00     0.007 A 
HETATM   12  C   UNL     1     -39.832  51.646 -51.794  1.00  0.00    -0.062 A 
HETATM   13  C   UNL     1     -39.376  50.288 -51.347  1.00  0.00     0.048 C 
HETATM   14  C   UNL     1     -40.021  51.917 -53.154  1.00  0.00     0.007 A 
HETATM   15  C   UNL     1     -40.494  53.169 -53.578  1.00  0.00     0.014 A 
ENDBRANCH   7   9
ENDBRANCH   1   3
BRANCH   1  16
HETATM   16  N   UNL     1     -44.221  58.600 -52.117  1.00  0.00    -0.166 NA
HETATM   17  C   UNL     1     -44.108  59.562 -51.242  1.00  0.00     0.169 C 
HETATM   18  C   UNL     1     -45.192  59.759 -50.198  1.00  0.00     0.278 C 
HETATM   19  C   UNL     1     -42.943  60.485 -51.185  1.00  0.00     0.067 C 
HETATM   20  O   UNL     1     -46.013  58.871 -49.993  1.00  0.00    -0.265 OA
HETATM   21  N   UNL     1     -45.218  60.900 -49.417  1.00  0.00    -0.319 N 
HETATM   22  C   UNL     1     -44.477  62.112 -49.423  1.00  0.00     0.064 A 
HETATM   23  H   UNL     1     -45.945  60.826 -48.714  1.00  0.00     0.169 HD
HETATM   24  C   UNL     1     -43.534  62.504 -50.403  1.00  0.00     0.084 A 
HETATM   25  C   UNL     1     -44.737  62.985 -48.354  1.00  0.00     0.032 A 
HETATM   26  C   UNL     1     -42.914  63.756 -50.305  1.00  0.00     0.034 A 
HETATM   27  N   UNL     1     -43.217  61.705 -51.515  1.00  0.00    -0.249 NA
HETATM   28  C   UNL     1     -43.184  64.607 -49.235  1.00  0.00     0.002 A 
HETATM   29  C   UNL     1     -44.090  64.218 -48.255  1.00  0.00     0.002 A 
HETATM   30  C   UNL     1     -41.788  60.062 -50.327  1.00  0.00     0.073 C 
ENDBRANCH   1  16
TORSDOF 3
ENDMDL
MODEL 6
REMARK VINA RESULT:      -8.7      2.586      3.864
REMARK  3 active torsions:
REMARK  status: ('A' for Active; 'I' for Inactive)
REMARK    1  A    between atoms: C_5  and  C_6 
REMARK    2  A    between atoms: C_10  and  N_11 
REMARK    3  A    between atoms: N_11  and  N_12 
ROOT
HETATM    1  N   UNL     1     -42.366  56.238 -57.119  1.00  0.00    -0.261 N 
HETATM    2  H   UNL     1     -42.259  55.867 -58.067  1.00  0.00     0.191 HD
ENDROOT
BRANCH   1   3
HETATM    3  C   UNL     1     -42.212  55.381 -56.077  1.00  0.00     0.140 A 
HETATM    4  N   UNL     1     -43.237  55.106 -55.222  1.00  0.00    -0.261 N 
HETATM    5  N   UNL     1     -42.931  54.234 -54.253  1.00  0.00    -0.172 NA
HETATM    6  H   UNL     1     -44.176  55.485 -55.237  1.00  0.00     0.191 HD
HETATM    7  C   UNL     1     -41.643  53.913 -54.479  1.00  0.00     0.090 A 
HETATM    8  C   UNL     1     -41.155  54.627 -55.615  1.00  0.00     0.085 A 
BRANCH   7   9
HETATM    9  C   UNL     1     -40.948  52.932 -53.627  1.00  0.00    -0.006 A 
HETATM   10  C   UNL     1     -40.818  53.164 -52.246  1.00  0.00     0.014 A 
HETATM   11  C   UNL     1     -40.218  52.223 -51.403  1.00  0.00     0.007 A 
HETATM   12  C   UNL     1     -39.725  51.023 -51.921  1.00  0.00    -0.062 A 
HETATM   13  C   UNL     1     -39.125  49.984 -51.019  1.00  0.00     0.048 C 
HETATM   14  C   UNL     1     -39.827  50.792 -53.298  1.00  0.00     0.007 A 
HETATM   15  C   UNL     1     -40.430  51.736 -54.142  1.00  0.00     0.014 A 
ENDBRANCH   7   9
ENDBRANCH   1   3
BRANCH   1  16
HETATM   16  N   UNL     1     -43.147  57.352 -56.986  1.00  0.00    -0.166 NA
HETATM   17  C   UNL     1     -44.000  57.636 -57.932  1.00  0.00     0.169 C 
HETATM   18  C   UNL     1     -44.953  58.804 -57.758  1.00  0.00     0.278 C 
HETATM   19  C   UNL     1     -44.083  56.885 -59.212  1.00  0.00     0.067 C 
HETATM   20  O   UNL     1     -44.744  59.640 -56.884  1.00  0.00    -0.265 OA
HETATM   21  N   UNL     1     -46.014  58.983 -58.627  1.00  0.00    -0.319 N 
HETATM   22  C   UNL     1     -46.561  58.206 -59.681  1.00  0.00     0.064 A 
HETATM   23  H   UNL     1     -46.488  59.857 -58.425  1.00  0.00     0.169 HD
HETATM   24  C   UNL     1     -46.173  56.890 -60.032  1.00  0.00     0.084 A 
HETATM   25  C   UNL     1     -47.590  58.820 -60.415  1.00  0.00     0.032 A 
HETATM   26  C   UNL     1     -46.839  56.224 -61.069  1.00  0.00     0.034 A 
HETATM   27  N   UNL     1     -45.165  56.188 -59.349  1.00  0.00    -0.249 NA
HETATM   28  C   UNL     1     -47.855  56.852 -61.786  1.00  0.00     0.002 A 
HETATM   29  C   UNL     1     -48.225  58.154 -61.465  1.00  0.00     0.002 A 
HETATM   30  C   UNL     1     -43.226  57.375 -60.341  1.00  0.00     0.073 C 
ENDBRANCH   1  16
TORSDOF 3
ENDMDL
MODEL 7
REMARK VINA RESULT:      -8.7      3.183      4.547
REMARK  3 active torsions:
REMARK  status: ('A' for Active; 'I' for Inactive)
REMARK    1  A    between atoms: C_5  and  C_6 
REMARK    2  A    between atoms: C_10  and  N_11 
REMARK    3  A    between atoms: N_11  and  N_12 
ROOT
HETATM    1  N   UNL     1     -41.776  58.478 -52.551  1.00  0.00    -0.261 N 
HETATM    2  H   UNL     1     -41.075  59.058 -53.019  1.00  0.00     0.191 HD
ENDROOT
BRANCH   1   3
HETATM    3  C   UNL     1     -41.482  57.169 -52.338  1.00  0.00     0.140 A 
HETATM    4  N   UNL     1     -41.541  56.619 -51.091  1.00  0.00    -0.261 N 
HETATM    5  N   UNL     1     -41.233  55.316 -51.047  1.00  0.00    -0.172 NA
HETATM    6  H   UNL     1     -41.779  57.078 -50.221  1.00  0.00     0.191 HD
HETATM    7  C   UNL     1     -40.960  54.987 -52.324  1.00  0.00     0.090 A 
HETATM    8  C   UNL     1     -41.096  56.134 -53.162  1.00  0.00     0.085 A 
BRANCH   7   9
HETATM    9  C   UNL     1     -40.610  53.603 -52.689  1.00  0.00    -0.006 A 
HETATM   10  C   UNL     1     -40.993  53.085 -53.939  1.00  0.00     0.014 A 
HETATM   11  C   UNL     1     -40.622  51.797 -54.338  1.00  0.00     0.007 A 
HETATM   12  C   UNL     1     -39.859  50.988 -53.492  1.00  0.00    -0.062 A 
HETATM   13  C   UNL     1     -39.412  49.624 -53.930  1.00  0.00     0.048 C 
HETATM   14  C   UNL     1     -39.492  51.484 -52.235  1.00  0.00     0.007 A 
HETATM   15  C   UNL     1     -39.865  52.777 -51.837  1.00  0.00     0.014 A 
ENDBRANCH   7   9
ENDBRANCH   1   3
BRANCH   1  16
HETATM   16  N   UNL     1     -43.076  58.883 -52.667  1.00  0.00    -0.166 NA
HETATM   17  C   UNL     1     -43.622  58.909 -53.851  1.00  0.00     0.169 C 
HETATM   18  C   UNL     1     -45.094  59.250 -53.994  1.00  0.00     0.278 C 
HETATM   19  C   UNL     1     -42.869  58.642 -55.106  1.00  0.00     0.067 C 
HETATM   20  O   UNL     1     -45.695  59.769 -53.058  1.00  0.00    -0.265 OA
HETATM   21  N   UNL     1     -45.748  59.057 -55.197  1.00  0.00    -0.319 N 
HETATM   22  C   UNL     1     -45.383  58.449 -56.427  1.00  0.00     0.064 A 
HETATM   23  H   UNL     1     -46.693  59.423 -55.144  1.00  0.00     0.169 HD
HETATM   24  C   UNL     1     -44.188  57.733 -56.678  1.00  0.00     0.084 A 
HETATM   25  C   UNL     1     -46.320  58.577 -57.466  1.00  0.00     0.032 A 
HETATM   26  C   UNL     1     -43.985  57.142 -57.931  1.00  0.00     0.034 A 
HETATM   27  N   UNL     1     -43.198  57.540 -55.699  1.00  0.00    -0.249 NA
HETATM   28  C   UNL     1     -44.926  57.282 -58.950  1.00  0.00     0.002 A 
HETATM   29  C   UNL     1     -46.090  58.007 -58.720  1.00  0.00     0.002 A 
HETATM   30  C   UNL     1     -42.231  59.823 -55.775  1.00  0.00     0.073 C 
ENDBRANCH   1  16
TORSDOF 3
ENDMDL
MODEL 8
REMARK VINA RESULT:      -8.5     15.764     19.029
REMARK  3 active torsions:
REMARK  status: ('A' for Active; 'I' for Inactive)
REMARK    1  A    between atoms: C_5  and  C_6 
REMARK    2  A    between atoms: C_10  and  N_11 
REMARK    3  A    between atoms: N_11  and  N_12 
ROOT
HETATM    1  N   UNL     1     -36.222  42.444 -53.380  1.00  0.00    -0.261 N 
HETATM    2  H   UNL     1     -36.294  43.418 -53.074  1.00  0.00     0.191 HD
ENDROOT
BRANCH   1   3
HETATM    3  C   UNL     1     -36.067  42.202 -54.708  1.00  0.00     0.140 A 
HETATM    4  N   UNL     1     -34.990  42.675 -55.397  1.00  0.00    -0.261 N 
HETATM    5  N   UNL     1     -34.975  42.343 -56.695  1.00  0.00    -0.172 NA
HETATM    6  H   UNL     1     -34.226  43.238 -55.045  1.00  0.00     0.191 HD
HETATM    7  C   UNL     1     -36.093  41.615 -56.873  1.00  0.00     0.090 A 
HETATM    8  C   UNL     1     -36.811  41.515 -55.643  1.00  0.00     0.085 A 
BRANCH   7   9
HETATM    9  C   UNL     1     -36.413  41.030 -58.187  1.00  0.00    -0.006 A 
HETATM   10  C   UNL     1     -36.017  39.715 -58.489  1.00  0.00     0.014 A 
HETATM   11  C   UNL     1     -36.360  39.112 -59.704  1.00  0.00     0.007 A 
HETATM   12  C   UNL     1     -37.105  39.813 -60.655  1.00  0.00    -0.062 A 
HETATM   13  C   UNL     1     -37.522  39.160 -61.940  1.00  0.00     0.048 C 
HETATM   14  C   UNL     1     -37.485  41.132 -60.375  1.00  0.00     0.007 A 
HETATM   15  C   UNL     1     -37.141  41.734 -59.155  1.00  0.00     0.014 A 
ENDBRANCH   7   9
ENDBRANCH   1   3
BRANCH   1  16
HETATM   16  N   UNL     1     -36.804  41.507 -52.572  1.00  0.00    -0.166 NA
HETATM   17  C   UNL     1     -36.035  40.733 -51.856  1.00  0.00     0.169 C 
HETATM   18  C   UNL     1     -36.657  39.761 -50.870  1.00  0.00     0.278 C 
HETATM   19  C   UNL     1     -34.552  40.725 -51.963  1.00  0.00     0.067 C 
HETATM   20  O   UNL     1     -37.854  39.498 -50.943  1.00  0.00    -0.265 OA
HETATM   21  N   UNL     1     -35.874  39.104 -49.939  1.00  0.00    -0.319 N 
HETATM   22  C   UNL     1     -34.510  39.206 -49.556  1.00  0.00     0.064 A 
HETATM   23  H   UNL     1     -36.430  38.427 -49.429  1.00  0.00     0.169 HD
HETATM   24  C   UNL     1     -33.591  40.182 -50.009  1.00  0.00     0.084 A 
HETATM   25  C   UNL     1     -34.068  38.244 -48.632  1.00  0.00     0.032 A 
HETATM   26  C   UNL     1     -32.284  40.190 -49.505  1.00  0.00     0.034 A 
HETATM   27  N   UNL     1     -33.942  41.191 -50.922  1.00  0.00    -0.249 NA
HETATM   28  C   UNL     1     -31.864  39.226 -48.589  1.00  0.00     0.002 A 
HETATM   29  C   UNL     1     -32.754  38.248 -48.159  1.00  0.00     0.002 A 
HETATM   30  C   UNL     1     -33.952  39.782 -52.963  1.00  0.00     0.073 C 
ENDBRANCH   1  16
TORSDOF 3
ENDMDL
MODEL 9
REMARK VINA RESULT:      -8.4      2.590      9.603
REMARK  3 active torsions:
REMARK  status: ('A' for Active; 'I' for Inactive)
REMARK    1  A    between atoms: C_5  and  C_6 
REMARK    2  A    between atoms: C_10  and  N_11 
REMARK    3  A    between atoms: N_11  and  N_12 
ROOT
HETATM    1  N   UNL     1     -42.761  57.844 -55.716  1.00  0.00    -0.261 N 
HETATM    2  H   UNL     1     -42.830  56.959 -56.225  1.00  0.00     0.191 HD
ENDROOT
BRANCH   1   3
HETATM    3  C   UNL     1     -42.446  58.962 -56.421  1.00  0.00     0.140 A 
HETATM    4  N   UNL     1     -42.688  60.209 -55.924  1.00  0.00    -0.261 N 
HETATM    5  N   UNL     1     -42.313  61.208 -56.733  1.00  0.00    -0.172 NA
HETATM    6  H   UNL     1     -43.113  60.452 -55.039  1.00  0.00     0.191 HD
HETATM    7  C   UNL     1     -41.795  60.595 -57.814  1.00  0.00     0.090 A 
HETATM    8  C   UNL     1     -41.874  59.178 -57.656  1.00  0.00     0.085 A 
BRANCH   7   9
HETATM    9  C   UNL     1     -41.232  61.377 -58.929  1.00  0.00    -0.006 A 
HETATM   10  C   UNL     1     -40.183  62.283 -58.695  1.00  0.00     0.014 A 
HETATM   11  C   UNL     1     -39.587  62.994 -59.743  1.00  0.00     0.007 A 
HETATM   12  C   UNL     1     -40.030  62.819 -61.056  1.00  0.00    -0.062 A 
HETATM   13  C   UNL     1     -39.365  63.537 -62.194  1.00  0.00     0.048 C 
HETATM   14  C   UNL     1     -41.090  61.937 -61.298  1.00  0.00     0.007 A 
HETATM   15  C   UNL     1     -41.686  61.225 -60.246  1.00  0.00     0.014 A 
ENDBRANCH   7   9
ENDBRANCH   1   3
BRANCH   1  16
HETATM   16  N   UNL     1     -42.458  57.759 -54.386  1.00  0.00    -0.166 NA
HETATM   17  C   UNL     1     -42.128  56.598 -53.891  1.00  0.00     0.169 C 
HETATM   18  C   UNL     1     -41.683  56.496 -52.444  1.00  0.00     0.278 C 
HETATM   19  C   UNL     1     -42.184  55.330 -54.668  1.00  0.00     0.067 C 
HETATM   20  O   UNL     1     -41.898  57.425 -51.671  1.00  0.00    -0.265 OA
HETATM   21  N   UNL     1     -41.108  55.334 -51.964  1.00  0.00    -0.319 N 
HETATM   22  C   UNL     1     -40.678  54.126 -52.573  1.00  0.00     0.064 A 
HETATM   23  H   UNL     1     -40.960  55.404 -50.963  1.00  0.00     0.169 HD
HETATM   24  C   UNL     1     -40.633  53.868 -53.965  1.00  0.00     0.084 A 
HETATM   25  C   UNL     1     -40.251  53.120 -51.690  1.00  0.00     0.032 A 
HETATM   26  C   UNL     1     -40.137  52.642 -54.426  1.00  0.00     0.034 A 
HETATM   27  N   UNL     1     -41.026  54.815 -54.926  1.00  0.00    -0.249 NA
HETATM   28  C   UNL     1     -39.720  51.656 -53.533  1.00  0.00     0.002 A 
HETATM   29  C   UNL     1     -39.785  51.892 -52.164  1.00  0.00     0.002 A 
HETATM   30  C   UNL     1     -43.476  54.570 -54.629  1.00  0.00     0.073 C 
ENDBRANCH   1  16
TORSDOF 3
ENDMDL
MODEL 10
REMARK VINA RESULT:      -8.4      2.082      2.888
REMARK  3 active torsions:
REMARK  status: ('A' for Active; 'I' for Inactive)
REMARK    1  A    between atoms: C_5  and  C_6 
REMARK    2  A    between atoms: C_10  and  N_11 
REMARK    3  A    between atoms: N_11  and  N_12 
ROOT
HETATM    1  N   UNL     1     -42.828  57.141 -55.086  1.00  0.00    -0.261 N 
HETATM    2  H   UNL     1     -43.504  57.451 -54.383  1.00  0.00     0.191 HD
ENDROOT
BRANCH   1   3
HETATM    3  C   UNL     1     -42.129  56.003 -54.841  1.00  0.00     0.140 A 
HETATM    4  N   UNL     1     -41.371  55.410 -55.807  1.00  0.00    -0.261 N 
HETATM    5  N   UNL     1     -40.735  54.301 -55.408  1.00  0.00    -0.172 NA
HETATM    6  H   UNL     1     -41.246  55.707 -56.767  1.00  0.00     0.191 HD
HETATM    7  C   UNL     1     -41.086  54.154 -54.116  1.00  0.00     0.090 A 
HETATM    8  C   UNL     1     -41.973  55.203 -53.730  1.00  0.00     0.085 A 
BRANCH   7   9
HETATM    9  C   UNL     1     -40.547  53.046 -53.308  1.00  0.00    -0.006 A 
HETATM   10  C   UNL     1     -40.543  53.133 -51.905  1.00  0.00     0.014 A 
HETATM   11  C   UNL     1     -40.094  52.072 -51.111  1.00  0.00     0.007 A 
HETATM   12  C   UNL     1     -39.631  50.895 -51.701  1.00  0.00    -0.062 A 
HETATM   13  C   UNL     1     -39.195  49.731 -50.859  1.00  0.00     0.048 C 
HETATM   14  C   UNL     1     -39.608  50.805 -53.099  1.00  0.00     0.007 A 
HETATM   15  C   UNL     1     -40.059  51.870 -53.893  1.00  0.00     0.014 A 
ENDBRANCH   7   9
ENDBRANCH   1   3
BRANCH   1  16
HETATM   16  N   UNL     1     -42.306  58.111 -55.896  1.00  0.00    -0.166 NA
HETATM   17  C   UNL     1     -42.898  58.367 -57.030  1.00  0.00     0.169 C 
HETATM   18  C   UNL     1     -42.402  59.511 -57.895  1.00  0.00     0.278 C 
HETATM   19  C   UNL     1     -44.042  57.575 -57.553  1.00  0.00     0.067 C 
HETATM   20  O   UNL     1     -41.300  60.005 -57.683  1.00  0.00    -0.265 OA
HETATM   21  N   UNL     1     -43.147  59.952 -58.974  1.00  0.00    -0.319 N 
HETATM   22  C   UNL     1     -44.447  59.651 -59.459  1.00  0.00     0.064 A 
HETATM   23  H   UNL     1     -42.629  60.652 -59.494  1.00  0.00     0.169 HD
HETATM   24  C   UNL     1     -45.407  58.836 -58.812  1.00  0.00     0.084 A 
HETATM   25  C   UNL     1     -44.786  60.240 -60.688  1.00  0.00     0.032 A 
HETATM   26  C   UNL     1     -46.673  58.667 -59.387  1.00  0.00     0.034 A 
HETATM   27  N   UNL     1     -45.166  58.215 -57.574  1.00  0.00    -0.249 NA
HETATM   28  C   UNL     1     -46.989  59.260 -60.608  1.00  0.00     0.002 A 
HETATM   29  C   UNL     1     -46.043  60.040 -61.263  1.00  0.00     0.002 A 
HETATM   30  C   UNL     1     -43.708  56.393 -58.414  1.00  0.00     0.073 C 
ENDBRANCH   1  16
TORSDOF 3
ENDMDL
