MODEL 1
REMARK VINA RESULT:      -7.8      0.000      0.000
REMARK  7 active torsions:
REMARK  status: ('A' for Active; 'I' for Inactive)
REMARK    1  A    between atoms: C_6  and  N_7 
REMARK       I    between atoms: N_7  and  C_8 
REMARK       I    between atoms: C_8  and  N_9 
REMARK    2  A    between atoms: N_9  and  C_10 
REMARK    3  A    between atoms: C_10  and  C_11 
REMARK    4  A    between atoms: C_11  and  C_12 
REMARK    5  A    between atoms: C_12  and  C_13 
REMARK    6  A    between atoms: C_13  and  O_14 
REMARK    7  A    between atoms: O_14  and  C_15 
ROOT
HETATM    1  C   UNL     1     -42.482  56.832 -56.831  1.00  0.00     0.219 C 
ENDROOT
BRANCH   1   2
HETATM    2  N   UNL     1     -43.292  55.818 -56.201  1.00  0.00    -0.332 N 
HETATM    3  C   UNL     1     -42.975  54.771 -55.394  1.00  0.00     0.321 C 
HETATM    4  N   UNL     1     -41.645  54.541 -55.186  1.00  0.00    -0.309 N 
HETATM    5  O   UNL     1     -43.909  54.135 -54.916  1.00  0.00    -0.247 OA
HETATM    6  H   UNL     1     -41.001  55.047 -55.769  1.00  0.00     0.170 HD
HETATM    7  H   UNL     1     -44.293  55.900 -56.321  1.00  0.00     0.165 HD
BRANCH   4   8
HETATM    8  C   UNL     1     -41.054  53.571 -54.347  1.00  0.00     0.036 A 
HETATM    9  C   UNL     1     -40.709  52.282 -54.756  1.00  0.00     0.037 A 
HETATM   10  C   UNL     1     -40.116  51.364 -53.867  1.00  0.00    -0.054 A 
HETATM   11  C   UNL     1     -39.854  51.754 -52.541  1.00  0.00    -0.056 A 
HETATM   12  C   UNL     1     -39.729  50.003 -54.380  1.00  0.00     0.049 C 
HETATM   13  C   UNL     1     -39.213  50.817 -51.555  1.00  0.00     0.049 C 
HETATM   14  C   UNL     1     -40.218  53.043 -52.128  1.00  0.00     0.009 A 
HETATM   15  C   UNL     1     -40.807  53.940 -53.022  1.00  0.00     0.030 A 
ENDBRANCH   4   8
ENDBRANCH   1   2
BRANCH   1  16
HETATM   16  C   UNL     1     -42.353  58.015 -55.885  1.00  0.00    -0.085 C 
BRANCH  16  17
HETATM   17  C   UNL     1     -42.242  59.030 -55.074  1.00  0.00    -0.078 C 
BRANCH  17  18
HETATM   18  C   UNL     1     -42.111  60.212 -54.128  1.00  0.00     0.269 C 
BRANCH  18  19
HETATM   19  O   UNL     1     -42.836  59.953 -52.930  1.00  0.00    -0.339 OA
BRANCH  19  20
HETATM   20  C   UNL     1     -42.318  58.985 -52.112  1.00  0.00     0.072 A 
HETATM   21  C   UNL     1     -43.126  57.856 -51.945  1.00  0.00     0.069 A 
HETATM   22  C   UNL     1     -42.740  56.783 -51.152  1.00  0.00     0.069 A 
HETATM   23  C   UNL     1     -41.482  56.841 -50.516  1.00  0.00    -0.007 A 
HETATM   24  N   UNL     1     -43.564  55.729 -51.007  1.00  0.00    -0.260 NA
HETATM   25  C   UNL     1     -40.656  57.962 -50.692  1.00  0.00     0.016 A 
HETATM   26  C   UNL     1     -41.091  55.759 -49.719  1.00  0.00     0.015 A 
HETATM   27  C   UNL     1     -41.074  59.031 -51.486  1.00  0.00     0.038 A 
HETATM   28  C   UNL     1     -41.942  54.671 -49.570  1.00  0.00     0.020 A 
HETATM   29  C   UNL     1     -43.156  54.704 -50.226  1.00  0.00     0.117 A 
ENDBRANCH  19  20
ENDBRANCH  18  19
ENDBRANCH  17  18
ENDBRANCH  16  17
ENDBRANCH   1  16
TORSDOF 7
ENDMDL
MODEL 2
REMARK VINA RESULT:      -7.6      2.038      5.542
REMARK  7 active torsions:
REMARK  status: ('A' for Active; 'I' for Inactive)
REMARK    1  A    between atoms: C_6  and  N_7 
REMARK       I    between atoms: N_7  and  C_8 
REMARK       I    between atoms: C_8  and  N_9 
REMARK    2  A    between atoms: N_9  and  C_10 
REMARK    3  A    between atoms: C_10  and  C_11 
REMARK    4  A    between atoms: C_11  and  C_12 
REMARK    5  A    between atoms: C_12  and  C_13 
REMARK    6  A    between atoms: C_13  and  O_14 
REMARK    7  A    between atoms: O_14  and  C_15 
ROOT
HETATM    1  C   UNL     1     -41.290  57.676 -50.582  1.00  0.00     0.219 C 
ENDROOT
BRANCH   1   2
HETATM    2  N   UNL     1     -42.091  56.497 -50.358  1.00  0.00    -0.332 N 
HETATM    3  C   UNL     1     -41.977  55.220 -50.809  1.00  0.00     0.321 C 
HETATM    4  N   UNL     1     -40.988  54.980 -51.720  1.00  0.00    -0.309 N 
HETATM    5  O   UNL     1     -42.762  54.396 -50.351  1.00  0.00    -0.247 OA
HETATM    6  H   UNL     1     -40.531  55.783 -52.114  1.00  0.00     0.170 HD
HETATM    7  H   UNL     1     -42.862  56.591 -49.709  1.00  0.00     0.165 HD
BRANCH   4   8
HETATM    8  C   UNL     1     -40.616  53.743 -52.290  1.00  0.00     0.036 A 
HETATM    9  C   UNL     1     -40.172  52.641 -51.557  1.00  0.00     0.037 A 
HETATM   10  C   UNL     1     -39.823  51.432 -52.190  1.00  0.00    -0.054 A 
HETATM   11  C   UNL     1     -39.932  51.324 -53.589  1.00  0.00    -0.056 A 
HETATM   12  C   UNL     1     -39.392  50.266 -51.340  1.00  0.00     0.049 C 
HETATM   13  C   UNL     1     -39.582  50.054 -54.313  1.00  0.00     0.049 C 
HETATM   14  C   UNL     1     -40.359  52.438 -54.323  1.00  0.00     0.009 A 
HETATM   15  C   UNL     1     -40.700  53.631 -53.680  1.00  0.00     0.030 A 
ENDBRANCH   4   8
ENDBRANCH   1   2
BRANCH   1  16
HETATM   16  C   UNL     1     -41.730  58.329 -51.882  1.00  0.00    -0.085 C 
BRANCH  16  17
HETATM   17  C   UNL     1     -42.106  58.888 -52.998  1.00  0.00    -0.078 C 
BRANCH  17  18
HETATM   18  C   UNL     1     -42.544  59.541 -54.299  1.00  0.00     0.269 C 
BRANCH  18  19
HETATM   19  O   UNL     1     -41.695  59.117 -55.360  1.00  0.00    -0.339 OA
BRANCH  19  20
HETATM   20  C   UNL     1     -42.171  58.093 -56.137  1.00  0.00     0.072 A 
HETATM   21  C   UNL     1     -42.571  58.463 -57.424  1.00  0.00     0.069 A 
HETATM   22  C   UNL     1     -43.069  57.541 -58.335  1.00  0.00     0.069 A 
HETATM   23  C   UNL     1     -43.151  56.190 -57.940  1.00  0.00    -0.007 A 
HETATM   24  N   UNL     1     -43.461  57.953 -59.555  1.00  0.00    -0.260 NA
HETATM   25  C   UNL     1     -42.735  55.805 -56.657  1.00  0.00     0.016 A 
HETATM   26  C   UNL     1     -43.650  55.259 -58.860  1.00  0.00     0.015 A 
HETATM   27  C   UNL     1     -42.249  56.755 -55.757  1.00  0.00     0.038 A 
HETATM   28  C   UNL     1     -44.054  55.684 -60.119  1.00  0.00     0.020 A 
HETATM   29  C   UNL     1     -43.942  57.029 -60.415  1.00  0.00     0.117 A 
ENDBRANCH  19  20
ENDBRANCH  18  19
ENDBRANCH  17  18
ENDBRANCH  16  17
ENDBRANCH   1  16
TORSDOF 7
ENDMDL
MODEL 3
REMARK VINA RESULT:      -7.5      1.785      5.318
REMARK  7 active torsions:
REMARK  status: ('A' for Active; 'I' for Inactive)
REMARK    1  A    between atoms: C_6  and  N_7 
REMARK       I    between atoms: N_7  and  C_8 
REMARK       I    between atoms: C_8  and  N_9 
REMARK    2  A    between atoms: N_9  and  C_10 
REMARK    3  A    between atoms: C_10  and  C_11 
REMARK    4  A    between atoms: C_11  and  C_12 
REMARK    5  A    between atoms: C_12  and  C_13 
REMARK    6  A    between atoms: C_13  and  O_14 
REMARK    7  A    between atoms: O_14  and  C_15 
ROOT
HETATM    1  C   UNL     1     -41.285  57.448 -50.531  1.00  0.00     0.219 C 
ENDROOT
BRANCH   1   2
HETATM    2  N   UNL     1     -42.226  56.358 -50.617  1.00  0.00    -0.332 N 
HETATM    3  C   UNL     1     -42.119  55.101 -51.125  1.00  0.00     0.321 C 
HETATM    4  N   UNL     1     -40.951  54.799 -51.765  1.00  0.00    -0.309 N 
HETATM    5  O   UNL     1     -43.073  54.349 -50.953  1.00  0.00    -0.247 OA
HETATM    6  H   UNL     1     -40.331  55.565 -51.962  1.00  0.00     0.170 HD
HETATM    7  H   UNL     1     -43.129  56.504 -50.184  1.00  0.00     0.165 HD
BRANCH   4   8
HETATM    8  C   UNL     1     -40.561  53.560 -52.317  1.00  0.00     0.036 A 
HETATM    9  C   UNL     1     -40.159  52.454 -51.565  1.00  0.00     0.037 A 
HETATM   10  C   UNL     1     -39.789  51.243 -52.182  1.00  0.00    -0.054 A 
HETATM   11  C   UNL     1     -39.834  51.136 -53.584  1.00  0.00    -0.056 A 
HETATM   12  C   UNL     1     -39.404  50.074 -51.313  1.00  0.00     0.049 C 
HETATM   13  C   UNL     1     -39.459  49.863 -54.291  1.00  0.00     0.049 C 
HETATM   14  C   UNL     1     -40.220  52.253 -54.337  1.00  0.00     0.009 A 
HETATM   15  C   UNL     1     -40.582  53.448 -53.711  1.00  0.00     0.030 A 
ENDBRANCH   4   8
ENDBRANCH   1   2
BRANCH   1  16
HETATM   16  C   UNL     1     -41.571  58.433 -51.653  1.00  0.00    -0.085 C 
BRANCH  16  17
HETATM   17  C   UNL     1     -41.816  59.278 -52.616  1.00  0.00    -0.078 C 
BRANCH  17  18
HETATM   18  C   UNL     1     -42.102  60.262 -53.738  1.00  0.00     0.269 C 
BRANCH  18  19
HETATM   19  O   UNL     1     -43.139  59.755 -54.571  1.00  0.00    -0.339 OA
BRANCH  19  20
HETATM   20  C   UNL     1     -42.768  59.396 -55.840  1.00  0.00     0.072 A 
HETATM   21  C   UNL     1     -43.179  58.120 -56.239  1.00  0.00     0.069 A 
HETATM   22  C   UNL     1     -42.887  57.611 -57.498  1.00  0.00     0.069 A 
HETATM   23  C   UNL     1     -42.169  58.426 -58.398  1.00  0.00    -0.007 A 
HETATM   24  N   UNL     1     -43.287  56.368 -57.824  1.00  0.00    -0.260 NA
HETATM   25  C   UNL     1     -41.768  59.714 -58.014  1.00  0.00     0.016 A 
HETATM   26  C   UNL     1     -41.879  57.914 -59.668  1.00  0.00     0.015 A 
HETATM   27  C   UNL     1     -42.065  60.196 -56.738  1.00  0.00     0.038 A 
HETATM   28  C   UNL     1     -42.292  56.632 -60.005  1.00  0.00     0.020 A 
HETATM   29  C   UNL     1     -42.985  55.905 -59.057  1.00  0.00     0.117 A 
ENDBRANCH  19  20
ENDBRANCH  18  19
ENDBRANCH  17  18
ENDBRANCH  16  17
ENDBRANCH   1  16
TORSDOF 7
ENDMDL
MODEL 4
REMARK VINA RESULT:      -7.3      3.791      4.886
REMARK  7 active torsions:
REMARK  status: ('A' for Active; 'I' for Inactive)
REMARK    1  A    between atoms: C_6  and  N_7 
REMARK       I    between atoms: N_7  and  C_8 
REMARK       I    between atoms: C_8  and  N_9 
REMARK    2  A    between atoms: N_9  and  C_10 
REMARK    3  A    between atoms: C_10  and  C_11 
REMARK    4  A    between atoms: C_11  and  C_12 
REMARK    5  A    between atoms: C_12  and  C_13 
REMARK    6  A    between atoms: C_13  and  O_14 
REMARK    7  A    between atoms: O_14  and  C_15 
ROOT
HETATM    1  C   UNL     1     -41.170  57.602 -50.578  1.00  0.00     0.219 C 
ENDROOT
BRANCH   1   2
HETATM    2  N   UNL     1     -42.035  56.457 -50.427  1.00  0.00    -0.332 N 
HETATM    3  C   UNL     1     -41.945  55.181 -50.889  1.00  0.00     0.321 C 
HETATM    4  N   UNL     1     -40.908  54.910 -51.735  1.00  0.00    -0.309 N 
HETATM    5  O   UNL     1     -42.795  54.388 -50.497  1.00  0.00    -0.247 OA
HETATM    6  H   UNL     1     -40.391  55.697 -52.085  1.00  0.00     0.170 HD
HETATM    7  H   UNL     1     -42.843  56.576 -49.829  1.00  0.00     0.165 HD
BRANCH   4   8
HETATM    8  C   UNL     1     -40.552  53.665 -52.298  1.00  0.00     0.036 A 
HETATM    9  C   UNL     1     -40.113  52.564 -51.560  1.00  0.00     0.037 A 
HETATM   10  C   UNL     1     -39.780  51.347 -52.187  1.00  0.00    -0.054 A 
HETATM   11  C   UNL     1     -39.900  51.230 -53.584  1.00  0.00    -0.056 A 
HETATM   12  C   UNL     1     -39.352  50.184 -51.331  1.00  0.00     0.049 C 
HETATM   13  C   UNL     1     -39.568  49.951 -54.300  1.00  0.00     0.049 C 
HETATM   14  C   UNL     1     -40.324  52.342 -54.323  1.00  0.00     0.009 A 
HETATM   15  C   UNL     1     -40.648  53.543 -53.687  1.00  0.00     0.030 A 
ENDBRANCH   4   8
ENDBRANCH   1   2
BRANCH   1  16
HETATM   16  C   UNL     1     -41.943  58.712 -51.271  1.00  0.00    -0.085 C 
BRANCH  16  17
HETATM   17  C   UNL     1     -42.605  59.664 -51.867  1.00  0.00    -0.078 C 
BRANCH  17  18
HETATM   18  C   UNL     1     -43.378  60.774 -52.561  1.00  0.00     0.269 C 
BRANCH  18  19
HETATM   19  O   UNL     1     -44.677  60.887 -51.990  1.00  0.00    -0.339 OA
BRANCH  19  20
HETATM   20  C   UNL     1     -44.734  61.422 -50.730  1.00  0.00     0.072 A 
HETATM   21  C   UNL     1     -45.342  60.608 -49.768  1.00  0.00     0.069 A 
HETATM   22  C   UNL     1     -45.472  61.004 -48.443  1.00  0.00     0.069 A 
HETATM   23  C   UNL     1     -44.952  62.260 -48.067  1.00  0.00    -0.007 A 
HETATM   24  N   UNL     1     -46.086  60.192 -47.562  1.00  0.00    -0.260 NA
HETATM   25  C   UNL     1     -44.324  63.075 -49.020  1.00  0.00     0.016 A 
HETATM   26  C   UNL     1     -45.080  62.657 -46.731  1.00  0.00     0.015 A 
HETATM   27  C   UNL     1     -44.217  62.658 -50.348  1.00  0.00     0.038 A 
HETATM   28  C   UNL     1     -45.713  61.819 -45.821  1.00  0.00     0.020 A 
HETATM   29  C   UNL     1     -46.195  60.610 -46.282  1.00  0.00     0.117 A 
ENDBRANCH  19  20
ENDBRANCH  18  19
ENDBRANCH  17  18
ENDBRANCH  16  17
ENDBRANCH   1  16
TORSDOF 7
ENDMDL
MODEL 5
REMARK VINA RESULT:      -7.3      2.511      6.010
REMARK  7 active torsions:
REMARK  status: ('A' for Active; 'I' for Inactive)
REMARK    1  A    between atoms: C_6  and  N_7 
REMARK       I    between atoms: N_7  and  C_8 
REMARK       I    between atoms: C_8  and  N_9 
REMARK    2  A    between atoms: N_9  and  C_10 
REMARK    3  A    between atoms: C_10  and  C_11 
REMARK    4  A    between atoms: C_11  and  C_12 
REMARK    5  A    between atoms: C_12  and  C_13 
REMARK    6  A    between atoms: C_13  and  O_14 
REMARK    7  A    between atoms: O_14  and  C_15 
ROOT
HETATM    1  C   UNL     1     -42.785  60.641 -53.541  1.00  0.00     0.219 C 
ENDROOT
BRANCH   1   2
HETATM    2  N   UNL     1     -42.077  60.635 -54.798  1.00  0.00    -0.332 N 
HETATM    3  C   UNL     1     -42.185  59.847 -55.900  1.00  0.00     0.321 C 
HETATM    4  N   UNL     1     -43.048  58.792 -55.814  1.00  0.00    -0.309 N 
HETATM    5  O   UNL     1     -41.508  60.159 -56.875  1.00  0.00    -0.247 OA
HETATM    6  H   UNL     1     -43.409  58.576 -54.902  1.00  0.00     0.170 HD
HETATM    7  H   UNL     1     -41.399  61.374 -54.939  1.00  0.00     0.165 HD
BRANCH   4   8
HETATM    8  C   UNL     1     -43.392  57.870 -56.826  1.00  0.00     0.036 A 
HETATM    9  C   UNL     1     -44.349  58.107 -57.815  1.00  0.00     0.037 A 
HETATM   10  C   UNL     1     -44.640  57.144 -58.800  1.00  0.00    -0.054 A 
HETATM   11  C   UNL     1     -43.947  55.919 -58.799  1.00  0.00    -0.056 A 
HETATM   12  C   UNL     1     -45.652  57.476 -59.865  1.00  0.00     0.049 C 
HETATM   13  C   UNL     1     -44.212  54.861 -59.834  1.00  0.00     0.049 C 
HETATM   14  C   UNL     1     -43.001  55.676 -57.794  1.00  0.00     0.009 A 
HETATM   15  C   UNL     1     -42.726  56.641 -56.822  1.00  0.00     0.030 A 
ENDBRANCH   4   8
ENDBRANCH   1   2
BRANCH   1  16
HETATM   16  C   UNL     1     -42.151  59.615 -52.616  1.00  0.00    -0.085 C 
BRANCH  16  17
HETATM   17  C   UNL     1     -41.606  58.735 -51.822  1.00  0.00    -0.078 C 
BRANCH  17  18
HETATM   18  C   UNL     1     -40.973  57.708 -50.898  1.00  0.00     0.269 C 
BRANCH  18  19
HETATM   19  O   UNL     1     -41.750  56.516 -50.898  1.00  0.00    -0.339 OA
BRANCH  19  20
HETATM   20  C   UNL     1     -41.395  55.568 -51.821  1.00  0.00     0.072 A 
HETATM   21  C   UNL     1     -40.833  54.404 -51.288  1.00  0.00     0.069 A 
HETATM   22  C   UNL     1     -40.426  53.346 -52.092  1.00  0.00     0.069 A 
HETATM   23  C   UNL     1     -40.609  53.458 -53.486  1.00  0.00    -0.007 A 
HETATM   24  N   UNL     1     -39.871  52.257 -51.530  1.00  0.00    -0.260 NA
HETATM   25  C   UNL     1     -41.189  54.614 -54.029  1.00  0.00     0.016 A 
HETATM   26  C   UNL     1     -40.203  52.391 -54.295  1.00  0.00     0.015 A 
HETATM   27  C   UNL     1     -41.578  55.667 -53.199  1.00  0.00     0.038 A 
HETATM   28  C   UNL     1     -39.630  51.266 -53.716  1.00  0.00     0.020 A 
HETATM   29  C   UNL     1     -39.486  51.248 -52.343  1.00  0.00     0.117 A 
ENDBRANCH  19  20
ENDBRANCH  18  19
ENDBRANCH  17  18
ENDBRANCH  16  17
ENDBRANCH   1  16
TORSDOF 7
ENDMDL
MODEL 6
REMARK VINA RESULT:      -7.2      2.548      5.884
REMARK  7 active torsions:
REMARK  status: ('A' for Active; 'I' for Inactive)
REMARK    1  A    between atoms: C_6  and  N_7 
REMARK       I    between atoms: N_7  and  C_8 
REMARK       I    between atoms: C_8  and  N_9 
REMARK    2  A    between atoms: N_9  and  C_10 
REMARK    3  A    between atoms: C_10  and  C_11 
REMARK    4  A    between atoms: C_11  and  C_12 
REMARK    5  A    between atoms: C_12  and  C_13 
REMARK    6  A    between atoms: C_13  and  O_14 
REMARK    7  A    between atoms: O_14  and  C_15 
ROOT
HETATM    1  C   UNL     1     -41.684  58.774 -52.801  1.00  0.00     0.219 C 
ENDROOT
BRANCH   1   2
HETATM    2  N   UNL     1     -42.636  57.694 -52.700  1.00  0.00    -0.332 N 
HETATM    3  C   UNL     1     -42.499  56.346 -52.812  1.00  0.00     0.321 C 
HETATM    4  N   UNL     1     -41.265  55.886 -53.176  1.00  0.00    -0.309 N 
HETATM    5  O   UNL     1     -43.488  55.665 -52.564  1.00  0.00    -0.247 OA
HETATM    6  H   UNL     1     -40.603  56.570 -53.496  1.00  0.00     0.170 HD
HETATM    7  H   UNL     1     -43.583  57.949 -52.453  1.00  0.00     0.165 HD
BRANCH   4   8
HETATM    8  C   UNL     1     -40.843  54.544 -53.296  1.00  0.00     0.036 A 
HETATM    9  C   UNL     1     -40.509  53.725 -52.216  1.00  0.00     0.037 A 
HETATM   10  C   UNL     1     -40.100  52.390 -52.407  1.00  0.00    -0.054 A 
HETATM   11  C   UNL     1     -40.034  51.865 -53.711  1.00  0.00    -0.056 A 
HETATM   12  C   UNL     1     -39.795  51.545 -51.200  1.00  0.00     0.049 C 
HETATM   13  C   UNL     1     -39.614  50.445 -53.969  1.00  0.00     0.049 C 
HETATM   14  C   UNL     1     -40.351  52.696 -54.794  1.00  0.00     0.009 A 
HETATM   15  C   UNL     1     -40.753  54.017 -54.588  1.00  0.00     0.030 A 
ENDBRANCH   4   8
ENDBRANCH   1   2
BRANCH   1  16
HETATM   16  C   UNL     1     -41.821  59.424 -54.168  1.00  0.00    -0.085 C 
BRANCH  16  17
HETATM   17  C   UNL     1     -41.938  59.981 -55.341  1.00  0.00    -0.078 C 
BRANCH  17  18
HETATM   18  C   UNL     1     -42.076  60.631 -56.708  1.00  0.00     0.269 C 
BRANCH  18  19
HETATM   19  O   UNL     1     -41.399  59.846 -57.684  1.00  0.00    -0.339 OA
BRANCH  19  20
HETATM   20  C   UNL     1     -42.194  59.079 -58.495  1.00  0.00     0.072 A 
HETATM   21  C   UNL     1     -42.340  57.748 -58.093  1.00  0.00     0.069 A 
HETATM   22  C   UNL     1     -43.119  56.844 -58.804  1.00  0.00     0.069 A 
HETATM   23  C   UNL     1     -43.792  57.303 -59.955  1.00  0.00    -0.007 A 
HETATM   24  N   UNL     1     -43.209  55.568 -58.386  1.00  0.00    -0.260 NA
HETATM   25  C   UNL     1     -43.667  58.642 -60.356  1.00  0.00     0.016 A 
HETATM   26  C   UNL     1     -44.580  56.393 -60.669  1.00  0.00     0.015 A 
HETATM   27  C   UNL     1     -42.868  59.526 -59.629  1.00  0.00     0.038 A 
HETATM   28  C   UNL     1     -44.674  55.076 -60.238  1.00  0.00     0.020 A 
HETATM   29  C   UNL     1     -43.975  54.716 -59.103  1.00  0.00     0.117 A 
ENDBRANCH  19  20
ENDBRANCH  18  19
ENDBRANCH  17  18
ENDBRANCH  16  17
ENDBRANCH   1  16
TORSDOF 7
ENDMDL
MODEL 7
REMARK VINA RESULT:      -7.1      3.211      6.366
REMARK  7 active torsions:
REMARK  status: ('A' for Active; 'I' for Inactive)
REMARK    1  A    between atoms: C_6  and  N_7 
REMARK       I    between atoms: N_7  and  C_8 
REMARK       I    between atoms: C_8  and  N_9 
REMARK    2  A    between atoms: N_9  and  C_10 
REMARK    3  A    between atoms: C_10  and  C_11 
REMARK    4  A    between atoms: C_11  and  C_12 
REMARK    5  A    between atoms: C_12  and  C_13 
REMARK    6  A    between atoms: C_13  and  O_14 
REMARK    7  A    between atoms: O_14  and  C_15 
ROOT
HETATM    1  C   UNL     1     -42.329  57.858 -53.892  1.00  0.00     0.219 C 
ENDROOT
BRANCH   1   2
HETATM    2  N   UNL     1     -43.100  56.641 -53.974  1.00  0.00    -0.332 N 
HETATM    3  C   UNL     1     -42.791  55.348 -53.692  1.00  0.00     0.321 C 
HETATM    4  N   UNL     1     -41.494  55.090 -53.351  1.00  0.00    -0.309 N 
HETATM    5  O   UNL     1     -43.705  54.532 -53.757  1.00  0.00    -0.247 OA
HETATM    6  H   UNL     1     -40.832  55.832 -53.495  1.00  0.00     0.170 HD
HETATM    7  H   UNL     1     -44.071  56.739 -54.240  1.00  0.00     0.165 HD
BRANCH   4   8
HETATM    8  C   UNL     1     -40.932  53.858 -52.952  1.00  0.00     0.036 A 
HETATM    9  C   UNL     1     -40.664  52.797 -53.819  1.00  0.00     0.037 A 
HETATM   10  C   UNL     1     -40.096  51.595 -53.354  1.00  0.00    -0.054 A 
HETATM   11  C   UNL     1     -39.780  51.459 -51.989  1.00  0.00    -0.056 A 
HETATM   12  C   UNL     1     -39.792  50.503 -54.346  1.00  0.00     0.049 C 
HETATM   13  C   UNL     1     -39.163  50.202 -51.443  1.00  0.00     0.049 C 
HETATM   14  C   UNL     1     -40.067  52.518 -51.118  1.00  0.00     0.009 A 
HETATM   15  C   UNL     1     -40.633  53.703 -51.595  1.00  0.00     0.030 A 
ENDBRANCH   4   8
ENDBRANCH   1   2
BRANCH   1  16
HETATM   16  C   UNL     1     -42.220  58.465 -55.281  1.00  0.00    -0.085 C 
BRANCH  16  17
HETATM   17  C   UNL     1     -42.128  58.986 -56.473  1.00  0.00    -0.078 C 
BRANCH  17  18
HETATM   18  C   UNL     1     -42.019  59.595 -57.862  1.00  0.00     0.269 C 
BRANCH  18  19
HETATM   19  O   UNL     1     -41.712  58.578 -58.810  1.00  0.00    -0.339 OA
BRANCH  19  20
HETATM   20  C   UNL     1     -42.756  57.776 -59.190  1.00  0.00     0.072 A 
HETATM   21  C   UNL     1     -43.901  58.457 -59.613  1.00  0.00     0.069 A 
HETATM   22  C   UNL     1     -45.043  57.788 -60.036  1.00  0.00     0.069 A 
HETATM   23  C   UNL     1     -45.023  56.378 -60.051  1.00  0.00    -0.007 A 
HETATM   24  N   UNL     1     -46.127  58.492 -60.412  1.00  0.00    -0.260 NA
HETATM   25  C   UNL     1     -43.873  55.686 -59.646  1.00  0.00     0.016 A 
HETATM   26  C   UNL     1     -46.173  55.704 -60.481  1.00  0.00     0.015 A 
HETATM   27  C   UNL     1     -42.743  56.384 -59.214  1.00  0.00     0.038 A 
HETATM   28  C   UNL     1     -47.292  56.429 -60.870  1.00  0.00     0.020 A 
HETATM   29  C   UNL     1     -47.220  57.807 -60.817  1.00  0.00     0.117 A 
ENDBRANCH  19  20
ENDBRANCH  18  19
ENDBRANCH  17  18
ENDBRANCH  16  17
ENDBRANCH   1  16
TORSDOF 7
ENDMDL
MODEL 8
REMARK VINA RESULT:      -7.1      2.673      6.130
REMARK  7 active torsions:
REMARK  status: ('A' for Active; 'I' for Inactive)
REMARK    1  A    between atoms: C_6  and  N_7 
REMARK       I    between atoms: N_7  and  C_8 
REMARK       I    between atoms: C_8  and  N_9 
REMARK    2  A    between atoms: N_9  and  C_10 
REMARK    3  A    between atoms: C_10  and  C_11 
REMARK    4  A    between atoms: C_11  and  C_12 
REMARK    5  A    between atoms: C_12  and  C_13 
REMARK    6  A    between atoms: C_13  and  O_14 
REMARK    7  A    between atoms: O_14  and  C_15 
ROOT
HETATM    1  C   UNL     1     -44.878  58.591 -51.343  1.00  0.00     0.219 C 
ENDROOT
BRANCH   1   2
HETATM    2  N   UNL     1     -43.499  58.500 -50.931  1.00  0.00    -0.332 N 
HETATM    3  C   UNL     1     -42.543  57.559 -51.155  1.00  0.00     0.321 C 
HETATM    4  N   UNL     1     -42.940  56.429 -51.810  1.00  0.00    -0.309 N 
HETATM    5  O   UNL     1     -41.410  57.815 -50.761  1.00  0.00    -0.247 OA
HETATM    6  H   UNL     1     -43.929  56.298 -51.929  1.00  0.00     0.170 HD
HETATM    7  H   UNL     1     -43.127  59.289 -50.420  1.00  0.00     0.165 HD
BRANCH   4   8
HETATM    8  C   UNL     1     -42.140  55.341 -52.222  1.00  0.00     0.036 A 
HETATM    9  C   UNL     1     -41.587  55.209 -53.497  1.00  0.00     0.037 A 
HETATM   10  C   UNL     1     -40.792  54.098 -53.841  1.00  0.00    -0.054 A 
HETATM   11  C   UNL     1     -40.538  53.103 -52.879  1.00  0.00    -0.056 A 
HETATM   12  C   UNL     1     -40.190  54.035 -55.219  1.00  0.00     0.049 C 
HETATM   13  C   UNL     1     -39.687  51.903 -53.190  1.00  0.00     0.049 C 
HETATM   14  C   UNL     1     -41.109  53.228 -51.606  1.00  0.00     0.009 A 
HETATM   15  C   UNL     1     -41.898  54.335 -51.282  1.00  0.00     0.030 A 
ENDBRANCH   4   8
ENDBRANCH   1   2
BRANCH   1  16
HETATM   16  C   UNL     1     -44.928  58.868 -52.837  1.00  0.00    -0.085 C 
BRANCH  16  17
HETATM   17  C   UNL     1     -44.971  59.105 -54.118  1.00  0.00    -0.078 C 
BRANCH  17  18
HETATM   18  C   UNL     1     -45.021  59.380 -55.612  1.00  0.00     0.269 C 
BRANCH  18  19
HETATM   19  O   UNL     1     -43.769  59.049 -56.205  1.00  0.00    -0.339 OA
BRANCH  19  20
HETATM   20  C   UNL     1     -43.762  57.946 -57.017  1.00  0.00     0.072 A 
HETATM   21  C   UNL     1     -44.740  57.942 -58.017  1.00  0.00     0.069 A 
HETATM   22  C   UNL     1     -44.860  56.898 -58.926  1.00  0.00     0.069 A 
HETATM   23  C   UNL     1     -43.949  55.826 -58.836  1.00  0.00    -0.007 A 
HETATM   24  N   UNL     1     -45.833  56.933 -59.855  1.00  0.00    -0.260 NA
HETATM   25  C   UNL     1     -42.953  55.830 -57.848  1.00  0.00     0.016 A 
HETATM   26  C   UNL     1     -44.068  54.776 -59.754  1.00  0.00     0.015 A 
HETATM   27  C   UNL     1     -42.862  56.886 -56.940  1.00  0.00     0.038 A 
HETATM   28  C   UNL     1     -45.072  54.811 -60.714  1.00  0.00     0.020 A 
HETATM   29  C   UNL     1     -45.921  55.900 -60.722  1.00  0.00     0.117 A 
ENDBRANCH  19  20
ENDBRANCH  18  19
ENDBRANCH  17  18
ENDBRANCH  16  17
ENDBRANCH   1  16
TORSDOF 7
ENDMDL
MODEL 9
REMARK VINA RESULT:      -7.0      3.512      6.684
REMARK  7 active torsions:
REMARK  status: ('A' for Active; 'I' for Inactive)
REMARK    1  A    between atoms: C_6  and  N_7 
REMARK       I    between atoms: N_7  and  C_8 
REMARK       I    between atoms: C_8  and  N_9 
REMARK    2  A    between atoms: N_9  and  C_10 
REMARK    3  A    between atoms: C_10  and  C_11 
REMARK    4  A    between atoms: C_11  and  C_12 
REMARK    5  A    between atoms: C_12  and  C_13 
REMARK    6  A    between atoms: C_13  and  O_14 
REMARK    7  A    between atoms: O_14  and  C_15 
ROOT
HETATM    1  C   UNL     1     -42.843  60.285 -55.222  1.00  0.00     0.219 C 
ENDROOT
BRANCH   1   2
HETATM    2  N   UNL     1     -41.677  60.115 -54.389  1.00  0.00    -0.332 N 
HETATM    3  C   UNL     1     -41.129  59.018 -53.803  1.00  0.00     0.321 C 
HETATM    4  N   UNL     1     -41.828  57.850 -53.919  1.00  0.00    -0.309 N 
HETATM    5  O   UNL     1     -40.054  59.172 -53.233  1.00  0.00    -0.247 OA
HETATM    6  H   UNL     1     -42.764  57.917 -54.278  1.00  0.00     0.170 HD
HETATM    7  H   UNL     1     -41.110  60.939 -54.233  1.00  0.00     0.165 HD
BRANCH   4   8
HETATM    8  C   UNL     1     -41.452  56.568 -53.465  1.00  0.00     0.036 A 
HETATM    9  C   UNL     1     -41.013  55.536 -54.297  1.00  0.00     0.037 A 
HETATM   10  C   UNL     1     -40.647  54.279 -53.775  1.00  0.00    -0.054 A 
HETATM   11  C   UNL     1     -40.714  54.057 -52.388  1.00  0.00    -0.056 A 
HETATM   12  C   UNL     1     -40.140  53.221 -54.720  1.00  0.00     0.049 C 
HETATM   13  C   UNL     1     -40.325  52.739 -51.779  1.00  0.00     0.049 C 
HETATM   14  C   UNL     1     -41.173  55.088 -51.557  1.00  0.00     0.009 A 
HETATM   15  C   UNL     1     -41.535  56.328 -52.090  1.00  0.00     0.030 A 
ENDBRANCH   4   8
ENDBRANCH   1   2
BRANCH   1  16
HETATM   16  C   UNL     1     -42.393  60.542 -56.651  1.00  0.00    -0.085 C 
BRANCH  16  17
HETATM   17  C   UNL     1     -42.006  60.763 -57.877  1.00  0.00    -0.078 C 
BRANCH  17  18
HETATM   18  C   UNL     1     -41.556  61.019 -59.306  1.00  0.00     0.269 C 
BRANCH  18  19
HETATM   19  O   UNL     1     -42.531  60.518 -60.214  1.00  0.00    -0.339 OA
BRANCH  19  20
HETATM   20  C   UNL     1     -42.766  59.170 -60.159  1.00  0.00     0.072 A 
HETATM   21  C   UNL     1     -44.113  58.800 -60.237  1.00  0.00     0.069 A 
HETATM   22  C   UNL     1     -44.516  57.471 -60.201  1.00  0.00     0.069 A 
HETATM   23  C   UNL     1     -43.523  56.475 -60.102  1.00  0.00    -0.007 A 
HETATM   24  N   UNL     1     -45.827  57.171 -60.257  1.00  0.00    -0.260 NA
HETATM   25  C   UNL     1     -42.169  56.834 -60.043  1.00  0.00     0.016 A 
HETATM   26  C   UNL     1     -43.930  55.135 -60.071  1.00  0.00     0.015 A 
HETATM   27  C   UNL     1     -41.792  58.178 -60.068  1.00  0.00     0.038 A 
HETATM   28  C   UNL     1     -45.282  54.824 -60.129  1.00  0.00     0.020 A 
HETATM   29  C   UNL     1     -46.183  55.867 -60.219  1.00  0.00     0.117 A 
ENDBRANCH  19  20
ENDBRANCH  18  19
ENDBRANCH  17  18
ENDBRANCH  16  17
ENDBRANCH   1  16
TORSDOF 7
ENDMDL
MODEL 10
REMARK VINA RESULT:      -6.9      1.582      2.265
REMARK  7 active torsions:
REMARK  status: ('A' for Active; 'I' for Inactive)
REMARK    1  A    between atoms: C_6  and  N_7 
REMARK       I    between atoms: N_7  and  C_8 
REMARK       I    between atoms: C_8  and  N_9 
REMARK    2  A    between atoms: N_9  and  C_10 
REMARK    3  A    between atoms: C_10  and  C_11 
REMARK    4  A    between atoms: C_11  and  C_12 
REMARK    5  A    between atoms: C_12  and  C_13 
REMARK    6  A    between atoms: C_13  and  O_14 
REMARK    7  A    between atoms: O_14  and  C_15 
ROOT
HETATM    1  C   UNL     1     -42.860  55.513 -56.513  1.00  0.00     0.219 C 
ENDROOT
BRANCH   1   2
HETATM    2  N   UNL     1     -41.488  55.610 -56.076  1.00  0.00    -0.332 N 
HETATM    3  C   UNL     1     -40.755  54.866 -55.207  1.00  0.00     0.321 C 
HETATM    4  N   UNL     1     -41.423  53.887 -54.528  1.00  0.00    -0.309 N 
HETATM    5  O   UNL     1     -39.560  55.130 -55.120  1.00  0.00    -0.247 OA
HETATM    6  H   UNL     1     -42.425  53.896 -54.589  1.00  0.00     0.170 HD
HETATM    7  H   UNL     1     -40.924  56.326 -56.516  1.00  0.00     0.165 HD
BRANCH   4   8
HETATM    8  C   UNL     1     -40.889  52.940 -53.627  1.00  0.00     0.036 A 
HETATM    9  C   UNL     1     -40.830  53.115 -52.243  1.00  0.00     0.037 A 
HETATM   10  C   UNL     1     -40.289  52.125 -51.400  1.00  0.00    -0.054 A 
HETATM   11  C   UNL     1     -39.805  50.927 -51.959  1.00  0.00    -0.056 A 
HETATM   12  C   UNL     1     -40.292  52.356 -49.912  1.00  0.00     0.049 C 
HETATM   13  C   UNL     1     -39.227  49.834 -51.103  1.00  0.00     0.049 C 
HETATM   14  C   UNL     1     -39.848  50.761 -53.350  1.00  0.00     0.009 A 
HETATM   15  C   UNL     1     -40.386  51.754 -54.172  1.00  0.00     0.030 A 
ENDBRANCH   4   8
ENDBRANCH   1   2
BRANCH   1  16
HETATM   16  C   UNL     1     -43.617  56.740 -56.032  1.00  0.00    -0.085 C 
BRANCH  16  17
HETATM   17  C   UNL     1     -44.267  57.792 -55.619  1.00  0.00    -0.078 C 
BRANCH  17  18
HETATM   18  C   UNL     1     -45.025  59.018 -55.138  1.00  0.00     0.269 C 
BRANCH  18  19
HETATM   19  O   UNL     1     -45.271  58.914 -53.739  1.00  0.00    -0.339 OA
BRANCH  19  20
HETATM   20  C   UNL     1     -44.193  58.574 -52.964  1.00  0.00     0.072 A 
HETATM   21  C   UNL     1     -44.322  57.369 -52.267  1.00  0.00     0.069 A 
HETATM   22  C   UNL     1     -43.315  56.882 -51.444  1.00  0.00     0.069 A 
HETATM   23  C   UNL     1     -42.124  57.628 -51.333  1.00  0.00    -0.007 A 
HETATM   24  N   UNL     1     -43.499  55.726 -50.778  1.00  0.00    -0.260 NA
HETATM   25  C   UNL     1     -41.978  58.830 -52.042  1.00  0.00     0.016 A 
HETATM   26  C   UNL     1     -41.108  57.135 -50.506  1.00  0.00     0.015 A 
HETATM   27  C   UNL     1     -43.011  59.302 -52.853  1.00  0.00     0.038 A 
HETATM   28  C   UNL     1     -41.297  55.943 -49.819  1.00  0.00     0.020 A 
HETATM   29  C   UNL     1     -42.498  55.283 -49.985  1.00  0.00     0.117 A 
ENDBRANCH  19  20
ENDBRANCH  18  19
ENDBRANCH  17  18
ENDBRANCH  16  17
ENDBRANCH   1  16
TORSDOF 7
ENDMDL
