MODEL 1
REMARK VINA RESULT:      -8.0      0.000      0.000
REMARK  6 active torsions:
REMARK  status: ('A' for Active; 'I' for Inactive)
REMARK    1  A    between atoms: C_2  and  C_3 
REMARK       I    between atoms: C_3  and  N_4 
REMARK    2  A    between atoms: N_4  and  C_5 
REMARK    3  A    between atoms: C_8  and  N_9 
REMARK       I    between atoms: N_9  and  C_10 
REMARK    4  A    between atoms: C_10  and  C_11 
REMARK    5  A    between atoms: C_16  and  C_17 
REMARK    6  A    between atoms: C_23  and  C_24 
ROOT
HETATM    1  C   UNL     1     -44.806  59.571 -50.944  1.00  0.00     0.148 A 
HETATM    2  N   UNL     1     -43.785  59.882 -51.776  1.00  0.00    -0.165 NA
HETATM    3  N   UNL     1     -43.530  58.717 -52.401  1.00  0.00    -0.240 N 
HETATM    4  C   UNL     1     -44.430  57.728 -52.121  1.00  0.00     0.123 A 
HETATM    5  N   UNL     1     -44.401  56.538 -52.754  1.00  0.00    -0.364 N 
HETATM    6  C   UNL     1     -43.306  56.152 -53.645  1.00  0.00     0.143 C 
HETATM    7  C   UNL     1     -42.662  57.399 -54.279  1.00  0.00     0.068 C 
HETATM    8  C   UNL     1     -42.399  58.553 -53.295  1.00  0.00     0.221 C 
HETATM    9  C   UNL     1     -45.248  58.234 -51.147  1.00  0.00     0.089 A 
HETATM   10  H   UNL     1     -44.989  55.768 -52.439  1.00  0.00     0.162 HD
ENDROOT
BRANCH   1  11
HETATM   11  C   UNL     1     -45.360  60.533 -49.975  1.00  0.00     0.276 C 
HETATM   12  N   UNL     1     -44.498  60.772 -48.922  1.00  0.00    -0.322 N 
HETATM   13  H   UNL     1     -43.596  60.314 -49.020  1.00  0.00     0.169 HD
HETATM   14  O   UNL     1     -46.455  61.054 -50.154  1.00  0.00    -0.266 OA
BRANCH  12  15
HETATM   15  C   UNL     1     -44.721  61.578 -47.793  1.00  0.00     0.035 A 
HETATM   16  C   UNL     1     -44.825  62.966 -47.845  1.00  0.00     0.032 A 
HETATM   17  C   UNL     1     -45.079  63.711 -46.684  1.00  0.00     0.032 A 
HETATM   18  C   UNL     1     -45.212  63.078 -45.449  1.00  0.00     0.034 A 
HETATM   19  C   UNL     1     -45.093  61.685 -45.395  1.00  0.00     0.032 A 
HETATM   20  C   UNL     1     -44.868  60.939 -46.558  1.00  0.00     0.032 A 
BRANCH  18  21
HETATM   21  N   UNL     1     -45.447  63.758 -44.236  1.00  0.00    -0.327 N 
HETATM   22  C   UNL     1     -44.561  63.935 -43.187  1.00  0.00     0.221 C 
HETATM   23  O   UNL     1     -43.396  63.552 -43.146  1.00  0.00    -0.273 OA
HETATM   24  H   UNL     1     -46.356  64.192 -44.147  1.00  0.00     0.169 HD
BRANCH  22  25
HETATM   25  C   UNL     1     -45.173  64.645 -41.991  1.00  0.00     0.098 C 
HETATM   26  C   UNL     1     -45.369  63.748 -40.782  1.00  0.00     0.014 C 
ENDBRANCH  22  25
ENDBRANCH  18  21
ENDBRANCH  12  15
ENDBRANCH   1  11
BRANCH   8  27
HETATM   27  C   UNL     1     -41.130  58.395 -52.486  1.00  0.00     0.409 C 
HETATM   28  F   UNL     1     -41.280  57.639 -51.381  1.00  0.00    -0.169 F 
HETATM   29  F   UNL     1     -40.160  57.818 -53.239  1.00  0.00    -0.169 F 
HETATM   30  F   UNL     1     -40.636  59.592 -52.090  1.00  0.00    -0.169 F 
ENDBRANCH   8  27
BRANCH   6  31
HETATM   31  C   UNL     1     -42.313  55.212 -53.041  1.00  0.00     0.075 A 
HETATM   32  O   UNL     1     -42.583  54.773 -51.776  1.00  0.00    -0.325 OA
HETATM   33  C   UNL     1     -41.552  53.972 -51.404  1.00  0.00     0.142 A 
HETATM   34  C   UNL     1     -40.618  53.890 -52.409  1.00  0.00     0.027 A 
HETATM   35  C   UNL     1     -41.105  54.694 -53.466  1.00  0.00     0.037 A 
ENDBRANCH   6  31
TORSDOF 6
ENDMDL
MODEL 2
REMARK VINA RESULT:      -7.7     20.472     22.410
REMARK  6 active torsions:
REMARK  status: ('A' for Active; 'I' for Inactive)
REMARK    1  A    between atoms: C_2  and  C_3 
REMARK       I    between atoms: C_3  and  N_4 
REMARK    2  A    between atoms: N_4  and  C_5 
REMARK    3  A    between atoms: C_8  and  N_9 
REMARK       I    between atoms: N_9  and  C_10 
REMARK    4  A    between atoms: C_10  and  C_11 
REMARK    5  A    between atoms: C_16  and  C_17 
REMARK    6  A    between atoms: C_23  and  C_24 
ROOT
HETATM    1  C   UNL     1     -35.351  40.910 -52.228  1.00  0.00     0.148 A 
HETATM    2  N   UNL     1     -34.373  40.859 -53.163  1.00  0.00    -0.165 NA
HETATM    3  N   UNL     1     -34.990  41.297 -54.278  1.00  0.00    -0.240 N 
HETATM    4  C   UNL     1     -36.256  41.764 -54.065  1.00  0.00     0.123 A 
HETATM    5  N   UNL     1     -36.971  42.355 -55.043  1.00  0.00    -0.364 N 
HETATM    6  C   UNL     1     -36.523  42.377 -56.437  1.00  0.00     0.143 C 
HETATM    7  C   UNL     1     -34.986  42.316 -56.509  1.00  0.00     0.068 C 
HETATM    8  C   UNL     1     -34.343  41.274 -55.576  1.00  0.00     0.221 C 
HETATM    9  C   UNL     1     -36.539  41.490 -52.754  1.00  0.00     0.089 A 
HETATM   10  H   UNL     1     -37.957  42.573 -54.907  1.00  0.00     0.162 HD
ENDROOT
BRANCH   1  11
HETATM   11  C   UNL     1     -35.156  40.422 -50.851  1.00  0.00     0.276 C 
HETATM   12  N   UNL     1     -33.850  40.043 -50.609  1.00  0.00    -0.322 N 
HETATM   13  H   UNL     1     -33.219  40.231 -51.384  1.00  0.00     0.169 HD
HETATM   14  O   UNL     1     -36.081  40.409 -50.047  1.00  0.00    -0.266 OA
BRANCH  12  15
HETATM   15  C   UNL     1     -33.322  39.476 -49.437  1.00  0.00     0.035 A 
HETATM   16  C   UNL     1     -33.936  38.439 -48.738  1.00  0.00     0.032 A 
HETATM   17  C   UNL     1     -33.341  37.897 -47.590  1.00  0.00     0.032 A 
HETATM   18  C   UNL     1     -32.133  38.400 -47.110  1.00  0.00     0.034 A 
HETATM   19  C   UNL     1     -31.524  39.451 -47.804  1.00  0.00     0.032 A 
HETATM   20  C   UNL     1     -32.103  39.973 -48.967  1.00  0.00     0.032 A 
BRANCH  18  21
HETATM   21  N   UNL     1     -31.483  37.922 -45.953  1.00  0.00    -0.327 N 
HETATM   22  C   UNL     1     -31.863  38.118 -44.637  1.00  0.00     0.221 C 
HETATM   23  O   UNL     1     -32.859  38.721 -44.247  1.00  0.00    -0.273 OA
HETATM   24  H   UNL     1     -30.671  37.344 -46.115  1.00  0.00     0.169 HD
BRANCH  22  25
HETATM   25  C   UNL     1     -30.885  37.535 -43.630  1.00  0.00     0.098 C 
HETATM   26  C   UNL     1     -29.701  38.438 -43.334  1.00  0.00     0.014 C 
ENDBRANCH  22  25
ENDBRANCH  18  21
ENDBRANCH  12  15
ENDBRANCH   1  11
BRANCH   8  27
HETATM   27  C   UNL     1     -34.355  39.864 -56.125  1.00  0.00     0.409 C 
HETATM   28  F   UNL     1     -34.424  39.805 -57.469  1.00  0.00    -0.169 F 
HETATM   29  F   UNL     1     -33.231  39.203 -55.751  1.00  0.00    -0.169 F 
HETATM   30  F   UNL     1     -35.393  39.146 -55.637  1.00  0.00    -0.169 F 
ENDBRANCH   8  27
BRANCH   6  31
HETATM   31  C   UNL     1     -37.201  41.384 -57.325  1.00  0.00     0.075 A 
HETATM   32  O   UNL     1     -36.908  41.460 -58.656  1.00  0.00    -0.325 OA
HETATM   33  C   UNL     1     -37.648  40.509 -59.282  1.00  0.00     0.142 A 
HETATM   34  C   UNL     1     -38.419  39.823 -58.375  1.00  0.00     0.027 A 
HETATM   35  C   UNL     1     -38.135  40.389 -57.110  1.00  0.00     0.037 A 
ENDBRANCH   6  31
TORSDOF 6
ENDMDL
MODEL 3
REMARK VINA RESULT:      -7.6      3.625     10.142
REMARK  6 active torsions:
REMARK  status: ('A' for Active; 'I' for Inactive)
REMARK    1  A    between atoms: C_2  and  C_3 
REMARK       I    between atoms: C_3  and  N_4 
REMARK    2  A    between atoms: N_4  and  C_5 
REMARK    3  A    between atoms: C_8  and  N_9 
REMARK       I    between atoms: N_9  and  C_10 
REMARK    4  A    between atoms: C_10  and  C_11 
REMARK    5  A    between atoms: C_16  and  C_17 
REMARK    6  A    between atoms: C_23  and  C_24 
ROOT
HETATM    1  C   UNL     1     -42.246  59.758 -51.632  1.00  0.00     0.148 A 
HETATM    2  N   UNL     1     -43.258  60.190 -52.421  1.00  0.00    -0.165 NA
HETATM    3  N   UNL     1     -43.787  61.207 -51.714  1.00  0.00    -0.240 N 
HETATM    4  C   UNL     1     -43.074  61.538 -50.597  1.00  0.00     0.123 A 
HETATM    5  N   UNL     1     -43.388  62.610 -49.843  1.00  0.00    -0.364 N 
HETATM    6  C   UNL     1     -44.612  63.385 -50.055  1.00  0.00     0.143 C 
HETATM    7  C   UNL     1     -45.056  63.298 -51.527  1.00  0.00     0.068 C 
HETATM    8  C   UNL     1     -45.003  61.882 -52.128  1.00  0.00     0.221 C 
HETATM    9  C   UNL     1     -42.091  60.592 -50.489  1.00  0.00     0.089 A 
HETATM   10  H   UNL     1     -42.935  62.764 -48.943  1.00  0.00     0.162 HD
ENDROOT
BRANCH   1  11
HETATM   11  C   UNL     1     -41.433  58.575 -51.962  1.00  0.00     0.276 C 
HETATM   12  N   UNL     1     -42.204  57.517 -52.406  1.00  0.00    -0.322 N 
HETATM   13  H   UNL     1     -43.189  57.744 -52.508  1.00  0.00     0.169 HD
HETATM   14  O   UNL     1     -40.211  58.597 -51.865  1.00  0.00    -0.266 OA
BRANCH  12  15
HETATM   15  C   UNL     1     -41.774  56.223 -52.746  1.00  0.00     0.035 A 
HETATM   16  C   UNL     1     -40.949  55.946 -53.834  1.00  0.00     0.032 A 
HETATM   17  C   UNL     1     -40.531  54.635 -54.102  1.00  0.00     0.032 A 
HETATM   18  C   UNL     1     -40.951  53.576 -53.298  1.00  0.00     0.034 A 
HETATM   19  C   UNL     1     -41.791  53.853 -52.214  1.00  0.00     0.032 A 
HETATM   20  C   UNL     1     -42.185  55.166 -51.929  1.00  0.00     0.032 A 
BRANCH  18  21
HETATM   21  N   UNL     1     -40.591  52.230 -53.514  1.00  0.00    -0.327 N 
HETATM   22  C   UNL     1     -39.714  51.465 -52.764  1.00  0.00     0.221 C 
HETATM   23  O   UNL     1     -39.116  51.823 -51.753  1.00  0.00    -0.273 OA
HETATM   24  H   UNL     1     -41.058  51.771 -54.283  1.00  0.00     0.169 HD
BRANCH  22  25
HETATM   25  C   UNL     1     -39.488  50.073 -53.329  1.00  0.00     0.098 C 
HETATM   26  C   UNL     1     -39.933  49.918 -54.772  1.00  0.00     0.014 C 
ENDBRANCH  22  25
ENDBRANCH  18  21
ENDBRANCH  12  15
ENDBRANCH   1  11
BRANCH   8  27
HETATM   27  C   UNL     1     -46.202  61.024 -51.788  1.00  0.00     0.409 C 
HETATM   28  F   UNL     1     -46.057  60.311 -50.655  1.00  0.00    -0.169 F 
HETATM   29  F   UNL     1     -47.307  61.796 -51.639  1.00  0.00    -0.169 F 
HETATM   30  F   UNL     1     -46.488  60.148 -52.780  1.00  0.00    -0.169 F 
ENDBRANCH   8  27
BRANCH   6  31
HETATM   31  C   UNL     1     -45.710  63.094 -49.084  1.00  0.00     0.075 A 
HETATM   32  O   UNL     1     -46.868  63.799 -49.248  1.00  0.00    -0.325 OA
HETATM   33  C   UNL     1     -47.710  63.419 -48.252  1.00  0.00     0.142 A 
HETATM   34  C   UNL     1     -47.111  62.482 -47.445  1.00  0.00     0.027 A 
HETATM   35  C   UNL     1     -45.816  62.275 -47.977  1.00  0.00     0.037 A 
ENDBRANCH   6  31
TORSDOF 6
ENDMDL
MODEL 4
REMARK VINA RESULT:      -7.6      8.766     11.396
REMARK  6 active torsions:
REMARK  status: ('A' for Active; 'I' for Inactive)
REMARK    1  A    between atoms: C_2  and  C_3 
REMARK       I    between atoms: C_3  and  N_4 
REMARK    2  A    between atoms: N_4  and  C_5 
REMARK    3  A    between atoms: C_8  and  N_9 
REMARK       I    between atoms: N_9  and  C_10 
REMARK    4  A    between atoms: C_10  and  C_11 
REMARK    5  A    between atoms: C_16  and  C_17 
REMARK    6  A    between atoms: C_23  and  C_24 
ROOT
HETATM    1  C   UNL     1     -43.222  57.727 -56.798  1.00  0.00     0.148 A 
HETATM    2  N   UNL     1     -43.602  57.185 -57.979  1.00  0.00    -0.165 NA
HETATM    3  N   UNL     1     -44.324  58.167 -58.551  1.00  0.00    -0.240 N 
HETATM    4  C   UNL     1     -44.295  59.349 -57.866  1.00  0.00     0.123 A 
HETATM    5  N   UNL     1     -44.858  60.471 -58.358  1.00  0.00    -0.364 N 
HETATM    6  C   UNL     1     -45.691  60.467 -59.561  1.00  0.00     0.143 C 
HETATM    7  C   UNL     1     -45.280  59.315 -60.497  1.00  0.00     0.068 C 
HETATM    8  C   UNL     1     -45.053  57.967 -59.789  1.00  0.00     0.221 C 
HETATM    9  C   UNL     1     -43.623  59.089 -56.702  1.00  0.00     0.089 A 
HETATM   10  H   UNL     1     -44.946  61.305 -57.779  1.00  0.00     0.162 HD
ENDROOT
BRANCH   1  11
HETATM   11  C   UNL     1     -42.480  56.965 -55.778  1.00  0.00     0.276 C 
HETATM   12  N   UNL     1     -42.274  55.651 -56.153  1.00  0.00    -0.322 N 
HETATM   13  H   UNL     1     -42.593  55.440 -57.094  1.00  0.00     0.169 HD
HETATM   14  O   UNL     1     -42.089  57.500 -54.747  1.00  0.00    -0.266 OA
BRANCH  12  15
HETATM   15  C   UNL     1     -41.665  54.629 -55.406  1.00  0.00     0.035 A 
HETATM   16  C   UNL     1     -40.336  54.244 -55.567  1.00  0.00     0.032 A 
HETATM   17  C   UNL     1     -39.779  53.235 -54.768  1.00  0.00     0.032 A 
HETATM   18  C   UNL     1     -40.551  52.581 -53.809  1.00  0.00     0.034 A 
HETATM   19  C   UNL     1     -41.889  52.958 -53.656  1.00  0.00     0.032 A 
HETATM   20  C   UNL     1     -42.437  53.985 -54.435  1.00  0.00     0.032 A 
BRANCH  18  21
HETATM   21  N   UNL     1     -40.069  51.545 -52.981  1.00  0.00    -0.327 N 
HETATM   22  C   UNL     1     -39.889  50.215 -53.321  1.00  0.00     0.221 C 
HETATM   23  O   UNL     1     -40.092  49.710 -54.422  1.00  0.00    -0.273 OA
HETATM   24  H   UNL     1     -39.793  51.822 -52.050  1.00  0.00     0.169 HD
BRANCH  22  25
HETATM   25  C   UNL     1     -39.434  49.349 -52.159  1.00  0.00     0.098 C 
HETATM   26  C   UNL     1     -39.709  49.959 -50.796  1.00  0.00     0.014 C 
ENDBRANCH  22  25
ENDBRANCH  18  21
ENDBRANCH  12  15
ENDBRANCH   1  11
BRANCH   8  27
HETATM   27  C   UNL     1     -46.325  57.195 -59.511  1.00  0.00     0.409 C 
HETATM   28  F   UNL     1     -46.837  57.414 -58.285  1.00  0.00    -0.169 F 
HETATM   29  F   UNL     1     -47.283  57.527 -60.413  1.00  0.00    -0.169 F 
HETATM   30  F   UNL     1     -46.138  55.860 -59.637  1.00  0.00    -0.169 F 
ENDBRANCH   8  27
BRANCH   6  31
HETATM   31  C   UNL     1     -47.162  60.527 -59.301  1.00  0.00     0.075 A 
HETATM   32  O   UNL     1     -47.969  60.632 -60.397  1.00  0.00    -0.325 OA
HETATM   33  C   UNL     1     -49.247  60.711 -59.945  1.00  0.00     0.142 A 
HETATM   34  C   UNL     1     -49.277  60.663 -58.572  1.00  0.00     0.027 A 
HETATM   35  C   UNL     1     -47.930  60.549 -58.153  1.00  0.00     0.037 A 
ENDBRANCH   6  31
TORSDOF 6
ENDMDL
MODEL 5
REMARK VINA RESULT:      -7.6      8.488     11.073
REMARK  6 active torsions:
REMARK  status: ('A' for Active; 'I' for Inactive)
REMARK    1  A    between atoms: C_2  and  C_3 
REMARK       I    between atoms: C_3  and  N_4 
REMARK    2  A    between atoms: N_4  and  C_5 
REMARK    3  A    between atoms: C_8  and  N_9 
REMARK       I    between atoms: N_9  and  C_10 
REMARK    4  A    between atoms: C_10  and  C_11 
REMARK    5  A    between atoms: C_16  and  C_17 
REMARK    6  A    between atoms: C_23  and  C_24 
ROOT
HETATM    1  C   UNL     1     -42.767  57.399 -57.596  1.00  0.00     0.148 A 
HETATM    2  N   UNL     1     -43.538  58.381 -57.071  1.00  0.00    -0.165 NA
HETATM    3  N   UNL     1     -43.298  59.428 -57.881  1.00  0.00    -0.240 N 
HETATM    4  C   UNL     1     -42.539  59.122 -58.975  1.00  0.00     0.123 A 
HETATM    5  N   UNL     1     -42.307  60.018 -59.955  1.00  0.00    -0.364 N 
HETATM    6  C   UNL     1     -42.691  61.425 -59.837  1.00  0.00     0.143 C 
HETATM    7  C   UNL     1     -43.906  61.574 -58.902  1.00  0.00     0.068 C 
HETATM    8  C   UNL     1     -43.818  60.753 -57.603  1.00  0.00     0.221 C 
HETATM    9  C   UNL     1     -42.142  57.824 -58.801  1.00  0.00     0.089 A 
HETATM   10  H   UNL     1     -41.631  59.819 -60.692  1.00  0.00     0.162 HD
ENDROOT
BRANCH   1  11
HETATM   11  C   UNL     1     -42.634  56.073 -56.966  1.00  0.00     0.276 C 
HETATM   12  N   UNL     1     -41.817  56.103 -55.852  1.00  0.00    -0.322 N 
HETATM   13  H   UNL     1     -41.503  57.036 -55.599  1.00  0.00     0.169 HD
HETATM   14  O   UNL     1     -43.231  55.099 -57.408  1.00  0.00    -0.266 OA
BRANCH  12  15
HETATM   15  C   UNL     1     -41.419  55.021 -55.049  1.00  0.00     0.035 A 
HETATM   16  C   UNL     1     -42.082  54.641 -53.884  1.00  0.00     0.032 A 
HETATM   17  C   UNL     1     -41.651  53.532 -53.142  1.00  0.00     0.032 A 
HETATM   18  C   UNL     1     -40.536  52.798 -53.544  1.00  0.00     0.034 A 
HETATM   19  C   UNL     1     -39.861  53.189 -54.706  1.00  0.00     0.032 A 
HETATM   20  C   UNL     1     -40.309  54.279 -55.462  1.00  0.00     0.032 A 
BRANCH  18  21
HETATM   21  N   UNL     1     -40.030  51.684 -52.842  1.00  0.00    -0.327 N 
HETATM   22  C   UNL     1     -40.015  50.365 -53.261  1.00  0.00     0.221 C 
HETATM   23  O   UNL     1     -40.416  49.938 -54.340  1.00  0.00    -0.273 OA
HETATM   24  H   UNL     1     -39.600  51.887 -51.950  1.00  0.00     0.169 HD
BRANCH  22  25
HETATM   25  C   UNL     1     -39.472  49.403 -52.216  1.00  0.00     0.098 C 
HETATM   26  C   UNL     1     -39.850  49.769 -50.792  1.00  0.00     0.014 C 
ENDBRANCH  22  25
ENDBRANCH  18  21
ENDBRANCH  12  15
ENDBRANCH   1  11
BRANCH   8  27
HETATM   27  C   UNL     1     -42.991  61.407 -56.517  1.00  0.00     0.409 C 
HETATM   28  F   UNL     1     -42.882  62.743 -56.646  1.00  0.00    -0.169 F 
HETATM   29  F   UNL     1     -43.536  61.163 -55.298  1.00  0.00    -0.169 F 
HETATM   30  F   UNL     1     -41.735  60.903 -56.474  1.00  0.00    -0.169 F 
ENDBRANCH   8  27
BRANCH   6  31
HETATM   31  C   UNL     1     -41.567  62.353 -59.504  1.00  0.00     0.075 A 
HETATM   32  O   UNL     1     -41.808  63.686 -59.679  1.00  0.00    -0.325 OA
HETATM   33  C   UNL     1     -40.662  64.342 -59.363  1.00  0.00     0.142 A 
HETATM   34  C   UNL     1     -39.683  63.452 -58.992  1.00  0.00     0.027 A 
HETATM   35  C   UNL     1     -40.264  62.165 -59.088  1.00  0.00     0.037 A 
ENDBRANCH   6  31
TORSDOF 6
ENDMDL
MODEL 6
REMARK VINA RESULT:      -7.6     21.225     22.730
REMARK  6 active torsions:
REMARK  status: ('A' for Active; 'I' for Inactive)
REMARK    1  A    between atoms: C_2  and  C_3 
REMARK       I    between atoms: C_3  and  N_4 
REMARK    2  A    between atoms: N_4  and  C_5 
REMARK    3  A    between atoms: C_8  and  N_9 
REMARK       I    between atoms: N_9  and  C_10 
REMARK    4  A    between atoms: C_10  and  C_11 
REMARK    5  A    between atoms: C_16  and  C_17 
REMARK    6  A    between atoms: C_23  and  C_24 
ROOT
HETATM    1  C   UNL     1     -36.387  40.169 -55.060  1.00  0.00     0.148 A 
HETATM    2  N   UNL     1     -37.120  40.974 -55.865  1.00  0.00    -0.165 NA
HETATM    3  N   UNL     1     -37.397  40.185 -56.920  1.00  0.00    -0.240 N 
HETATM    4  C   UNL     1     -37.011  38.885 -56.759  1.00  0.00     0.123 A 
HETATM    5  N   UNL     1     -37.322  37.932 -57.661  1.00  0.00    -0.364 N 
HETATM    6  C   UNL     1     -37.930  38.247 -58.954  1.00  0.00     0.143 C 
HETATM    7  C   UNL     1     -38.755  39.543 -58.860  1.00  0.00     0.068 C 
HETATM    8  C   UNL     1     -38.058  40.692 -58.108  1.00  0.00     0.221 C 
HETATM    9  C   UNL     1     -36.314  38.847 -55.581  1.00  0.00     0.089 A 
HETATM   10  H   UNL     1     -36.912  37.001 -57.595  1.00  0.00     0.162 HD
ENDROOT
BRANCH   1  11
HETATM   11  C   UNL     1     -35.770  40.646 -53.810  1.00  0.00     0.276 C 
HETATM   12  N   UNL     1     -34.854  39.746 -53.300  1.00  0.00    -0.322 N 
HETATM   13  H   UNL     1     -34.693  38.942 -53.901  1.00  0.00     0.169 HD
HETATM   14  O   UNL     1     -36.055  41.742 -53.341  1.00  0.00    -0.266 OA
BRANCH  12  15
HETATM   15  C   UNL     1     -34.129  39.843 -52.101  1.00  0.00     0.035 A 
HETATM   16  C   UNL     1     -34.688  39.629 -50.843  1.00  0.00     0.032 A 
HETATM   17  C   UNL     1     -33.903  39.712 -49.684  1.00  0.00     0.032 A 
HETATM   18  C   UNL     1     -32.548  40.033 -49.766  1.00  0.00     0.034 A 
HETATM   19  C   UNL     1     -31.990  40.263 -51.028  1.00  0.00     0.032 A 
HETATM   20  C   UNL     1     -32.768  40.151 -52.187  1.00  0.00     0.032 A 
BRANCH  18  21
HETATM   21  N   UNL     1     -31.698  40.155 -48.647  1.00  0.00    -0.327 N 
HETATM   22  C   UNL     1     -31.254  39.141 -47.816  1.00  0.00     0.221 C 
HETATM   23  O   UNL     1     -31.502  37.944 -47.931  1.00  0.00    -0.273 OA
HETATM   24  H   UNL     1     -31.352  41.086 -48.461  1.00  0.00     0.169 HD
BRANCH  22  25
HETATM   25  C   UNL     1     -30.416  39.637 -46.649  1.00  0.00     0.098 C 
HETATM   26  C   UNL     1     -30.979  39.265 -45.290  1.00  0.00     0.014 C 
ENDBRANCH  22  25
ENDBRANCH  18  21
ENDBRANCH  12  15
ENDBRANCH   1  11
BRANCH   8  27
HETATM   27  C   UNL     1     -37.067  41.466 -58.950  1.00  0.00     0.409 C 
HETATM   28  F   UNL     1     -37.306  41.396 -60.273  1.00  0.00    -0.169 F 
HETATM   29  F   UNL     1     -37.083  42.779 -58.607  1.00  0.00    -0.169 F 
HETATM   30  F   UNL     1     -35.798  41.041 -58.747  1.00  0.00    -0.169 F 
ENDBRANCH   8  27
BRANCH   6  31
HETATM   31  C   UNL     1     -36.982  38.227 -60.110  1.00  0.00     0.075 A 
HETATM   32  O   UNL     1     -37.527  38.430 -61.346  1.00  0.00    -0.325 OA
HETATM   33  C   UNL     1     -36.516  38.335 -62.247  1.00  0.00     0.142 A 
HETATM   34  C   UNL     1     -35.327  38.069 -61.612  1.00  0.00     0.027 A 
HETATM   35  C   UNL     1     -35.626  37.993 -60.231  1.00  0.00     0.037 A 
ENDBRANCH   6  31
TORSDOF 6
ENDMDL
MODEL 7
REMARK VINA RESULT:      -7.5      6.344     10.979
REMARK  6 active torsions:
REMARK  status: ('A' for Active; 'I' for Inactive)
REMARK    1  A    between atoms: C_2  and  C_3 
REMARK       I    between atoms: C_3  and  N_4 
REMARK    2  A    between atoms: N_4  and  C_5 
REMARK    3  A    between atoms: C_8  and  N_9 
REMARK       I    between atoms: N_9  and  C_10 
REMARK    4  A    between atoms: C_10  and  C_11 
REMARK    5  A    between atoms: C_16  and  C_17 
REMARK    6  A    between atoms: C_23  and  C_24 
ROOT
HETATM    1  C   UNL     1     -43.317  56.606 -56.594  1.00  0.00     0.148 A 
HETATM    2  N   UNL     1     -42.568  55.488 -56.442  1.00  0.00    -0.165 NA
HETATM    3  N   UNL     1     -42.692  55.209 -55.131  1.00  0.00    -0.240 N 
HETATM    4  C   UNL     1     -43.597  55.998 -54.478  1.00  0.00     0.123 A 
HETATM    5  N   UNL     1     -43.939  55.776 -53.193  1.00  0.00    -0.364 N 
HETATM    6  C   UNL     1     -43.241  54.801 -52.354  1.00  0.00     0.143 C 
HETATM    7  C   UNL     1     -42.648  53.673 -53.219  1.00  0.00     0.068 C 
HETATM    8  C   UNL     1     -41.929  54.154 -54.492  1.00  0.00     0.221 C 
HETATM    9  C   UNL     1     -43.991  56.942 -55.387  1.00  0.00     0.089 A 
HETATM   10  H   UNL     1     -44.508  56.450 -52.683  1.00  0.00     0.162 HD
ENDROOT
BRANCH   1  11
HETATM   11  C   UNL     1     -43.398  57.338 -57.870  1.00  0.00     0.276 C 
HETATM   12  N   UNL     1     -42.351  58.225 -58.032  1.00  0.00    -0.322 N 
HETATM   13  H   UNL     1     -41.656  58.176 -57.292  1.00  0.00     0.169 HD
HETATM   14  O   UNL     1     -44.300  57.119 -58.670  1.00  0.00    -0.266 OA
BRANCH  12  15
HETATM   15  C   UNL     1     -42.143  59.126 -59.090  1.00  0.00     0.035 A 
HETATM   16  C   UNL     1     -42.003  58.735 -60.419  1.00  0.00     0.032 A 
HETATM   17  C   UNL     1     -41.827  59.687 -61.433  1.00  0.00     0.032 A 
HETATM   18  C   UNL     1     -41.768  61.047 -61.129  1.00  0.00     0.034 A 
HETATM   19  C   UNL     1     -41.895  61.439 -59.791  1.00  0.00     0.032 A 
HETATM   20  C   UNL     1     -42.099  60.489 -58.783  1.00  0.00     0.032 A 
BRANCH  18  21
HETATM   21  N   UNL     1     -41.574  62.062 -62.088  1.00  0.00    -0.327 N 
HETATM   22  C   UNL     1     -40.450  62.851 -62.259  1.00  0.00     0.221 C 
HETATM   23  O   UNL     1     -39.406  62.781 -61.618  1.00  0.00    -0.273 OA
HETATM   24  H   UNL     1     -42.333  62.197 -62.742  1.00  0.00     0.169 HD
BRANCH  22  25
HETATM   25  C   UNL     1     -40.612  63.911 -63.336  1.00  0.00     0.098 C 
HETATM   26  C   UNL     1     -42.050  64.127 -63.772  1.00  0.00     0.014 C 
ENDBRANCH  22  25
ENDBRANCH  18  21
ENDBRANCH  12  15
ENDBRANCH   1  11
BRANCH   8  27
HETATM   27  C   UNL     1     -40.510  54.625 -54.256  1.00  0.00     0.409 C 
HETATM   28  F   UNL     1     -40.410  55.942 -53.996  1.00  0.00    -0.169 F 
HETATM   29  F   UNL     1     -39.963  53.964 -53.203  1.00  0.00    -0.169 F 
HETATM   30  F   UNL     1     -39.712  54.362 -55.318  1.00  0.00    -0.169 F 
ENDBRANCH   8  27
BRANCH   6  31
HETATM   31  C   UNL     1     -42.260  55.393 -51.394  1.00  0.00     0.075 A 
HETATM   32  O   UNL     1     -42.097  56.748 -51.451  1.00  0.00    -0.325 OA
HETATM   33  C   UNL     1     -41.147  57.074 -50.538  1.00  0.00     0.142 A 
HETATM   34  C   UNL     1     -40.690  55.948 -49.895  1.00  0.00     0.027 A 
HETATM   35  C   UNL     1     -41.404  54.860 -50.450  1.00  0.00     0.037 A 
ENDBRANCH   6  31
TORSDOF 6
ENDMDL
MODEL 8
REMARK VINA RESULT:      -7.1     20.499     22.341
REMARK  6 active torsions:
REMARK  status: ('A' for Active; 'I' for Inactive)
REMARK    1  A    between atoms: C_2  and  C_3 
REMARK       I    between atoms: C_3  and  N_4 
REMARK    2  A    between atoms: N_4  and  C_5 
REMARK    3  A    between atoms: C_8  and  N_9 
REMARK       I    between atoms: N_9  and  C_10 
REMARK    4  A    between atoms: C_10  and  C_11 
REMARK    5  A    between atoms: C_16  and  C_17 
REMARK    6  A    between atoms: C_23  and  C_24 
ROOT
HETATM    1  C   UNL     1     -35.583  41.391 -52.883  1.00  0.00     0.148 A 
HETATM    2  N   UNL     1     -35.152  42.037 -53.993  1.00  0.00    -0.165 NA
HETATM    3  N   UNL     1     -36.097  41.743 -54.907  1.00  0.00    -0.240 N 
HETATM    4  C   UNL     1     -37.174  41.076 -54.397  1.00  0.00     0.123 A 
HETATM    5  N   UNL     1     -38.268  40.814 -55.141  1.00  0.00    -0.364 N 
HETATM    6  C   UNL     1     -38.310  41.058 -56.584  1.00  0.00     0.143 C 
HETATM    7  C   UNL     1     -37.351  42.201 -56.965  1.00  0.00     0.068 C 
HETATM    8  C   UNL     1     -35.964  42.121 -56.301  1.00  0.00     0.221 C 
HETATM    9  C   UNL     1     -36.856  40.794 -53.096  1.00  0.00     0.089 A 
HETATM   10  H   UNL     1     -39.001  40.201 -54.789  1.00  0.00     0.162 HD
ENDROOT
BRANCH   1  11
HETATM   11  C   UNL     1     -34.798  41.349 -51.637  1.00  0.00     0.276 C 
HETATM   12  N   UNL     1     -34.392  40.067 -51.316  1.00  0.00    -0.322 N 
HETATM   13  H   UNL     1     -34.627  39.375 -52.023  1.00  0.00     0.169 HD
HETATM   14  O   UNL     1     -34.541  42.373 -51.015  1.00  0.00    -0.266 OA
BRANCH  12  15
HETATM   15  C   UNL     1     -33.688  39.649 -50.175  1.00  0.00     0.035 A 
HETATM   16  C   UNL     1     -32.415  40.109 -49.843  1.00  0.00     0.032 A 
HETATM   17  C   UNL     1     -31.777  39.674 -48.673  1.00  0.00     0.032 A 
HETATM   18  C   UNL     1     -32.395  38.754 -47.827  1.00  0.00     0.034 A 
HETATM   19  C   UNL     1     -33.667  38.281 -48.168  1.00  0.00     0.032 A 
HETATM   20  C   UNL     1     -34.316  38.738 -49.322  1.00  0.00     0.032 A 
BRANCH  18  21
HETATM   21  N   UNL     1     -31.812  38.254 -46.644  1.00  0.00    -0.327 N 
HETATM   22  C   UNL     1     -30.466  38.216 -46.324  1.00  0.00     0.221 C 
HETATM   23  O   UNL     1     -29.541  38.644 -47.009  1.00  0.00    -0.273 OA
HETATM   24  H   UNL     1     -32.460  37.921 -45.943  1.00  0.00     0.169 HD
BRANCH  22  25
HETATM   25  C   UNL     1     -30.177  37.529 -45.000  1.00  0.00     0.098 C 
HETATM   26  C   UNL     1     -29.619  38.458 -43.936  1.00  0.00     0.014 C 
ENDBRANCH  22  25
ENDBRANCH  18  21
ENDBRANCH  12  15
ENDBRANCH   1  11
BRANCH   8  27
HETATM   27  C   UNL     1     -35.004  41.179 -56.994  1.00  0.00     0.409 C 
HETATM   28  F   UNL     1     -33.739  41.637 -57.050  1.00  0.00    -0.169 F 
HETATM   29  F   UNL     1     -34.971  39.984 -56.352  1.00  0.00    -0.169 F 
HETATM   30  F   UNL     1     -35.392  40.912 -58.263  1.00  0.00    -0.169 F 
ENDBRANCH   8  27
BRANCH   6  31
HETATM   31  C   UNL     1     -38.143  39.836 -57.428  1.00  0.00     0.075 A 
HETATM   32  O   UNL     1     -37.587  38.748 -56.817  1.00  0.00    -0.325 OA
HETATM   33  C   UNL     1     -37.489  37.771 -57.756  1.00  0.00     0.142 A 
HETATM   34  C   UNL     1     -37.969  38.215 -58.965  1.00  0.00     0.027 A 
HETATM   35  C   UNL     1     -38.387  39.550 -58.757  1.00  0.00     0.037 A 
ENDBRANCH   6  31
TORSDOF 6
ENDMDL
MODEL 9
REMARK VINA RESULT:      -7.1      6.821     11.657
REMARK  6 active torsions:
REMARK  status: ('A' for Active; 'I' for Inactive)
REMARK    1  A    between atoms: C_2  and  C_3 
REMARK       I    between atoms: C_3  and  N_4 
REMARK    2  A    between atoms: N_4  and  C_5 
REMARK    3  A    between atoms: C_8  and  N_9 
REMARK       I    between atoms: N_9  and  C_10 
REMARK    4  A    between atoms: C_10  and  C_11 
REMARK    5  A    between atoms: C_16  and  C_17 
REMARK    6  A    between atoms: C_23  and  C_24 
ROOT
HETATM    1  C   UNL     1     -43.224  56.305 -57.576  1.00  0.00     0.148 A 
HETATM    2  N   UNL     1     -42.957  57.383 -56.802  1.00  0.00    -0.165 NA
HETATM    3  N   UNL     1     -42.405  56.842 -55.699  1.00  0.00    -0.240 N 
HETATM    4  C   UNL     1     -42.170  55.500 -55.797  1.00  0.00     0.123 A 
HETATM    5  N   UNL     1     -41.510  54.820 -54.838  1.00  0.00    -0.364 N 
HETATM    6  C   UNL     1     -41.158  55.423 -53.552  1.00  0.00     0.143 C 
HETATM    7  C   UNL     1     -40.987  56.946 -53.700  1.00  0.00     0.068 C 
HETATM    8  C   UNL     1     -42.087  57.636 -54.528  1.00  0.00     0.221 C 
HETATM    9  C   UNL     1     -42.728  55.110 -56.985  1.00  0.00     0.089 A 
HETATM   10  H   UNL     1     -41.463  53.802 -54.861  1.00  0.00     0.162 HD
ENDROOT
BRANCH   1  11
HETATM   11  C   UNL     1     -43.934  56.410 -58.863  1.00  0.00     0.276 C 
HETATM   12  N   UNL     1     -45.150  57.057 -58.739  1.00  0.00    -0.322 N 
HETATM   13  H   UNL     1     -45.325  57.423 -57.808  1.00  0.00     0.169 HD
HETATM   14  O   UNL     1     -43.437  55.982 -59.898  1.00  0.00    -0.266 OA
BRANCH  12  15
HETATM   15  C   UNL     1     -46.112  57.276 -59.739  1.00  0.00     0.035 A 
HETATM   16  C   UNL     1     -46.848  56.256 -60.338  1.00  0.00     0.032 A 
HETATM   17  C   UNL     1     -47.815  56.545 -61.310  1.00  0.00     0.032 A 
HETATM   18  C   UNL     1     -48.047  57.860 -61.714  1.00  0.00     0.034 A 
HETATM   19  C   UNL     1     -47.298  58.883 -61.122  1.00  0.00     0.032 A 
HETATM   20  C   UNL     1     -46.352  58.596 -60.131  1.00  0.00     0.032 A 
BRANCH  18  21
HETATM   21  N   UNL     1     -48.988  58.229 -62.698  1.00  0.00    -0.327 N 
HETATM   22  C   UNL     1     -50.106  59.028 -62.532  1.00  0.00     0.221 C 
HETATM   23  O   UNL     1     -50.458  59.583 -61.495  1.00  0.00    -0.273 OA
HETATM   24  H   UNL     1     -48.795  57.897 -63.633  1.00  0.00     0.169 HD
BRANCH  22  25
HETATM   25  C   UNL     1     -50.954  59.151 -63.787  1.00  0.00     0.098 C 
HETATM   26  C   UNL     1     -52.383  59.587 -63.520  1.00  0.00     0.014 C 
ENDBRANCH  22  25
ENDBRANCH  18  21
ENDBRANCH  12  15
ENDBRANCH   1  11
BRANCH   8  27
HETATM   27  C   UNL     1     -43.353  57.924 -53.750  1.00  0.00     0.409 C 
HETATM   28  F   UNL     1     -43.157  58.065 -52.425  1.00  0.00    -0.169 F 
HETATM   29  F   UNL     1     -43.928  59.070 -54.195  1.00  0.00    -0.169 F 
HETATM   30  F   UNL     1     -44.277  56.950 -53.919  1.00  0.00    -0.169 F 
ENDBRANCH   8  27
BRANCH   6  31
HETATM   31  C   UNL     1     -42.048  55.032 -52.416  1.00  0.00     0.075 A 
HETATM   32  O   UNL     1     -41.708  55.513 -51.184  1.00  0.00    -0.325 OA
HETATM   33  C   UNL     1     -42.610  55.015 -50.299  1.00  0.00     0.142 A 
HETATM   34  C   UNL     1     -43.524  54.215 -50.941  1.00  0.00     0.027 A 
HETATM   35  C   UNL     1     -43.161  54.220 -52.308  1.00  0.00     0.037 A 
ENDBRANCH   6  31
TORSDOF 6
ENDMDL
MODEL 10
REMARK VINA RESULT:      -7.0     21.024     22.646
REMARK  6 active torsions:
REMARK  status: ('A' for Active; 'I' for Inactive)
REMARK    1  A    between atoms: C_2  and  C_3 
REMARK       I    between atoms: C_3  and  N_4 
REMARK    2  A    between atoms: N_4  and  C_5 
REMARK    3  A    between atoms: C_8  and  N_9 
REMARK       I    between atoms: N_9  and  C_10 
REMARK    4  A    between atoms: C_10  and  C_11 
REMARK    5  A    between atoms: C_16  and  C_17 
REMARK    6  A    between atoms: C_23  and  C_24 
ROOT
HETATM    1  C   UNL     1     -35.851  40.337 -54.087  1.00  0.00     0.148 A 
HETATM    2  N   UNL     1     -36.394  41.296 -54.874  1.00  0.00    -0.165 NA
HETATM    3  N   UNL     1     -36.851  40.603 -55.934  1.00  0.00    -0.240 N 
HETATM    4  C   UNL     1     -36.764  39.247 -55.791  1.00  0.00     0.123 A 
HETATM    5  N   UNL     1     -37.289  38.400 -56.699  1.00  0.00    -0.364 N 
HETATM    6  C   UNL     1     -37.825  38.859 -57.981  1.00  0.00     0.143 C 
HETATM    7  C   UNL     1     -38.338  40.306 -57.863  1.00  0.00     0.068 C 
HETATM    8  C   UNL     1     -37.394  41.260 -57.108  1.00  0.00     0.221 C 
HETATM    9  C   UNL     1     -36.082  39.039 -54.623  1.00  0.00     0.089 A 
HETATM   10  H   UNL     1     -37.098  37.400 -56.647  1.00  0.00     0.162 HD
ENDROOT
BRANCH   1  11
HETATM   11  C   UNL     1     -35.131  40.649 -52.840  1.00  0.00     0.276 C 
HETATM   12  N   UNL     1     -34.467  39.549 -52.329  1.00  0.00    -0.322 N 
HETATM   13  H   UNL     1     -34.515  38.729 -52.927  1.00  0.00     0.169 HD
HETATM   14  O   UNL     1     -35.130  41.783 -52.375  1.00  0.00    -0.266 OA
BRANCH  12  15
HETATM   15  C   UNL     1     -33.738  39.465 -51.132  1.00  0.00     0.035 A 
HETATM   16  C   UNL     1     -32.452  39.979 -50.975  1.00  0.00     0.032 A 
HETATM   17  C   UNL     1     -31.789  39.888 -49.743  1.00  0.00     0.032 A 
HETATM   18  C   UNL     1     -32.394  39.263 -48.654  1.00  0.00     0.034 A 
HETATM   19  C   UNL     1     -33.680  38.735 -48.816  1.00  0.00     0.032 A 
HETATM   20  C   UNL     1     -34.353  38.851 -50.038  1.00  0.00     0.032 A 
BRANCH  18  21
HETATM   21  N   UNL     1     -31.785  39.115 -47.390  1.00  0.00    -0.327 N 
HETATM   22  C   UNL     1     -30.447  39.283 -47.079  1.00  0.00     0.221 C 
HETATM   23  O   UNL     1     -29.556  39.623 -47.853  1.00  0.00    -0.273 OA
HETATM   24  H   UNL     1     -32.410  38.897 -46.626  1.00  0.00     0.169 HD
BRANCH  22  25
HETATM   25  C   UNL     1     -30.116  38.959 -45.632  1.00  0.00     0.098 C 
HETATM   26  C   UNL     1     -31.333  38.880 -44.728  1.00  0.00     0.014 C 
ENDBRANCH  22  25
ENDBRANCH  18  21
ENDBRANCH  12  15
ENDBRANCH   1  11
BRANCH   8  27
HETATM   27  C   UNL     1     -36.263  41.804 -57.955  1.00  0.00     0.409 C 
HETATM   28  F   UNL     1     -36.635  42.149 -59.202  1.00  0.00    -0.169 F 
HETATM   29  F   UNL     1     -35.729  42.908 -57.374  1.00  0.00    -0.169 F 
HETATM   30  F   UNL     1     -35.250  40.913 -58.069  1.00  0.00    -0.169 F 
ENDBRANCH   8  27
BRANCH   6  31
HETATM   31  C   UNL     1     -36.917  38.643 -59.149  1.00  0.00     0.075 A 
HETATM   32  O   UNL     1     -35.783  37.920 -58.911  1.00  0.00    -0.325 OA
HETATM   33  C   UNL     1     -35.088  37.874 -60.076  1.00  0.00     0.142 A 
HETATM   34  C   UNL     1     -35.754  38.561 -61.063  1.00  0.00     0.027 A 
HETATM   35  C   UNL     1     -36.934  39.064 -60.464  1.00  0.00     0.037 A 
ENDBRANCH   6  31
TORSDOF 6
ENDMDL
