MODEL 1
REMARK VINA RESULT:     -10.4      0.000      0.000
REMARK  4 active torsions:
REMARK  status: ('A' for Active; 'I' for Inactive)
REMARK    1  A    between atoms: C_2  and  C_3 
REMARK    2  A    between atoms: N_16  and  C_17 
REMARK    3  A    between atoms: C_17  and  C_18 
REMARK       I    between atoms: C_18  and  N_19 
REMARK    4  A    between atoms: N_19  and  C_20 
ROOT
HETATM    1  C   UNL     1     -41.367  56.514 -50.756  1.00  0.00     0.054 C 
HETATM    2  C   UNL     1     -41.397  56.426 -52.285  1.00  0.00     0.140 A 
HETATM    3  N   UNL     1     -40.584  57.494 -52.830  1.00  0.00    -0.321 N 
HETATM    4  C   UNL     1     -41.322  58.456 -53.475  1.00  0.00     0.326 A 
HETATM    5  O   UNL     1     -40.841  59.463 -53.962  1.00  0.00    -0.247 OA
HETATM    6  N   UNL     1     -42.630  58.092 -53.444  1.00  0.00    -0.259 N 
HETATM    7  C   UNL     1     -42.778  56.895 -52.806  1.00  0.00     0.261 A 
HETATM    8  O   UNL     1     -43.848  56.308 -52.681  1.00  0.00    -0.270 OA
HETATM    9  H   UNL     1     -39.586  57.598 -52.707  1.00  0.00     0.165 HD
ENDROOT
BRANCH   6  10
HETATM   10  C   UNL     1     -43.705  58.864 -54.032  1.00  0.00     0.240 C 
BRANCH  10  11
HETATM   11  C   UNL     1     -43.966  58.424 -55.473  1.00  0.00     0.240 C 
HETATM   12  N   UNL     1     -42.819  58.023 -56.145  1.00  0.00    -0.325 N 
HETATM   13  H   UNL     1     -41.978  57.943 -55.581  1.00  0.00     0.169 HD
HETATM   14  O   UNL     1     -45.115  58.338 -55.900  1.00  0.00    -0.271 OA
BRANCH  12  15
HETATM   15  C   UNL     1     -42.714  57.624 -57.504  1.00  0.00     0.047 A 
HETATM   16  C   UNL     1     -42.412  58.595 -58.510  1.00  0.00     0.019 A 
HETATM   17  C   UNL     1     -42.338  58.188 -59.865  1.00  0.00     0.069 A 
HETATM   18  C   UNL     1     -42.147  59.966 -58.270  1.00  0.00     0.017 A 
HETATM   19  N   UNL     1     -42.044  59.023 -60.878  1.00  0.00    -0.260 NA
HETATM   20  C   UNL     1     -42.569  56.861 -60.188  1.00  0.00     0.032 A 
HETATM   21  C   UNL     1     -41.801  60.316 -60.591  1.00  0.00     0.117 A 
HETATM   22  C   UNL     1     -41.838  60.832 -59.316  1.00  0.00     0.020 A 
HETATM   23  C   UNL     1     -42.868  55.913 -59.215  1.00  0.00     0.005 A 
HETATM   24  C   UNL     1     -42.939  56.295 -57.879  1.00  0.00     0.030 A 
ENDBRANCH  12  15
ENDBRANCH  10  11
ENDBRANCH   6  10
BRANCH   2  25
HETATM   25  C   UNL     1     -41.020  55.048 -52.814  1.00  0.00    -0.020 A 
HETATM   26  C   UNL     1     -40.597  54.004 -51.968  1.00  0.00     0.022 A 
HETATM   27  C   UNL     1     -40.269  52.729 -52.466  1.00  0.00    -0.025 A 
HETATM   28  C   UNL     1     -40.355  52.483 -53.853  1.00  0.00    -0.026 A 
HETATM   29  C   UNL     1     -39.859  51.690 -51.613  1.00  0.00     0.012 A 
HETATM   30  C   UNL     1     -40.756  53.521 -54.704  1.00  0.00     0.013 A 
HETATM   31  C   UNL     1     -40.036  51.211 -54.351  1.00  0.00     0.012 A 
HETATM   32  C   UNL     1     -41.079  54.782 -54.192  1.00  0.00     0.011 A 
HETATM   33  C   UNL     1     -39.634  50.189 -53.490  1.00  0.00     0.001 A 
HETATM   34  C   UNL     1     -39.544  50.429 -52.122  1.00  0.00     0.001 A 
ENDBRANCH   2  25
TORSDOF 4
ENDMDL
MODEL 2
REMARK VINA RESULT:     -10.2      1.800      2.087
REMARK  4 active torsions:
REMARK  status: ('A' for Active; 'I' for Inactive)
REMARK    1  A    between atoms: C_2  and  C_3 
REMARK    2  A    between atoms: N_16  and  C_17 
REMARK    3  A    between atoms: C_17  and  C_18 
REMARK       I    between atoms: C_18  and  N_19 
REMARK    4  A    between atoms: N_19  and  C_20 
ROOT
HETATM    1  C   UNL     1     -41.812  56.056 -50.755  1.00  0.00     0.054 C 
HETATM    2  C   UNL     1     -41.453  56.105 -52.243  1.00  0.00     0.140 A 
HETATM    3  N   UNL     1     -40.470  57.149 -52.452  1.00  0.00    -0.321 N 
HETATM    4  C   UNL     1     -40.964  58.220 -53.155  1.00  0.00     0.326 A 
HETATM    5  O   UNL     1     -40.319  59.224 -53.397  1.00  0.00    -0.247 OA
HETATM    6  N   UNL     1     -42.253  57.961 -53.491  1.00  0.00    -0.259 N 
HETATM    7  C   UNL     1     -42.626  56.728 -53.039  1.00  0.00     0.261 A 
HETATM    8  O   UNL     1     -43.722  56.220 -53.250  1.00  0.00    -0.270 OA
HETATM    9  H   UNL     1     -39.533  57.162 -52.073  1.00  0.00     0.165 HD
ENDROOT
BRANCH   6  10
HETATM   10  C   UNL     1     -43.097  58.865 -54.244  1.00  0.00     0.240 C 
BRANCH  10  11
HETATM   11  C   UNL     1     -42.977  58.599 -55.745  1.00  0.00     0.240 C 
HETATM   12  N   UNL     1     -43.834  57.606 -56.200  1.00  0.00    -0.325 N 
HETATM   13  H   UNL     1     -44.518  57.267 -55.530  1.00  0.00     0.169 HD
HETATM   14  O   UNL     1     -42.266  59.311 -56.448  1.00  0.00    -0.271 OA
BRANCH  12  15
HETATM   15  C   UNL     1     -43.919  57.082 -57.517  1.00  0.00     0.047 A 
HETATM   16  C   UNL     1     -45.011  57.455 -58.363  1.00  0.00     0.019 A 
HETATM   17  C   UNL     1     -45.098  56.902 -59.665  1.00  0.00     0.069 A 
HETATM   18  C   UNL     1     -46.034  58.374 -58.020  1.00  0.00     0.017 A 
HETATM   19  N   UNL     1     -46.076  57.205 -60.537  1.00  0.00    -0.260 NA
HETATM   20  C   UNL     1     -44.131  56.006 -60.087  1.00  0.00     0.032 A 
HETATM   21  C   UNL     1     -47.022  58.086 -60.158  1.00  0.00     0.117 A 
HETATM   22  C   UNL     1     -47.045  58.693 -58.923  1.00  0.00     0.020 A 
HETATM   23  C   UNL     1     -43.070  55.635 -59.267  1.00  0.00     0.005 A 
HETATM   24  C   UNL     1     -42.965  56.173 -57.989  1.00  0.00     0.030 A 
ENDBRANCH  12  15
ENDBRANCH  10  11
ENDBRANCH   6  10
BRANCH   2  25
HETATM   25  C   UNL     1     -41.029  54.753 -52.804  1.00  0.00    -0.020 A 
HETATM   26  C   UNL     1     -40.628  53.686 -51.977  1.00  0.00     0.022 A 
HETATM   27  C   UNL     1     -40.257  52.435 -52.505  1.00  0.00    -0.025 A 
HETATM   28  C   UNL     1     -40.275  52.240 -53.903  1.00  0.00    -0.026 A 
HETATM   29  C   UNL     1     -39.869  51.371 -51.673  1.00  0.00     0.012 A 
HETATM   30  C   UNL     1     -40.653  53.302 -54.733  1.00  0.00     0.013 A 
HETATM   31  C   UNL     1     -39.912  50.991 -54.432  1.00  0.00     0.012 A 
HETATM   32  C   UNL     1     -41.021  54.538 -54.192  1.00  0.00     0.011 A 
HETATM   33  C   UNL     1     -39.533  49.945 -53.591  1.00  0.00     0.001 A 
HETATM   34  C   UNL     1     -39.510  50.135 -52.212  1.00  0.00     0.001 A 
ENDBRANCH   2  25
TORSDOF 4
ENDMDL
MODEL 3
REMARK VINA RESULT:     -10.1      2.189      3.050
REMARK  4 active torsions:
REMARK  status: ('A' for Active; 'I' for Inactive)
REMARK    1  A    between atoms: C_2  and  C_3 
REMARK    2  A    between atoms: N_16  and  C_17 
REMARK    3  A    between atoms: C_17  and  C_18 
REMARK       I    between atoms: C_18  and  N_19 
REMARK    4  A    between atoms: N_19  and  C_20 
ROOT
HETATM    1  C   UNL     1     -41.234  55.034 -49.105  1.00  0.00     0.054 C 
HETATM    2  C   UNL     1     -41.255  55.506 -50.562  1.00  0.00     0.140 A 
HETATM    3  N   UNL     1     -40.408  56.675 -50.687  1.00  0.00    -0.321 N 
HETATM    4  C   UNL     1     -41.114  57.826 -50.935  1.00  0.00     0.326 A 
HETATM    5  O   UNL     1     -40.600  58.926 -51.026  1.00  0.00    -0.247 OA
HETATM    6  N   UNL     1     -42.431  57.515 -51.034  1.00  0.00    -0.259 N 
HETATM    7  C   UNL     1     -42.618  56.173 -50.871  1.00  0.00     0.261 A 
HETATM    8  O   UNL     1     -43.706  55.613 -50.964  1.00  0.00    -0.270 OA
HETATM    9  H   UNL     1     -39.409  56.698 -50.538  1.00  0.00     0.165 HD
ENDROOT
BRANCH   6  10
HETATM   10  C   UNL     1     -43.479  58.479 -51.297  1.00  0.00     0.240 C 
BRANCH  10  11
HETATM   11  C   UNL     1     -43.467  58.909 -52.765  1.00  0.00     0.240 C 
HETATM   12  N   UNL     1     -44.396  58.235 -53.546  1.00  0.00    -0.325 N 
HETATM   13  H   UNL     1     -45.053  57.642 -53.045  1.00  0.00     0.169 HD
HETATM   14  O   UNL     1     -42.768  59.850 -53.132  1.00  0.00    -0.271 OA
BRANCH  12  15
HETATM   15  C   UNL     1     -44.589  58.354 -54.947  1.00  0.00     0.047 A 
HETATM   16  C   UNL     1     -44.022  57.382 -55.830  1.00  0.00     0.019 A 
HETATM   17  C   UNL     1     -44.198  57.530 -57.228  1.00  0.00     0.069 A 
HETATM   18  C   UNL     1     -43.295  56.235 -55.425  1.00  0.00     0.017 A 
HETATM   19  N   UNL     1     -43.717  56.660 -58.135  1.00  0.00    -0.260 NA
HETATM   20  C   UNL     1     -44.909  58.616 -57.711  1.00  0.00     0.032 A 
HETATM   21  C   UNL     1     -43.035  55.586 -57.692  1.00  0.00     0.117 A 
HETATM   22  C   UNL     1     -42.800  55.330 -56.361  1.00  0.00     0.020 A 
HETATM   23  C   UNL     1     -45.459  59.567 -56.858  1.00  0.00     0.005 A 
HETATM   24  C   UNL     1     -45.300  59.434 -55.482  1.00  0.00     0.030 A 
ENDBRANCH  12  15
ENDBRANCH  10  11
ENDBRANCH   6  10
BRANCH   2  25
HETATM   25  C   UNL     1     -40.915  54.403 -51.556  1.00  0.00    -0.020 A 
HETATM   26  C   UNL     1     -40.470  53.130 -51.148  1.00  0.00     0.022 A 
HETATM   27  C   UNL     1     -40.177  52.112 -52.075  1.00  0.00    -0.025 A 
HETATM   28  C   UNL     1     -40.320  52.369 -53.455  1.00  0.00    -0.026 A 
HETATM   29  C   UNL     1     -39.744  50.841 -51.659  1.00  0.00     0.012 A 
HETATM   30  C   UNL     1     -40.743  53.638 -53.871  1.00  0.00     0.013 A 
HETATM   31  C   UNL     1     -40.035  51.354 -54.381  1.00  0.00     0.012 A 
HETATM   32  C   UNL     1     -41.031  54.638 -52.937  1.00  0.00     0.011 A 
HETATM   33  C   UNL     1     -39.610  50.096 -53.951  1.00  0.00     0.001 A 
HETATM   34  C   UNL     1     -39.464  49.841 -52.591  1.00  0.00     0.001 A 
ENDBRANCH   2  25
TORSDOF 4
ENDMDL
MODEL 4
REMARK VINA RESULT:      -9.9      1.760      2.771
REMARK  4 active torsions:
REMARK  status: ('A' for Active; 'I' for Inactive)
REMARK    1  A    between atoms: C_2  and  C_3 
REMARK    2  A    between atoms: N_16  and  C_17 
REMARK    3  A    between atoms: C_17  and  C_18 
REMARK       I    between atoms: C_18  and  N_19 
REMARK    4  A    between atoms: N_19  and  C_20 
ROOT
HETATM    1  C   UNL     1     -41.021  54.978 -48.586  1.00  0.00     0.054 C 
HETATM    2  C   UNL     1     -41.193  55.027 -50.108  1.00  0.00     0.140 A 
HETATM    3  N   UNL     1     -40.511  56.198 -50.617  1.00  0.00    -0.321 N 
HETATM    4  C   UNL     1     -41.371  57.155 -51.095  1.00  0.00     0.326 A 
HETATM    5  O   UNL     1     -41.008  58.236 -51.524  1.00  0.00    -0.247 OA
HETATM    6  N   UNL     1     -42.642  56.692 -50.983  1.00  0.00    -0.259 N 
HETATM    7  C   UNL     1     -42.646  55.435 -50.453  1.00  0.00     0.261 A 
HETATM    8  O   UNL     1     -43.657  54.759 -50.290  1.00  0.00    -0.270 OA
HETATM    9  H   UNL     1     -39.515  56.366 -50.575  1.00  0.00     0.165 HD
ENDROOT
BRANCH   6  10
HETATM   10  C   UNL     1     -43.818  57.430 -51.393  1.00  0.00     0.240 C 
BRANCH  10  11
HETATM   11  C   UNL     1     -44.057  57.283 -52.896  1.00  0.00     0.240 C 
HETATM   12  N   UNL     1     -42.986  56.714 -53.573  1.00  0.00    -0.325 N 
HETATM   13  H   UNL     1     -42.236  56.348 -52.992  1.00  0.00     0.169 HD
HETATM   14  O   UNL     1     -45.154  57.546 -53.381  1.00  0.00    -0.271 OA
BRANCH  12  15
HETATM   15  C   UNL     1     -42.867  56.504 -54.971  1.00  0.00     0.047 A 
HETATM   16  C   UNL     1     -42.567  57.606 -55.834  1.00  0.00     0.019 A 
HETATM   17  C   UNL     1     -42.479  57.387 -57.232  1.00  0.00     0.069 A 
HETATM   18  C   UNL     1     -42.319  58.934 -55.408  1.00  0.00     0.017 A 
HETATM   19  N   UNL     1     -42.187  58.354 -58.119  1.00  0.00    -0.260 NA
HETATM   20  C   UNL     1     -42.693  56.114 -57.733  1.00  0.00     0.032 A 
HETATM   21  C   UNL     1     -41.959  59.599 -57.657  1.00  0.00     0.117 A 
HETATM   22  C   UNL     1     -42.012  59.937 -56.324  1.00  0.00     0.020 A 
HETATM   23  C   UNL     1     -42.989  55.040 -56.899  1.00  0.00     0.005 A 
HETATM   24  C   UNL     1     -43.074  55.236 -55.525  1.00  0.00     0.030 A 
ENDBRANCH  12  15
ENDBRANCH  10  11
ENDBRANCH   6  10
BRANCH   2  25
HETATM   25  C   UNL     1     -40.778  53.734 -50.800  1.00  0.00    -0.020 A 
HETATM   26  C   UNL     1     -40.733  53.611 -52.202  1.00  0.00     0.022 A 
HETATM   27  C   UNL     1     -40.329  52.418 -52.831  1.00  0.00    -0.025 A 
HETATM   28  C   UNL     1     -39.967  51.306 -52.041  1.00  0.00    -0.026 A 
HETATM   29  C   UNL     1     -40.277  52.306 -54.231  1.00  0.00     0.012 A 
HETATM   30  C   UNL     1     -40.028  51.414 -50.647  1.00  0.00     0.013 A 
HETATM   31  C   UNL     1     -39.559  50.117 -52.666  1.00  0.00     0.012 A 
HETATM   32  C   UNL     1     -40.430  52.607 -50.037  1.00  0.00     0.011 A 
HETATM   33  C   UNL     1     -39.508  50.025 -54.057  1.00  0.00     0.001 A 
HETATM   34  C   UNL     1     -39.868  51.118 -54.840  1.00  0.00     0.001 A 
ENDBRANCH   2  25
TORSDOF 4
ENDMDL
MODEL 5
REMARK VINA RESULT:      -9.9      1.265      2.323
REMARK  4 active torsions:
REMARK  status: ('A' for Active; 'I' for Inactive)
REMARK    1  A    between atoms: C_2  and  C_3 
REMARK    2  A    between atoms: N_16  and  C_17 
REMARK    3  A    between atoms: C_17  and  C_18 
REMARK       I    between atoms: C_18  and  N_19 
REMARK    4  A    between atoms: N_19  and  C_20 
ROOT
HETATM    1  C   UNL     1     -43.858  56.186 -50.970  1.00  0.00     0.054 C 
HETATM    2  C   UNL     1     -42.839  56.492 -52.071  1.00  0.00     0.140 A 
HETATM    3  N   UNL     1     -41.888  57.463 -51.570  1.00  0.00    -0.321 N 
HETATM    4  C   UNL     1     -42.004  58.691 -52.173  1.00  0.00     0.326 A 
HETATM    5  O   UNL     1     -41.334  59.660 -51.865  1.00  0.00    -0.247 OA
HETATM    6  N   UNL     1     -42.978  58.621 -53.115  1.00  0.00    -0.259 N 
HETATM    7  C   UNL     1     -43.504  57.363 -53.166  1.00  0.00     0.261 A 
HETATM    8  O   UNL     1     -44.365  57.008 -53.965  1.00  0.00    -0.270 OA
HETATM    9  H   UNL     1     -41.242  57.316 -50.807  1.00  0.00     0.165 HD
ENDROOT
BRANCH   6  10
HETATM   10  C   UNL     1     -43.378  59.728 -53.959  1.00  0.00     0.240 C 
BRANCH  10  11
HETATM   11  C   UNL     1     -42.636  59.690 -55.296  1.00  0.00     0.240 C 
HETATM   12  N   UNL     1     -43.478  59.553 -56.391  1.00  0.00    -0.325 N 
HETATM   13  H   UNL     1     -44.473  59.624 -56.199  1.00  0.00     0.169 HD
HETATM   14  O   UNL     1     -41.425  59.889 -55.342  1.00  0.00    -0.271 OA
BRANCH  12  15
HETATM   15  C   UNL     1     -43.101  59.420 -57.753  1.00  0.00     0.047 A 
HETATM   16  C   UNL     1     -43.031  58.121 -58.350  1.00  0.00     0.019 A 
HETATM   17  C   UNL     1     -42.626  58.001 -59.702  1.00  0.00     0.069 A 
HETATM   18  C   UNL     1     -43.361  56.905 -57.702  1.00  0.00     0.017 A 
HETATM   19  N   UNL     1     -42.546  56.827 -60.353  1.00  0.00    -0.260 NA
HETATM   20  C   UNL     1     -42.298  59.142 -60.416  1.00  0.00     0.032 A 
HETATM   21  C   UNL     1     -42.873  55.703 -59.688  1.00  0.00     0.117 A 
HETATM   22  C   UNL     1     -43.284  55.689 -58.374  1.00  0.00     0.020 A 
HETATM   23  C   UNL     1     -42.360  60.407 -59.840  1.00  0.00     0.005 A 
HETATM   24  C   UNL     1     -42.761  60.544 -58.515  1.00  0.00     0.030 A 
ENDBRANCH  12  15
ENDBRANCH  10  11
ENDBRANCH   6  10
BRANCH   2  25
HETATM   25  C   UNL     1     -42.184  55.243 -52.648  1.00  0.00    -0.020 A 
HETATM   26  C   UNL     1     -41.335  54.417 -51.887  1.00  0.00     0.022 A 
HETATM   27  C   UNL     1     -40.750  53.255 -52.425  1.00  0.00    -0.025 A 
HETATM   28  C   UNL     1     -41.009  52.907 -53.768  1.00  0.00    -0.026 A 
HETATM   29  C   UNL     1     -39.913  52.429 -51.655  1.00  0.00     0.012 A 
HETATM   30  C   UNL     1     -41.836  53.733 -54.538  1.00  0.00     0.013 A 
HETATM   31  C   UNL     1     -40.432  51.745 -54.304  1.00  0.00     0.012 A 
HETATM   32  C   UNL     1     -42.410  54.884 -53.987  1.00  0.00     0.011 A 
HETATM   33  C   UNL     1     -39.606  50.934 -53.525  1.00  0.00     0.001 A 
HETATM   34  C   UNL     1     -39.346  51.277 -52.201  1.00  0.00     0.001 A 
ENDBRANCH   2  25
TORSDOF 4
ENDMDL
MODEL 6
REMARK VINA RESULT:      -9.9      1.700      2.330
REMARK  4 active torsions:
REMARK  status: ('A' for Active; 'I' for Inactive)
REMARK    1  A    between atoms: C_2  and  C_3 
REMARK    2  A    between atoms: N_16  and  C_17 
REMARK    3  A    between atoms: C_17  and  C_18 
REMARK       I    between atoms: C_18  and  N_19 
REMARK    4  A    between atoms: N_19  and  C_20 
ROOT
HETATM    1  C   UNL     1     -41.012  57.540 -50.250  1.00  0.00     0.054 C 
HETATM    2  C   UNL     1     -41.402  56.899 -51.585  1.00  0.00     0.140 A 
HETATM    3  N   UNL     1     -40.917  57.735 -52.664  1.00  0.00    -0.321 N 
HETATM    4  C   UNL     1     -41.926  58.356 -53.358  1.00  0.00     0.326 A 
HETATM    5  O   UNL     1     -41.735  59.140 -54.270  1.00  0.00    -0.247 OA
HETATM    6  N   UNL     1     -43.116  57.961 -52.839  1.00  0.00    -0.259 N 
HETATM    7  C   UNL     1     -42.922  57.074 -51.821  1.00  0.00     0.261 A 
HETATM    8  O   UNL     1     -43.829  56.518 -51.210  1.00  0.00    -0.270 OA
HETATM    9  H   UNL     1     -39.946  57.929 -52.869  1.00  0.00     0.165 HD
ENDROOT
BRANCH   6  10
HETATM   10  C   UNL     1     -44.405  58.409 -53.324  1.00  0.00     0.240 C 
BRANCH  10  11
HETATM   11  C   UNL     1     -44.776  57.695 -54.624  1.00  0.00     0.240 C 
HETATM   12  N   UNL     1     -44.890  58.551 -55.711  1.00  0.00    -0.325 N 
HETATM   13  H   UNL     1     -44.595  59.511 -55.555  1.00  0.00     0.169 HD
HETATM   14  O   UNL     1     -44.833  56.469 -54.667  1.00  0.00    -0.271 OA
BRANCH  12  15
HETATM   15  C   UNL     1     -45.283  58.214 -57.033  1.00  0.00     0.047 A 
HETATM   16  C   UNL     1     -44.291  58.056 -58.053  1.00  0.00     0.019 A 
HETATM   17  C   UNL     1     -44.700  57.747 -59.374  1.00  0.00     0.069 A 
HETATM   18  C   UNL     1     -42.892  58.160 -57.855  1.00  0.00     0.017 A 
HETATM   19  N   UNL     1     -43.842  57.564 -60.394  1.00  0.00    -0.260 NA
HETATM   20  C   UNL     1     -46.050  57.614 -59.652  1.00  0.00     0.032 A 
HETATM   21  C   UNL     1     -42.523  57.673 -60.148  1.00  0.00     0.117 A 
HETATM   22  C   UNL     1     -42.002  57.966 -58.908  1.00  0.00     0.020 A 
HETATM   23  C   UNL     1     -47.019  57.771 -58.666  1.00  0.00     0.005 A 
HETATM   24  C   UNL     1     -46.635  58.068 -57.363  1.00  0.00     0.030 A 
ENDBRANCH  12  15
ENDBRANCH  10  11
ENDBRANCH   6  10
BRANCH   2  25
HETATM   25  C   UNL     1     -40.964  55.444 -51.703  1.00  0.00    -0.020 A 
HETATM   26  C   UNL     1     -40.994  54.744 -52.924  1.00  0.00     0.022 A 
HETATM   27  C   UNL     1     -40.569  53.405 -53.025  1.00  0.00    -0.025 A 
HETATM   28  C   UNL     1     -40.109  52.736 -51.871  1.00  0.00    -0.026 A 
HETATM   29  C   UNL     1     -40.591  52.717 -54.250  1.00  0.00     0.012 A 
HETATM   30  C   UNL     1     -40.095  53.418 -50.648  1.00  0.00     0.013 A 
HETATM   31  C   UNL     1     -39.679  51.403 -51.970  1.00  0.00     0.012 A 
HETATM   32  C   UNL     1     -40.519  54.749 -50.566  1.00  0.00     0.011 A 
HETATM   33  C   UNL     1     -39.703  50.736 -53.195  1.00  0.00     0.001 A 
HETATM   34  C   UNL     1     -40.160  51.392 -54.334  1.00  0.00     0.001 A 
ENDBRANCH   2  25
TORSDOF 4
ENDMDL
MODEL 7
REMARK VINA RESULT:      -9.5      2.432      6.920
REMARK  4 active torsions:
REMARK  status: ('A' for Active; 'I' for Inactive)
REMARK    1  A    between atoms: C_2  and  C_3 
REMARK    2  A    between atoms: N_16  and  C_17 
REMARK    3  A    between atoms: C_17  and  C_18 
REMARK       I    between atoms: C_18  and  N_19 
REMARK    4  A    between atoms: N_19  and  C_20 
ROOT
HETATM    1  C   UNL     1     -42.937  61.426 -55.032  1.00  0.00     0.054 C 
HETATM    2  C   UNL     1     -43.062  60.018 -54.442  1.00  0.00     0.140 A 
HETATM    3  N   UNL     1     -44.199  59.987 -53.545  1.00  0.00    -0.321 N 
HETATM    4  C   UNL     1     -43.839  59.852 -52.227  1.00  0.00     0.326 A 
HETATM    5  O   UNL     1     -44.635  59.852 -51.305  1.00  0.00    -0.247 OA
HETATM    6  N   UNL     1     -42.488  59.745 -52.154  1.00  0.00    -0.259 N 
HETATM    7  C   UNL     1     -41.938  59.789 -53.403  1.00  0.00     0.261 A 
HETATM    8  O   UNL     1     -40.740  59.662 -53.633  1.00  0.00    -0.270 OA
HETATM    9  H   UNL     1     -45.164  60.123 -53.810  1.00  0.00     0.165 HD
ENDROOT
BRANCH   6  10
HETATM   10  C   UNL     1     -41.747  59.583 -50.920  1.00  0.00     0.240 C 
BRANCH  10  11
HETATM   11  C   UNL     1     -40.972  58.265 -50.919  1.00  0.00     0.240 C 
HETATM   12  N   UNL     1     -41.761  57.159 -51.205  1.00  0.00    -0.325 N 
HETATM   13  H   UNL     1     -42.712  57.357 -51.504  1.00  0.00     0.169 HD
HETATM   14  O   UNL     1     -39.750  58.261 -50.793  1.00  0.00    -0.271 OA
BRANCH  12  15
HETATM   15  C   UNL     1     -41.361  55.797 -51.216  1.00  0.00     0.047 A 
HETATM   16  C   UNL     1     -41.029  55.162 -52.454  1.00  0.00     0.019 A 
HETATM   17  C   UNL     1     -40.659  53.794 -52.452  1.00  0.00     0.069 A 
HETATM   18  C   UNL     1     -41.012  55.798 -53.720  1.00  0.00     0.017 A 
HETATM   19  N   UNL     1     -40.314  53.116 -53.562  1.00  0.00    -0.260 NA
HETATM   20  C   UNL     1     -40.635  53.099 -51.255  1.00  0.00     0.032 A 
HETATM   21  C   UNL     1     -40.314  53.771 -54.738  1.00  0.00     0.117 A 
HETATM   22  C   UNL     1     -40.651  55.099 -54.869  1.00  0.00     0.020 A 
HETATM   23  C   UNL     1     -40.962  53.710 -50.049  1.00  0.00     0.005 A 
HETATM   24  C   UNL     1     -41.322  55.054 -50.031  1.00  0.00     0.030 A 
ENDBRANCH  12  15
ENDBRANCH  10  11
ENDBRANCH   6  10
BRANCH   2  25
HETATM   25  C   UNL     1     -43.098  58.925 -55.503  1.00  0.00    -0.020 A 
HETATM   26  C   UNL     1     -42.546  59.100 -56.786  1.00  0.00     0.022 A 
HETATM   27  C   UNL     1     -42.568  58.076 -57.752  1.00  0.00    -0.025 A 
HETATM   28  C   UNL     1     -43.167  56.838 -57.436  1.00  0.00    -0.026 A 
HETATM   29  C   UNL     1     -42.004  58.255 -59.027  1.00  0.00     0.012 A 
HETATM   30  C   UNL     1     -43.736  56.662 -56.169  1.00  0.00     0.013 A 
HETATM   31  C   UNL     1     -43.184  55.813 -58.395  1.00  0.00     0.012 A 
HETATM   32  C   UNL     1     -43.705  57.689 -55.221  1.00  0.00     0.011 A 
HETATM   33  C   UNL     1     -42.616  56.007 -59.655  1.00  0.00     0.001 A 
HETATM   34  C   UNL     1     -42.028  57.228 -59.971  1.00  0.00     0.001 A 
ENDBRANCH   2  25
TORSDOF 4
ENDMDL
MODEL 8
REMARK VINA RESULT:      -9.4      4.013      6.264
REMARK  4 active torsions:
REMARK  status: ('A' for Active; 'I' for Inactive)
REMARK    1  A    between atoms: C_2  and  C_3 
REMARK    2  A    between atoms: N_16  and  C_17 
REMARK    3  A    between atoms: C_17  and  C_18 
REMARK       I    between atoms: C_18  and  N_19 
REMARK    4  A    between atoms: N_19  and  C_20 
ROOT
HETATM    1  C   UNL     1     -40.875  56.653 -50.016  1.00  0.00     0.054 C 
HETATM    2  C   UNL     1     -41.390  56.048 -51.326  1.00  0.00     0.140 A 
HETATM    3  N   UNL     1     -41.057  56.943 -52.416  1.00  0.00    -0.321 N 
HETATM    4  C   UNL     1     -42.158  57.551 -52.967  1.00  0.00     0.326 A 
HETATM    5  O   UNL     1     -42.097  58.375 -53.861  1.00  0.00    -0.247 OA
HETATM    6  N   UNL     1     -43.268  57.092 -52.337  1.00  0.00    -0.259 N 
HETATM    7  C   UNL     1     -42.932  56.174 -51.384  1.00  0.00     0.261 A 
HETATM    8  O   UNL     1     -43.745  55.561 -50.700  1.00  0.00    -0.270 OA
HETATM    9  H   UNL     1     -40.123  57.181 -52.719  1.00  0.00     0.165 HD
ENDROOT
BRANCH   6  10
HETATM   10  C   UNL     1     -44.618  57.508 -52.656  1.00  0.00     0.240 C 
BRANCH  10  11
HETATM   11  C   UNL     1     -45.161  58.460 -51.590  1.00  0.00     0.240 C 
HETATM   12  N   UNL     1     -44.875  59.795 -51.843  1.00  0.00    -0.325 N 
HETATM   13  H   UNL     1     -44.462  59.997 -52.749  1.00  0.00     0.169 HD
HETATM   14  O   UNL     1     -45.879  58.038 -50.687  1.00  0.00    -0.271 OA
BRANCH  12  15
HETATM   15  C   UNL     1     -45.179  60.910 -51.019  1.00  0.00     0.047 A 
HETATM   16  C   UNL     1     -46.307  61.736 -51.324  1.00  0.00     0.019 A 
HETATM   17  C   UNL     1     -46.581  62.862 -50.509  1.00  0.00     0.069 A 
HETATM   18  C   UNL     1     -47.219  61.513 -52.386  1.00  0.00     0.017 A 
HETATM   19  N   UNL     1     -47.626  63.686 -50.708  1.00  0.00    -0.260 NA
HETATM   20  C   UNL     1     -45.748  63.145 -49.440  1.00  0.00     0.032 A 
HETATM   21  C   UNL     1     -48.461  63.425 -51.731  1.00  0.00     0.117 A 
HETATM   22  C   UNL     1     -48.304  62.362 -52.590  1.00  0.00     0.020 A 
HETATM   23  C   UNL     1     -44.647  62.348 -49.141  1.00  0.00     0.005 A 
HETATM   24  C   UNL     1     -44.366  61.236 -49.927  1.00  0.00     0.030 A 
ENDBRANCH  12  15
ENDBRANCH  10  11
ENDBRANCH   6  10
BRANCH   2  25
HETATM   25  C   UNL     1     -40.920  54.617 -51.552  1.00  0.00    -0.020 A 
HETATM   26  C   UNL     1     -40.990  53.990 -52.811  1.00  0.00     0.022 A 
HETATM   27  C   UNL     1     -40.536  52.673 -53.013  1.00  0.00    -0.025 A 
HETATM   28  C   UNL     1     -40.001  51.950 -51.925  1.00  0.00    -0.026 A 
HETATM   29  C   UNL     1     -40.599  52.058 -54.275  1.00  0.00     0.012 A 
HETATM   30  C   UNL     1     -39.945  52.559 -50.665  1.00  0.00     0.013 A 
HETATM   31  C   UNL     1     -39.541  50.639 -52.125  1.00  0.00     0.012 A 
HETATM   32  C   UNL     1     -40.401  53.869 -50.482  1.00  0.00     0.011 A 
HETATM   33  C   UNL     1     -39.608  50.045 -53.386  1.00  0.00     0.001 A 
HETATM   34  C   UNL     1     -40.138  50.754 -54.460  1.00  0.00     0.001 A 
ENDBRANCH   2  25
TORSDOF 4
ENDMDL
MODEL 9
REMARK VINA RESULT:      -9.3      2.230      6.950
REMARK  4 active torsions:
REMARK  status: ('A' for Active; 'I' for Inactive)
REMARK    1  A    between atoms: C_2  and  C_3 
REMARK    2  A    between atoms: N_16  and  C_17 
REMARK    3  A    between atoms: C_17  and  C_18 
REMARK       I    between atoms: C_18  and  N_19 
REMARK    4  A    between atoms: N_19  and  C_20 
ROOT
HETATM    1  C   UNL     1     -44.951  59.381 -55.462  1.00  0.00     0.054 C 
HETATM    2  C   UNL     1     -43.601  58.688 -55.256  1.00  0.00     0.140 A 
HETATM    3  N   UNL     1     -42.752  58.971 -56.394  1.00  0.00    -0.321 N 
HETATM    4  C   UNL     1     -42.517  57.869 -57.177  1.00  0.00     0.326 A 
HETATM    5  O   UNL     1     -41.869  57.898 -58.208  1.00  0.00    -0.247 OA
HETATM    6  N   UNL     1     -43.134  56.798 -56.616  1.00  0.00    -0.259 N 
HETATM    7  C   UNL     1     -43.765  57.162 -55.462  1.00  0.00     0.261 A 
HETATM    8  O   UNL     1     -44.358  56.380 -54.726  1.00  0.00    -0.270 OA
HETATM    9  H   UNL     1     -42.411  59.884 -56.663  1.00  0.00     0.165 HD
ENDROOT
BRANCH   6  10
HETATM   10  C   UNL     1     -43.101  55.458 -57.164  1.00  0.00     0.240 C 
BRANCH  10  11
HETATM   11  C   UNL     1     -42.807  54.430 -56.071  1.00  0.00     0.240 C 
HETATM   12  N   UNL     1     -41.677  54.727 -55.321  1.00  0.00    -0.325 N 
HETATM   13  H   UNL     1     -41.257  55.637 -55.491  1.00  0.00     0.169 HD
HETATM   14  O   UNL     1     -43.599  53.518 -55.845  1.00  0.00    -0.271 OA
BRANCH  12  15
HETATM   15  C   UNL     1     -41.103  53.945 -54.285  1.00  0.00     0.047 A 
HETATM   16  C   UNL     1     -41.165  54.401 -52.930  1.00  0.00     0.019 A 
HETATM   17  C   UNL     1     -40.563  53.625 -51.910  1.00  0.00     0.069 A 
HETATM   18  C   UNL     1     -41.814  55.584 -52.495  1.00  0.00     0.017 A 
HETATM   19  N   UNL     1     -40.584  53.962 -50.608  1.00  0.00    -0.260 NA
HETATM   20  C   UNL     1     -39.919  52.446 -52.246  1.00  0.00     0.032 A 
HETATM   21  C   UNL     1     -41.217  55.096 -50.251  1.00  0.00     0.117 A 
HETATM   22  C   UNL     1     -41.842  55.933 -51.147  1.00  0.00     0.020 A 
HETATM   23  C   UNL     1     -39.851  51.999 -53.562  1.00  0.00     0.005 A 
HETATM   24  C   UNL     1     -40.442  52.747 -54.575  1.00  0.00     0.030 A 
ENDBRANCH  12  15
ENDBRANCH  10  11
ENDBRANCH   6  10
BRANCH   2  25
HETATM   25  C   UNL     1     -42.953  59.021 -53.918  1.00  0.00    -0.020 A 
HETATM   26  C   UNL     1     -41.575  58.845 -53.683  1.00  0.00     0.022 A 
HETATM   27  C   UNL     1     -40.984  59.174 -52.448  1.00  0.00    -0.025 A 
HETATM   28  C   UNL     1     -41.789  59.687 -51.409  1.00  0.00    -0.026 A 
HETATM   29  C   UNL     1     -39.606  59.006 -52.225  1.00  0.00     0.012 A 
HETATM   30  C   UNL     1     -43.162  59.847 -51.628  1.00  0.00     0.013 A 
HETATM   31  C   UNL     1     -41.200  60.023 -50.179  1.00  0.00     0.012 A 
HETATM   32  C   UNL     1     -43.734  59.516 -52.860  1.00  0.00     0.011 A 
HETATM   33  C   UNL     1     -39.830  59.853 -49.976  1.00  0.00     0.001 A 
HETATM   34  C   UNL     1     -39.034  59.344 -50.998  1.00  0.00     0.001 A 
ENDBRANCH   2  25
TORSDOF 4
ENDMDL
MODEL 10
REMARK VINA RESULT:      -9.3      4.316      7.380
REMARK  4 active torsions:
REMARK  status: ('A' for Active; 'I' for Inactive)
REMARK    1  A    between atoms: C_2  and  C_3 
REMARK    2  A    between atoms: N_16  and  C_17 
REMARK    3  A    between atoms: C_17  and  C_18 
REMARK       I    between atoms: C_18  and  N_19 
REMARK    4  A    between atoms: N_19  and  C_20 
ROOT
HETATM    1  C   UNL     1     -43.500  56.939 -54.871  1.00  0.00     0.054 C 
HETATM    2  C   UNL     1     -42.993  56.371 -53.542  1.00  0.00     0.140 A 
HETATM    3  N   UNL     1     -44.103  56.291 -52.615  1.00  0.00    -0.321 N 
HETATM    4  C   UNL     1     -44.004  57.185 -51.578  1.00  0.00     0.326 A 
HETATM    5  O   UNL     1     -44.853  57.317 -50.716  1.00  0.00    -0.247 OA
HETATM    6  N   UNL     1     -42.841  57.874 -51.709  1.00  0.00    -0.259 N 
HETATM    7  C   UNL     1     -42.153  57.444 -52.806  1.00  0.00     0.261 A 
HETATM    8  O   UNL     1     -41.045  57.860 -53.131  1.00  0.00    -0.270 OA
HETATM    9  H   UNL     1     -44.921  55.707 -52.724  1.00  0.00     0.165 HD
ENDROOT
BRANCH   6  10
HETATM   10  C   UNL     1     -42.395  58.902 -50.792  1.00  0.00     0.240 C 
BRANCH  10  11
HETATM   11  C   UNL     1     -43.252  60.161 -50.926  1.00  0.00     0.240 C 
HETATM   12  N   UNL     1     -44.273  60.237 -49.988  1.00  0.00    -0.325 N 
HETATM   13  H   UNL     1     -44.256  59.534 -49.254  1.00  0.00     0.169 HD
HETATM   14  O   UNL     1     -42.945  61.042 -51.725  1.00  0.00    -0.271 OA
BRANCH  12  15
HETATM   15  C   UNL     1     -45.274  61.238 -49.887  1.00  0.00     0.047 A 
HETATM   16  C   UNL     1     -45.568  61.827 -48.616  1.00  0.00     0.019 A 
HETATM   17  C   UNL     1     -46.590  62.804 -48.525  1.00  0.00     0.069 A 
HETATM   18  C   UNL     1     -44.896  61.532 -47.404  1.00  0.00     0.017 A 
HETATM   19  N   UNL     1     -46.926  63.424 -47.380  1.00  0.00    -0.260 NA
HETATM   20  C   UNL     1     -47.288  63.162 -49.666  1.00  0.00     0.032 A 
HETATM   21  C   UNL     1     -46.253  63.106 -46.258  1.00  0.00     0.117 A 
HETATM   22  C   UNL     1     -45.239  62.176 -46.218  1.00  0.00     0.020 A 
HETATM   23  C   UNL     1     -47.011  62.590 -50.903  1.00  0.00     0.005 A 
HETATM   24  C   UNL     1     -46.007  61.634 -51.011  1.00  0.00     0.030 A 
ENDBRANCH  12  15
ENDBRANCH  10  11
ENDBRANCH   6  10
BRANCH   2  25
HETATM   25  C   UNL     1     -42.238  55.057 -53.699  1.00  0.00    -0.020 A 
HETATM   26  C   UNL     1     -41.538  54.457 -52.634  1.00  0.00     0.022 A 
HETATM   27  C   UNL     1     -40.860  53.233 -52.786  1.00  0.00    -0.025 A 
HETATM   28  C   UNL     1     -40.869  52.586 -54.040  1.00  0.00    -0.026 A 
HETATM   29  C   UNL     1     -40.172  52.636 -51.715  1.00  0.00     0.012 A 
HETATM   30  C   UNL     1     -41.547  53.185 -55.109  1.00  0.00     0.013 A 
HETATM   31  C   UNL     1     -40.199  51.362 -54.192  1.00  0.00     0.012 A 
HETATM   32  C   UNL     1     -42.216  54.401 -54.941  1.00  0.00     0.011 A 
HETATM   33  C   UNL     1     -39.525  50.781 -53.117  1.00  0.00     0.001 A 
HETATM   34  C   UNL     1     -39.510  51.418 -51.880  1.00  0.00     0.001 A 
ENDBRANCH   2  25
TORSDOF 4
ENDMDL
