MODEL 1
REMARK VINA RESULT:      -8.6      0.000      0.000
REMARK  7 active torsions:
REMARK  status: ('A' for Active; 'I' for Inactive)
REMARK    1  A    between atoms: C_2  and  N_3 
REMARK       I    between atoms: N_3  and  C_4 
REMARK    2  A    between atoms: C_4  and  C_5 
REMARK    3  A    between atoms: C_9  and  N_10 
REMARK       I    between atoms: N_10  and  C_11 
REMARK    4  A    between atoms: C_11  and  C_12 
REMARK    5  A    between atoms: C_12  and  S_13 
REMARK    6  A    between atoms: S_13  and  C_14 
REMARK    7  A    between atoms: C_14  and  C_15 
ROOT
HETATM    1  N   UNL     1     -41.594  56.664 -53.700  1.00  0.00    -0.326 N 
HETATM    2  C   UNL     1     -42.274  56.982 -52.532  1.00  0.00     0.231 C 
HETATM    3  O   UNL     1     -43.473  57.222 -52.422  1.00  0.00    -0.272 OA
HETATM    4  H   UNL     1     -40.606  56.480 -53.588  1.00  0.00     0.169 HD
ENDROOT
BRANCH   2   5
HETATM    5  C   UNL     1     -41.361  57.006 -51.310  1.00  0.00     0.177 C 
BRANCH   5   6
HETATM    6  S   UNL     1     -41.918  55.714 -50.142  1.00  0.00    -0.147 SA
BRANCH   6   7
HETATM    7  C   UNL     1     -40.380  54.733 -49.945  1.00  0.00     0.113 C 
HETATM    8  C   UNL     1     -40.272  54.161 -48.533  1.00  0.00     0.029 C 
BRANCH   7   9
HETATM    9  C   UNL     1     -40.214  53.681 -51.002  1.00  0.00     0.118 A 
HETATM   10  N   UNL     1     -40.470  53.809 -52.290  1.00  0.00    -0.232 NA
HETATM   11  C   UNL     1     -40.262  52.569 -52.841  1.00  0.00     0.085 A 
HETATM   12  C   UNL     1     -39.847  51.661 -51.875  1.00  0.00     0.062 A 
HETATM   13  C   UNL     1     -40.414  52.139 -54.168  1.00  0.00     0.034 A 
HETATM   14  N   UNL     1     -39.825  52.391 -50.716  1.00  0.00    -0.342 N 
HETATM   15  C   UNL     1     -39.556  50.324 -52.155  1.00  0.00     0.032 A 
HETATM   16  H   UNL     1     -39.563  52.050 -49.801  1.00  0.00     0.167 HD
HETATM   17  C   UNL     1     -39.713  49.913 -53.484  1.00  0.00     0.002 A 
HETATM   18  C   UNL     1     -40.138  50.801 -54.475  1.00  0.00     0.002 A 
ENDBRANCH   7   9
ENDBRANCH   6   7
ENDBRANCH   5   6
ENDBRANCH   2   5
BRANCH   1  19
HETATM   19  C   UNL     1     -42.124  56.465 -54.996  1.00  0.00     0.040 A 
HETATM   20  C   UNL     1     -42.355  57.593 -55.817  1.00  0.00    -0.034 A 
HETATM   21  C   UNL     1     -42.831  57.412 -57.132  1.00  0.00     0.026 A 
HETATM   22  C   UNL     1     -42.112  59.000 -55.339  1.00  0.00     0.050 C 
HETATM   23  C   UNL     1     -43.073  56.130 -57.638  1.00  0.00     0.032 A 
HETATM   24  C   UNL     1     -42.882  55.025 -56.810  1.00  0.00     0.019 A 
HETATM   25  C   UNL     1     -42.409  55.192 -55.503  1.00  0.00     0.031 A 
BRANCH  23  26
HETATM   26  C   UNL     1     -43.544  55.901 -59.035  1.00  0.00     0.251 C 
HETATM   27  N   UNL     1     -44.912  55.907 -59.227  1.00  0.00    -0.357 N 
HETATM   28  H   UNL     1     -45.513  56.228 -58.481  1.00  0.00     0.162 HD
HETATM   29  O   UNL     1     -42.734  55.757 -59.942  1.00  0.00    -0.268 OA
BRANCH  27  30
HETATM   30  C   UNL     1     -45.489  55.812 -60.552  1.00  0.00     0.118 C 
HETATM   31  C   UNL     1     -46.963  56.174 -60.543  1.00  0.00     0.026 C 
ENDBRANCH  27  30
ENDBRANCH  23  26
ENDBRANCH   1  19
TORSDOF 7
ENDMDL
MODEL 2
REMARK VINA RESULT:      -8.4      0.637      1.456
REMARK  7 active torsions:
REMARK  status: ('A' for Active; 'I' for Inactive)
REMARK    1  A    between atoms: C_2  and  N_3 
REMARK       I    between atoms: N_3  and  C_4 
REMARK    2  A    between atoms: C_4  and  C_5 
REMARK    3  A    between atoms: C_9  and  N_10 
REMARK       I    between atoms: N_10  and  C_11 
REMARK    4  A    between atoms: C_11  and  C_12 
REMARK    5  A    between atoms: C_12  and  S_13 
REMARK    6  A    between atoms: S_13  and  C_14 
REMARK    7  A    between atoms: C_14  and  C_15 
ROOT
HETATM    1  N   UNL     1     -41.842  56.541 -53.412  1.00  0.00    -0.326 N 
HETATM    2  C   UNL     1     -42.663  56.931 -52.362  1.00  0.00     0.231 C 
HETATM    3  O   UNL     1     -43.825  57.315 -52.442  1.00  0.00    -0.272 OA
HETATM    4  H   UNL     1     -40.915  56.236 -53.145  1.00  0.00     0.169 HD
ENDROOT
BRANCH   2   5
HETATM    5  C   UNL     1     -41.968  56.835 -51.007  1.00  0.00     0.177 C 
BRANCH   5   6
HETATM    6  S   UNL     1     -42.371  55.214 -50.260  1.00  0.00    -0.147 SA
BRANCH   6   7
HETATM    7  C   UNL     1     -40.692  54.557 -49.920  1.00  0.00     0.113 C 
HETATM    8  C   UNL     1     -40.518  54.242 -48.436  1.00  0.00     0.029 C 
BRANCH   7   9
HETATM    9  C   UNL     1     -40.326  53.397 -50.798  1.00  0.00     0.118 A 
HETATM   10  N   UNL     1     -40.191  53.412 -52.111  1.00  0.00    -0.232 NA
HETATM   11  C   UNL     1     -39.946  52.113 -52.479  1.00  0.00     0.085 A 
HETATM   12  C   UNL     1     -39.907  51.281 -51.368  1.00  0.00     0.062 A 
HETATM   13  C   UNL     1     -39.751  51.563 -53.755  1.00  0.00     0.034 A 
HETATM   14  N   UNL     1     -40.151  52.119 -50.312  1.00  0.00    -0.342 N 
HETATM   15  C   UNL     1     -39.668  49.907 -51.446  1.00  0.00     0.032 A 
HETATM   16  H   UNL     1     -40.193  51.856 -49.337  1.00  0.00     0.167 HD
HETATM   17  C   UNL     1     -39.475  49.376 -52.726  1.00  0.00     0.002 A 
HETATM   18  C   UNL     1     -39.519  50.186 -53.865  1.00  0.00     0.002 A 
ENDBRANCH   7   9
ENDBRANCH   6   7
ENDBRANCH   5   6
ENDBRANCH   2   5
BRANCH   1  19
HETATM   19  C   UNL     1     -42.170  56.417 -54.782  1.00  0.00     0.040 A 
HETATM   20  C   UNL     1     -42.561  55.151 -55.275  1.00  0.00    -0.034 A 
HETATM   21  C   UNL     1     -42.947  55.019 -56.626  1.00  0.00     0.026 A 
HETATM   22  C   UNL     1     -42.584  53.920 -54.409  1.00  0.00     0.050 C 
HETATM   23  C   UNL     1     -42.952  56.125 -57.483  1.00  0.00     0.032 A 
HETATM   24  C   UNL     1     -42.526  57.362 -57.000  1.00  0.00     0.019 A 
HETATM   25  C   UNL     1     -42.143  57.505 -55.661  1.00  0.00     0.031 A 
BRANCH  23  26
HETATM   26  C   UNL     1     -43.385  56.027 -58.907  1.00  0.00     0.251 C 
HETATM   27  N   UNL     1     -44.537  55.303 -59.147  1.00  0.00    -0.357 N 
HETATM   28  H   UNL     1     -45.117  55.027 -58.367  1.00  0.00     0.162 HD
HETATM   29  O   UNL     1     -42.752  56.601 -59.784  1.00  0.00    -0.268 OA
BRANCH  27  30
HETATM   30  C   UNL     1     -45.123  55.233 -60.470  1.00  0.00     0.118 C 
HETATM   31  C   UNL     1     -46.444  55.977 -60.531  1.00  0.00     0.026 C 
ENDBRANCH  27  30
ENDBRANCH  23  26
ENDBRANCH   1  19
TORSDOF 7
ENDMDL
MODEL 3
REMARK VINA RESULT:      -8.0      2.560      7.640
REMARK  7 active torsions:
REMARK  status: ('A' for Active; 'I' for Inactive)
REMARK    1  A    between atoms: C_2  and  N_3 
REMARK       I    between atoms: N_3  and  C_4 
REMARK    2  A    between atoms: C_4  and  C_5 
REMARK    3  A    between atoms: C_9  and  N_10 
REMARK       I    between atoms: N_10  and  C_11 
REMARK    4  A    between atoms: C_11  and  C_12 
REMARK    5  A    between atoms: C_12  and  S_13 
REMARK    6  A    between atoms: S_13  and  C_14 
REMARK    7  A    between atoms: C_14  and  C_15 
ROOT
HETATM    1  N   UNL     1     -41.790  57.680 -53.889  1.00  0.00    -0.326 N 
HETATM    2  C   UNL     1     -41.078  58.851 -53.663  1.00  0.00     0.231 C 
HETATM    3  O   UNL     1     -39.923  58.943 -53.260  1.00  0.00    -0.272 OA
HETATM    4  H   UNL     1     -42.729  57.807 -54.241  1.00  0.00     0.169 HD
ENDROOT
BRANCH   2   5
HETATM    5  C   UNL     1     -41.893  60.103 -53.981  1.00  0.00     0.177 C 
BRANCH   5   6
HETATM    6  S   UNL     1     -43.657  59.634 -54.095  1.00  0.00    -0.147 SA
BRANCH   6   7
HETATM    7  C   UNL     1     -44.015  60.038 -55.849  1.00  0.00     0.113 C 
HETATM    8  C   UNL     1     -43.019  61.062 -56.389  1.00  0.00     0.029 C 
BRANCH   7   9
HETATM    9  C   UNL     1     -44.116  58.822 -56.723  1.00  0.00     0.118 A 
HETATM   10  N   UNL     1     -43.316  57.774 -56.713  1.00  0.00    -0.232 NA
HETATM   11  C   UNL     1     -43.738  56.967 -57.740  1.00  0.00     0.085 A 
HETATM   12  C   UNL     1     -44.837  57.520 -58.384  1.00  0.00     0.062 A 
HETATM   13  C   UNL     1     -43.224  55.742 -58.189  1.00  0.00     0.034 A 
HETATM   14  N   UNL     1     -45.059  58.698 -57.720  1.00  0.00    -0.342 N 
HETATM   15  C   UNL     1     -45.479  56.910 -59.464  1.00  0.00     0.032 A 
HETATM   16  H   UNL     1     -45.790  59.367 -57.918  1.00  0.00     0.167 HD
HETATM   17  C   UNL     1     -44.954  55.688 -59.898  1.00  0.00     0.002 A 
HETATM   18  C   UNL     1     -43.842  55.112 -59.277  1.00  0.00     0.002 A 
ENDBRANCH   7   9
ENDBRANCH   6   7
ENDBRANCH   5   6
ENDBRANCH   2   5
BRANCH   1  19
HETATM   19  C   UNL     1     -41.333  56.346 -53.789  1.00  0.00     0.040 A 
HETATM   20  C   UNL     1     -41.432  55.685 -52.543  1.00  0.00    -0.034 A 
HETATM   21  C   UNL     1     -41.034  54.335 -52.437  1.00  0.00     0.026 A 
HETATM   22  C   UNL     1     -41.951  56.370 -51.307  1.00  0.00     0.050 C 
HETATM   23  C   UNL     1     -40.547  53.641 -53.549  1.00  0.00     0.032 A 
HETATM   24  C   UNL     1     -40.414  54.310 -54.765  1.00  0.00     0.019 A 
HETATM   25  C   UNL     1     -40.807  55.648 -54.883  1.00  0.00     0.031 A 
BRANCH  23  26
HETATM   26  C   UNL     1     -40.149  52.205 -53.479  1.00  0.00     0.251 C 
HETATM   27  N   UNL     1     -39.701  51.753 -52.253  1.00  0.00    -0.357 N 
HETATM   28  H   UNL     1     -39.820  52.339 -51.439  1.00  0.00     0.162 HD
HETATM   29  O   UNL     1     -40.264  51.485 -54.464  1.00  0.00    -0.268 OA
BRANCH  27  30
HETATM   30  C   UNL     1     -39.396  50.355 -52.028  1.00  0.00     0.118 C 
HETATM   31  C   UNL     1     -39.832  49.908 -50.645  1.00  0.00     0.026 C 
ENDBRANCH  27  30
ENDBRANCH  23  26
ENDBRANCH   1  19
TORSDOF 7
ENDMDL
MODEL 4
REMARK VINA RESULT:      -7.7      2.238      3.429
REMARK  7 active torsions:
REMARK  status: ('A' for Active; 'I' for Inactive)
REMARK    1  A    between atoms: C_2  and  N_3 
REMARK       I    between atoms: N_3  and  C_4 
REMARK    2  A    between atoms: C_4  and  C_5 
REMARK    3  A    between atoms: C_9  and  N_10 
REMARK       I    between atoms: N_10  and  C_11 
REMARK    4  A    between atoms: C_11  and  C_12 
REMARK    5  A    between atoms: C_12  and  S_13 
REMARK    6  A    between atoms: S_13  and  C_14 
REMARK    7  A    between atoms: C_14  and  C_15 
ROOT
HETATM    1  N   UNL     1     -41.917  57.626 -54.606  1.00  0.00    -0.326 N 
HETATM    2  C   UNL     1     -41.497  58.880 -54.185  1.00  0.00     0.231 C 
HETATM    3  O   UNL     1     -41.443  59.903 -54.861  1.00  0.00    -0.272 OA
HETATM    4  H   UNL     1     -41.908  56.906 -53.895  1.00  0.00     0.169 HD
ENDROOT
BRANCH   2   5
HETATM    5  C   UNL     1     -41.083  58.897 -52.715  1.00  0.00     0.177 C 
BRANCH   5   6
HETATM    6  S   UNL     1     -42.434  59.654 -51.741  1.00  0.00    -0.147 SA
BRANCH   6   7
HETATM    7  C   UNL     1     -43.447  58.177 -51.340  1.00  0.00     0.113 C 
HETATM    8  C   UNL     1     -44.581  58.001 -52.348  1.00  0.00     0.029 C 
BRANCH   7   9
HETATM    9  C   UNL     1     -42.628  56.930 -51.177  1.00  0.00     0.118 A 
HETATM   10  N   UNL     1     -42.574  55.907 -52.008  1.00  0.00    -0.232 NA
HETATM   11  C   UNL     1     -41.776  54.969 -51.400  1.00  0.00     0.085 A 
HETATM   12  C   UNL     1     -41.311  55.433 -50.177  1.00  0.00     0.062 A 
HETATM   13  C   UNL     1     -41.407  53.687 -51.834  1.00  0.00     0.034 A 
HETATM   14  N   UNL     1     -41.866  56.680 -50.057  1.00  0.00    -0.342 N 
HETATM   15  C   UNL     1     -40.473  54.689 -49.344  1.00  0.00     0.032 A 
HETATM   16  H   UNL     1     -41.739  57.318 -49.283  1.00  0.00     0.167 HD
HETATM   17  C   UNL     1     -40.114  53.413 -49.793  1.00  0.00     0.002 A 
HETATM   18  C   UNL     1     -40.575  52.915 -51.014  1.00  0.00     0.002 A 
ENDBRANCH   7   9
ENDBRANCH   6   7
ENDBRANCH   5   6
ENDBRANCH   2   5
BRANCH   1  19
HETATM   19  C   UNL     1     -42.449  57.257 -55.863  1.00  0.00     0.040 A 
HETATM   20  C   UNL     1     -42.416  55.895 -56.243  1.00  0.00    -0.034 A 
HETATM   21  C   UNL     1     -42.992  55.499 -57.468  1.00  0.00     0.026 A 
HETATM   22  C   UNL     1     -41.782  54.834 -55.382  1.00  0.00     0.050 C 
HETATM   23  C   UNL     1     -43.599  56.435 -58.311  1.00  0.00     0.032 A 
HETATM   24  C   UNL     1     -43.593  57.782 -57.950  1.00  0.00     0.019 A 
HETATM   25  C   UNL     1     -43.025  58.186 -56.736  1.00  0.00     0.031 A 
BRANCH  23  26
HETATM   26  C   UNL     1     -44.247  56.046 -59.598  1.00  0.00     0.251 C 
HETATM   27  N   UNL     1     -45.615  55.856 -59.560  1.00  0.00    -0.357 N 
HETATM   28  H   UNL     1     -46.131  56.146 -58.742  1.00  0.00     0.162 HD
HETATM   29  O   UNL     1     -43.578  55.948 -60.619  1.00  0.00    -0.268 OA
BRANCH  27  30
HETATM   30  C   UNL     1     -46.374  55.590 -60.765  1.00  0.00     0.118 C 
HETATM   31  C   UNL     1     -47.456  56.633 -60.980  1.00  0.00     0.026 C 
ENDBRANCH  27  30
ENDBRANCH  23  26
ENDBRANCH   1  19
TORSDOF 7
ENDMDL
MODEL 5
REMARK VINA RESULT:      -7.6     14.799     16.882
REMARK  7 active torsions:
REMARK  status: ('A' for Active; 'I' for Inactive)
REMARK    1  A    between atoms: C_2  and  N_3 
REMARK       I    between atoms: N_3  and  C_4 
REMARK    2  A    between atoms: C_4  and  C_5 
REMARK    3  A    between atoms: C_9  and  N_10 
REMARK       I    between atoms: N_10  and  C_11 
REMARK    4  A    between atoms: C_11  and  C_12 
REMARK    5  A    between atoms: C_12  and  S_13 
REMARK    6  A    between atoms: S_13  and  C_14 
REMARK    7  A    between atoms: C_14  and  C_15 
ROOT
HETATM    1  N   UNL     1     -34.692  41.634 -53.788  1.00  0.00    -0.326 N 
HETATM    2  C   UNL     1     -35.464  42.034 -52.706  1.00  0.00     0.231 C 
HETATM    3  O   UNL     1     -36.653  42.337 -52.724  1.00  0.00    -0.272 OA
HETATM    4  H   UNL     1     -33.730  41.406 -53.571  1.00  0.00     0.169 HD
ENDROOT
BRANCH   2   5
HETATM    5  C   UNL     1     -34.673  42.067 -51.401  1.00  0.00     0.177 C 
BRANCH   5   6
HETATM    6  S   UNL     1     -34.234  40.352 -50.944  1.00  0.00    -0.147 SA
BRANCH   6   7
HETATM    7  C   UNL     1     -32.421  40.366 -51.229  1.00  0.00     0.113 C 
HETATM    8  C   UNL     1     -31.682  39.667 -50.090  1.00  0.00     0.029 C 
BRANCH   7   9
HETATM    9  C   UNL     1     -32.034  39.830 -52.576  1.00  0.00     0.118 A 
HETATM   10  N   UNL     1     -31.938  40.514 -53.700  1.00  0.00    -0.232 NA
HETATM   11  C   UNL     1     -31.651  39.595 -54.678  1.00  0.00     0.085 A 
HETATM   12  C   UNL     1     -31.545  38.318 -54.141  1.00  0.00     0.062 A 
HETATM   13  C   UNL     1     -31.471  39.777 -56.057  1.00  0.00     0.034 A 
HETATM   14  N   UNL     1     -31.792  38.493 -52.805  1.00  0.00    -0.342 N 
HETATM   15  C   UNL     1     -31.253  37.187 -54.906  1.00  0.00     0.032 A 
HETATM   16  H   UNL     1     -31.795  37.771 -52.098  1.00  0.00     0.167 HD
HETATM   17  C   UNL     1     -31.075  37.388 -56.280  1.00  0.00     0.002 A 
HETATM   18  C   UNL     1     -31.186  38.659 -56.850  1.00  0.00     0.002 A 
ENDBRANCH   7   9
ENDBRANCH   6   7
ENDBRANCH   5   6
ENDBRANCH   2   5
BRANCH   1  19
HETATM   19  C   UNL     1     -35.104  41.404 -55.121  1.00  0.00     0.040 A 
HETATM   20  C   UNL     1     -35.399  40.082 -55.523  1.00  0.00    -0.034 A 
HETATM   21  C   UNL     1     -35.866  39.839 -56.832  1.00  0.00     0.026 A 
HETATM   22  C   UNL     1     -35.235  38.903 -54.600  1.00  0.00     0.050 C 
HETATM   23  C   UNL     1     -36.043  40.891 -57.737  1.00  0.00     0.032 A 
HETATM   24  C   UNL     1     -35.711  42.188 -57.347  1.00  0.00     0.019 A 
HETATM   25  C   UNL     1     -35.249  42.440 -56.050  1.00  0.00     0.031 A 
BRANCH  23  26
HETATM   26  C   UNL     1     -36.566  40.674 -59.118  1.00  0.00     0.251 C 
HETATM   27  N   UNL     1     -36.379  39.414 -59.651  1.00  0.00    -0.357 N 
HETATM   28  H   UNL     1     -36.068  38.665 -59.048  1.00  0.00     0.162 HD
HETATM   29  O   UNL     1     -37.156  41.575 -59.701  1.00  0.00    -0.268 OA
BRANCH  27  30
HETATM   30  C   UNL     1     -36.942  39.045 -60.933  1.00  0.00     0.118 C 
HETATM   31  C   UNL     1     -36.714  37.576 -61.238  1.00  0.00     0.026 C 
ENDBRANCH  27  30
ENDBRANCH  23  26
ENDBRANCH   1  19
TORSDOF 7
ENDMDL
MODEL 6
REMARK VINA RESULT:      -7.4      5.169      9.248
REMARK  7 active torsions:
REMARK  status: ('A' for Active; 'I' for Inactive)
REMARK    1  A    between atoms: C_2  and  N_3 
REMARK       I    between atoms: N_3  and  C_4 
REMARK    2  A    between atoms: C_4  and  C_5 
REMARK    3  A    between atoms: C_9  and  N_10 
REMARK       I    between atoms: N_10  and  C_11 
REMARK    4  A    between atoms: C_11  and  C_12 
REMARK    5  A    between atoms: C_12  and  S_13 
REMARK    6  A    between atoms: S_13  and  C_14 
REMARK    7  A    between atoms: C_14  and  C_15 
ROOT
HETATM    1  N   UNL     1     -42.002  57.845 -52.786  1.00  0.00    -0.326 N 
HETATM    2  C   UNL     1     -41.329  59.046 -52.967  1.00  0.00     0.231 C 
HETATM    3  O   UNL     1     -40.137  59.190 -53.220  1.00  0.00    -0.272 OA
HETATM    4  H   UNL     1     -42.993  57.929 -52.601  1.00  0.00     0.169 HD
ENDROOT
BRANCH   2   5
HETATM    5  C   UNL     1     -42.245  60.259 -52.824  1.00  0.00     0.177 C 
BRANCH   5   6
HETATM    6  S   UNL     1     -42.453  60.623 -51.043  1.00  0.00    -0.147 SA
BRANCH   6   7
HETATM    7  C   UNL     1     -44.278  60.528 -50.877  1.00  0.00     0.113 C 
HETATM    8  C   UNL     1     -44.769  59.091 -51.041  1.00  0.00     0.029 C 
BRANCH   7   9
HETATM    9  C   UNL     1     -44.788  61.166 -49.619  1.00  0.00     0.118 A 
HETATM   10  N   UNL     1     -45.795  60.751 -48.875  1.00  0.00    -0.232 NA
HETATM   11  C   UNL     1     -45.951  61.695 -47.890  1.00  0.00     0.085 A 
HETATM   12  C   UNL     1     -45.005  62.704 -48.017  1.00  0.00     0.062 A 
HETATM   13  C   UNL     1     -46.890  61.761 -46.850  1.00  0.00     0.034 A 
HETATM   14  N   UNL     1     -44.278  62.346 -49.122  1.00  0.00    -0.342 N 
HETATM   15  C   UNL     1     -44.924  63.793 -47.146  1.00  0.00     0.032 A 
HETATM   16  H   UNL     1     -43.495  62.853 -49.511  1.00  0.00     0.167 HD
HETATM   17  C   UNL     1     -45.868  63.842 -46.114  1.00  0.00     0.002 A 
HETATM   18  C   UNL     1     -46.839  62.847 -45.967  1.00  0.00     0.002 A 
ENDBRANCH   7   9
ENDBRANCH   6   7
ENDBRANCH   5   6
ENDBRANCH   2   5
BRANCH   1  19
HETATM   19  C   UNL     1     -41.501  56.530 -52.930  1.00  0.00     0.040 A 
HETATM   20  C   UNL     1     -41.370  55.723 -51.776  1.00  0.00    -0.034 A 
HETATM   21  C   UNL     1     -40.926  54.390 -51.906  1.00  0.00     0.026 A 
HETATM   22  C   UNL     1     -41.690  56.231 -50.396  1.00  0.00     0.050 C 
HETATM   23  C   UNL     1     -40.616  53.855 -53.161  1.00  0.00     0.032 A 
HETATM   24  C   UNL     1     -40.708  54.670 -54.289  1.00  0.00     0.019 A 
HETATM   25  C   UNL     1     -41.150  55.993 -54.173  1.00  0.00     0.031 A 
BRANCH  23  26
HETATM   26  C   UNL     1     -40.175  52.441 -53.337  1.00  0.00     0.251 C 
HETATM   27  N   UNL     1     -39.768  51.781 -52.194  1.00  0.00    -0.357 N 
HETATM   28  H   UNL     1     -39.943  52.202 -51.293  1.00  0.00     0.162 HD
HETATM   29  O   UNL     1     -40.222  51.915 -54.442  1.00  0.00    -0.268 OA
BRANCH  27  30
HETATM   30  C   UNL     1     -39.429  50.373 -52.216  1.00  0.00     0.118 C 
HETATM   31  C   UNL     1     -39.693  49.718 -50.872  1.00  0.00     0.026 C 
ENDBRANCH  27  30
ENDBRANCH  23  26
ENDBRANCH   1  19
TORSDOF 7
ENDMDL
MODEL 7
REMARK VINA RESULT:      -7.3      2.978      7.415
REMARK  7 active torsions:
REMARK  status: ('A' for Active; 'I' for Inactive)
REMARK    1  A    between atoms: C_2  and  N_3 
REMARK       I    between atoms: N_3  and  C_4 
REMARK    2  A    between atoms: C_4  and  C_5 
REMARK    3  A    between atoms: C_9  and  N_10 
REMARK       I    between atoms: N_10  and  C_11 
REMARK    4  A    between atoms: C_11  and  C_12 
REMARK    5  A    between atoms: C_12  and  S_13 
REMARK    6  A    between atoms: S_13  and  C_14 
REMARK    7  A    between atoms: C_14  and  C_15 
ROOT
HETATM    1  N   UNL     1     -43.645  57.387 -52.261  1.00  0.00    -0.326 N 
HETATM    2  C   UNL     1     -44.686  57.659 -51.384  1.00  0.00     0.231 C 
HETATM    3  O   UNL     1     -45.140  56.908 -50.527  1.00  0.00    -0.272 OA
HETATM    4  H   UNL     1     -43.399  58.142 -52.887  1.00  0.00     0.169 HD
ENDROOT
BRANCH   2   5
HETATM    5  C   UNL     1     -45.263  59.060 -51.575  1.00  0.00     0.177 C 
BRANCH   5   6
HETATM    6  S   UNL     1     -44.231  59.951 -52.794  1.00  0.00    -0.147 SA
BRANCH   6   7
HETATM    7  C   UNL     1     -45.313  59.898 -54.275  1.00  0.00     0.113 C 
HETATM    8  C   UNL     1     -45.627  61.306 -54.775  1.00  0.00     0.029 C 
BRANCH   7   9
HETATM    9  C   UNL     1     -44.780  59.011 -55.360  1.00  0.00     0.118 A 
HETATM   10  N   UNL     1     -44.360  57.767 -55.229  1.00  0.00    -0.232 NA
HETATM   11  C   UNL     1     -43.879  57.398 -56.461  1.00  0.00     0.085 A 
HETATM   12  C   UNL     1     -44.025  58.431 -57.378  1.00  0.00     0.062 A 
HETATM   13  C   UNL     1     -43.293  56.192 -56.872  1.00  0.00     0.034 A 
HETATM   14  N   UNL     1     -44.599  59.444 -56.656  1.00  0.00    -0.342 N 
HETATM   15  C   UNL     1     -43.627  58.332 -58.713  1.00  0.00     0.032 A 
HETATM   16  H   UNL     1     -44.856  60.357 -57.007  1.00  0.00     0.167 HD
HETATM   17  C   UNL     1     -43.045  57.121 -59.106  1.00  0.00     0.002 A 
HETATM   18  C   UNL     1     -42.875  56.068 -58.203  1.00  0.00     0.002 A 
ENDBRANCH   7   9
ENDBRANCH   6   7
ENDBRANCH   5   6
ENDBRANCH   2   5
BRANCH   1  19
HETATM   19  C   UNL     1     -42.823  56.237 -52.315  1.00  0.00     0.040 A 
HETATM   20  C   UNL     1     -41.673  56.184 -51.495  1.00  0.00    -0.034 A 
HETATM   21  C   UNL     1     -40.872  55.023 -51.493  1.00  0.00     0.026 A 
HETATM   22  C   UNL     1     -41.261  57.330 -50.610  1.00  0.00     0.050 C 
HETATM   23  C   UNL     1     -41.202  53.921 -52.289  1.00  0.00     0.032 A 
HETATM   24  C   UNL     1     -42.315  53.996 -53.127  1.00  0.00     0.019 A 
HETATM   25  C   UNL     1     -43.118  55.142 -53.135  1.00  0.00     0.031 A 
BRANCH  23  26
HETATM   26  C   UNL     1     -40.396  52.666 -52.286  1.00  0.00     0.251 C 
HETATM   27  N   UNL     1     -40.145  52.098 -53.520  1.00  0.00    -0.357 N 
HETATM   28  H   UNL     1     -40.356  52.624 -54.357  1.00  0.00     0.162 HD
HETATM   29  O   UNL     1     -39.963  52.214 -51.233  1.00  0.00    -0.268 OA
BRANCH  27  30
HETATM   30  C   UNL     1     -39.279  50.946 -53.659  1.00  0.00     0.118 C 
HETATM   31  C   UNL     1     -39.952  49.838 -54.449  1.00  0.00     0.026 C 
ENDBRANCH  27  30
ENDBRANCH  23  26
ENDBRANCH   1  19
TORSDOF 7
ENDMDL
MODEL 8
REMARK VINA RESULT:      -7.2     14.607     18.866
REMARK  7 active torsions:
REMARK  status: ('A' for Active; 'I' for Inactive)
REMARK    1  A    between atoms: C_2  and  N_3 
REMARK       I    between atoms: N_3  and  C_4 
REMARK    2  A    between atoms: C_4  and  C_5 
REMARK    3  A    between atoms: C_9  and  N_10 
REMARK       I    between atoms: N_10  and  C_11 
REMARK    4  A    between atoms: C_11  and  C_12 
REMARK    5  A    between atoms: C_12  and  S_13 
REMARK    6  A    between atoms: S_13  and  C_14 
REMARK    7  A    between atoms: C_14  and  C_15 
ROOT
HETATM    1  N   UNL     1     -35.249  39.038 -50.687  1.00  0.00    -0.326 N 
HETATM    2  C   UNL     1     -36.505  39.591 -50.472  1.00  0.00     0.231 C 
HETATM    3  O   UNL     1     -36.891  40.165 -49.460  1.00  0.00    -0.272 OA
HETATM    4  H   UNL     1     -35.111  38.620 -51.598  1.00  0.00     0.169 HD
ENDROOT
BRANCH   2   5
HETATM    5  C   UNL     1     -37.432  39.424 -51.674  1.00  0.00     0.177 C 
BRANCH   5   6
HETATM    6  S   UNL     1     -36.421  39.470 -53.198  1.00  0.00    -0.147 SA
BRANCH   6   7
HETATM    7  C   UNL     1     -36.932  41.084 -53.908  1.00  0.00     0.113 C 
HETATM    8  C   UNL     1     -35.959  42.191 -53.506  1.00  0.00     0.029 C 
BRANCH   7   9
HETATM    9  C   UNL     1     -37.155  41.029 -55.390  1.00  0.00     0.118 A 
HETATM   10  N   UNL     1     -37.527  39.977 -56.094  1.00  0.00    -0.232 NA
HETATM   11  C   UNL     1     -37.509  40.377 -57.408  1.00  0.00     0.085 A 
HETATM   12  C   UNL     1     -37.138  41.711 -57.514  1.00  0.00     0.062 A 
HETATM   13  C   UNL     1     -37.793  39.648 -58.572  1.00  0.00     0.034 A 
HETATM   14  N   UNL     1     -36.918  42.104 -56.220  1.00  0.00    -0.342 N 
HETATM   15  C   UNL     1     -37.041  42.384 -58.734  1.00  0.00     0.032 A 
HETATM   16  H   UNL     1     -36.635  43.025 -55.915  1.00  0.00     0.167 HD
HETATM   17  C   UNL     1     -37.329  41.642 -59.885  1.00  0.00     0.002 A 
HETATM   18  C   UNL     1     -37.694  40.295 -59.810  1.00  0.00     0.002 A 
ENDBRANCH   7   9
ENDBRANCH   6   7
ENDBRANCH   5   6
ENDBRANCH   2   5
BRANCH   1  19
HETATM   19  C   UNL     1     -34.118  39.080 -49.840  1.00  0.00     0.040 A 
HETATM   20  C   UNL     1     -33.051  39.947 -50.173  1.00  0.00    -0.034 A 
HETATM   21  C   UNL     1     -31.938  40.045 -49.311  1.00  0.00     0.026 A 
HETATM   22  C   UNL     1     -33.053  40.783 -51.425  1.00  0.00     0.050 C 
HETATM   23  C   UNL     1     -31.877  39.299 -48.130  1.00  0.00     0.032 A 
HETATM   24  C   UNL     1     -32.913  38.416 -47.828  1.00  0.00     0.019 A 
HETATM   25  C   UNL     1     -34.023  38.311 -48.675  1.00  0.00     0.031 A 
BRANCH  23  26
HETATM   26  C   UNL     1     -30.731  39.403 -47.180  1.00  0.00     0.251 C 
HETATM   27  N   UNL     1     -31.020  39.183 -45.848  1.00  0.00    -0.357 N 
HETATM   28  H   UNL     1     -31.921  38.801 -45.595  1.00  0.00     0.162 HD
HETATM   29  O   UNL     1     -29.604  39.635 -47.599  1.00  0.00    -0.268 OA
BRANCH  27  30
HETATM   30  C   UNL     1     -29.975  39.141 -44.845  1.00  0.00     0.118 C 
HETATM   31  C   UNL     1     -29.758  40.504 -44.213  1.00  0.00     0.026 C 
ENDBRANCH  27  30
ENDBRANCH  23  26
ENDBRANCH   1  19
TORSDOF 7
ENDMDL
MODEL 9
REMARK VINA RESULT:      -7.1      2.758      8.133
REMARK  7 active torsions:
REMARK  status: ('A' for Active; 'I' for Inactive)
REMARK    1  A    between atoms: C_2  and  N_3 
REMARK       I    between atoms: N_3  and  C_4 
REMARK    2  A    between atoms: C_4  and  C_5 
REMARK    3  A    between atoms: C_9  and  N_10 
REMARK       I    between atoms: N_10  and  C_11 
REMARK    4  A    between atoms: C_11  and  C_12 
REMARK    5  A    between atoms: C_12  and  S_13 
REMARK    6  A    between atoms: S_13  and  C_14 
REMARK    7  A    between atoms: C_14  and  C_15 
ROOT
HETATM    1  N   UNL     1     -42.533  57.969 -54.409  1.00  0.00    -0.326 N 
HETATM    2  C   UNL     1     -41.882  59.195 -54.399  1.00  0.00     0.231 C 
HETATM    3  O   UNL     1     -40.779  59.437 -53.920  1.00  0.00    -0.272 OA
HETATM    4  H   UNL     1     -43.434  57.962 -54.870  1.00  0.00     0.169 HD
ENDROOT
BRANCH   2   5
HETATM    5  C   UNL     1     -42.693  60.295 -55.079  1.00  0.00     0.177 C 
BRANCH   5   6
HETATM    6  S   UNL     1     -42.120  60.455 -56.808  1.00  0.00    -0.147 SA
BRANCH   6   7
HETATM    7  C   UNL     1     -43.720  60.488 -57.706  1.00  0.00     0.113 C 
HETATM    8  C   UNL     1     -43.760  61.636 -58.711  1.00  0.00     0.029 C 
BRANCH   7   9
HETATM    9  C   UNL     1     -44.071  59.169 -58.330  1.00  0.00     0.118 A 
HETATM   10  N   UNL     1     -43.229  58.229 -58.714  1.00  0.00    -0.232 NA
HETATM   11  C   UNL     1     -43.995  57.257 -59.309  1.00  0.00     0.085 A 
HETATM   12  C   UNL     1     -45.341  57.595 -59.271  1.00  0.00     0.062 A 
HETATM   13  C   UNL     1     -43.607  56.052 -59.913  1.00  0.00     0.034 A 
HETATM   14  N   UNL     1     -45.365  58.814 -58.644  1.00  0.00    -0.342 N 
HETATM   15  C   UNL     1     -46.350  56.786 -59.797  1.00  0.00     0.032 A 
HETATM   16  H   UNL     1     -46.187  59.364 -58.439  1.00  0.00     0.167 HD
HETATM   17  C   UNL     1     -45.945  55.587 -60.395  1.00  0.00     0.002 A 
HETATM   18  C   UNL     1     -44.597  55.225 -60.458  1.00  0.00     0.002 A 
ENDBRANCH   7   9
ENDBRANCH   6   7
ENDBRANCH   5   6
ENDBRANCH   2   5
BRANCH   1  19
HETATM   19  C   UNL     1     -42.053  56.719 -53.955  1.00  0.00     0.040 A 
HETATM   20  C   UNL     1     -41.989  55.642 -54.869  1.00  0.00    -0.034 A 
HETATM   21  C   UNL     1     -41.461  54.403 -54.450  1.00  0.00     0.026 A 
HETATM   22  C   UNL     1     -42.467  55.764 -56.292  1.00  0.00     0.050 C 
HETATM   23  C   UNL     1     -40.997  54.226 -53.143  1.00  0.00     0.032 A 
HETATM   24  C   UNL     1     -41.100  55.279 -52.235  1.00  0.00     0.019 A 
HETATM   25  C   UNL     1     -41.621  56.513 -52.640  1.00  0.00     0.031 A 
BRANCH  23  26
HETATM   26  C   UNL     1     -40.402  52.939 -52.677  1.00  0.00     0.251 C 
HETATM   27  N   UNL     1     -40.272  51.946 -53.628  1.00  0.00    -0.357 N 
HETATM   28  H   UNL     1     -40.413  52.174 -54.601  1.00  0.00     0.162 HD
HETATM   29  O   UNL     1     -40.026  52.819 -51.517  1.00  0.00    -0.268 OA
BRANCH  27  30
HETATM   30  C   UNL     1     -39.605  50.696 -53.327  1.00  0.00     0.118 C 
HETATM   31  C   UNL     1     -39.584  49.774 -54.533  1.00  0.00     0.026 C 
ENDBRANCH  27  30
ENDBRANCH  23  26
ENDBRANCH   1  19
TORSDOF 7
ENDMDL
MODEL 10
REMARK VINA RESULT:      -7.1      4.004      9.184
REMARK  7 active torsions:
REMARK  status: ('A' for Active; 'I' for Inactive)
REMARK    1  A    between atoms: C_2  and  N_3 
REMARK       I    between atoms: N_3  and  C_4 
REMARK    2  A    between atoms: C_4  and  C_5 
REMARK    3  A    between atoms: C_9  and  N_10 
REMARK       I    between atoms: N_10  and  C_11 
REMARK    4  A    between atoms: C_11  and  C_12 
REMARK    5  A    between atoms: C_12  and  S_13 
REMARK    6  A    between atoms: S_13  and  C_14 
REMARK    7  A    between atoms: C_14  and  C_15 
ROOT
HETATM    1  N   UNL     1     -41.911  57.224 -54.061  1.00  0.00    -0.326 N 
HETATM    2  C   UNL     1     -43.213  57.583 -54.382  1.00  0.00     0.231 C 
HETATM    3  O   UNL     1     -44.142  56.826 -54.643  1.00  0.00    -0.272 OA
HETATM    4  H   UNL     1     -41.287  57.994 -53.858  1.00  0.00     0.169 HD
ENDROOT
BRANCH   2   5
HETATM    5  C   UNL     1     -43.420  59.096 -54.382  1.00  0.00     0.177 C 
BRANCH   5   6
HETATM    6  S   UNL     1     -42.061  59.869 -55.331  1.00  0.00    -0.147 SA
BRANCH   6   7
HETATM    7  C   UNL     1     -42.617  59.560 -57.053  1.00  0.00     0.113 C 
HETATM    8  C   UNL     1     -44.132  59.702 -57.173  1.00  0.00     0.029 C 
BRANCH   7   9
HETATM    9  C   UNL     1     -41.882  60.389 -58.065  1.00  0.00     0.118 A 
HETATM   10  N   UNL     1     -40.883  61.218 -57.831  1.00  0.00    -0.232 NA
HETATM   11  C   UNL     1     -40.600  61.817 -59.033  1.00  0.00     0.085 A 
HETATM   12  C   UNL     1     -41.429  61.331 -60.035  1.00  0.00     0.062 A 
HETATM   13  C   UNL     1     -39.647  62.797 -59.346  1.00  0.00     0.034 A 
HETATM   14  N   UNL     1     -42.235  60.425 -59.396  1.00  0.00    -0.342 N 
HETATM   15  C   UNL     1     -41.360  61.759 -61.363  1.00  0.00     0.032 A 
HETATM   16  H   UNL     1     -42.964  59.869 -59.822  1.00  0.00     0.167 HD
HETATM   17  C   UNL     1     -40.402  62.737 -61.657  1.00  0.00     0.002 A 
HETATM   18  C   UNL     1     -39.561  63.253 -60.667  1.00  0.00     0.002 A 
ENDBRANCH   7   9
ENDBRANCH   6   7
ENDBRANCH   5   6
ENDBRANCH   2   5
BRANCH   1  19
HETATM   19  C   UNL     1     -41.380  55.925 -53.880  1.00  0.00     0.040 A 
HETATM   20  C   UNL     1     -41.329  55.387 -52.573  1.00  0.00    -0.034 A 
HETATM   21  C   UNL     1     -40.855  54.073 -52.379  1.00  0.00     0.026 A 
HETATM   22  C   UNL     1     -41.764  56.170 -51.363  1.00  0.00     0.050 C 
HETATM   23  C   UNL     1     -40.440  53.292 -53.463  1.00  0.00     0.032 A 
HETATM   24  C   UNL     1     -40.455  53.842 -54.744  1.00  0.00     0.019 A 
HETATM   25  C   UNL     1     -40.924  55.145 -54.949  1.00  0.00     0.031 A 
BRANCH  23  26
HETATM   26  C   UNL     1     -39.965  51.887 -53.297  1.00  0.00     0.251 C 
HETATM   27  N   UNL     1     -39.472  51.552 -52.051  1.00  0.00    -0.357 N 
HETATM   28  H   UNL     1     -39.607  52.190 -51.279  1.00  0.00     0.162 HD
HETATM   29  O   UNL     1     -40.059  51.092 -54.223  1.00  0.00    -0.268 OA
BRANCH  27  30
HETATM   30  C   UNL     1     -39.089  50.192 -51.731  1.00  0.00     0.118 C 
HETATM   31  C   UNL     1     -40.038  49.572 -50.721  1.00  0.00     0.026 C 
ENDBRANCH  27  30
ENDBRANCH  23  26
ENDBRANCH   1  19
TORSDOF 7
ENDMDL
