MODEL 1
REMARK VINA RESULT:      -8.9      0.000      0.000
REMARK  6 active torsions:
REMARK  status: ('A' for Active; 'I' for Inactive)
REMARK    1  A    between atoms: C_2  and  O_3 
REMARK    2  A    between atoms: C_2  and  C_4 
REMARK    3  A    between atoms: C_7  and  N_8 
REMARK       I    between atoms: N_8  and  C_9 
REMARK    4  A    between atoms: C_9  and  C_10 
REMARK    5  A    between atoms: C_13  and  C_14 
REMARK    6  A    between atoms: C_19  and  C_20 
ROOT
HETATM    1  C   UNL     1     -42.902  56.530 -55.836  1.00  0.00     0.096 C 
HETATM    2  C   UNL     1     -42.704  56.739 -57.187  1.00  0.00     0.138 C 
HETATM    3  N   UNL     1     -42.955  58.076 -57.402  1.00  0.00    -0.240 N 
HETATM    4  C   UNL     1     -42.901  58.729 -58.699  1.00  0.00     0.221 C 
HETATM    5  C   UNL     1     -42.220  57.815 -59.737  1.00  0.00     0.068 C 
HETATM    6  C   UNL     1     -42.689  56.361 -59.594  1.00  0.00     0.143 C 
HETATM    7  N   UNL     1     -42.377  55.913 -58.222  1.00  0.00    -0.363 N 
HETATM    8  N   UNL     1     -43.467  58.699 -56.329  1.00  0.00    -0.181 NA
HETATM    9  C   UNL     1     -43.407  57.768 -55.373  1.00  0.00     0.160 C 
HETATM   10  H   UNL     1     -42.560  54.913 -58.108  1.00  0.00     0.162 HD
ENDROOT
BRANCH   1  11
HETATM   11  C   UNL     1     -42.706  55.329 -55.042  1.00  0.00     0.261 C 
HETATM   12  N   UNL     1     -41.376  55.051 -54.788  1.00  0.00    -0.323 N 
HETATM   13  H   UNL     1     -40.716  55.757 -55.097  1.00  0.00     0.169 HD
HETATM   14  O   UNL     1     -43.670  54.700 -54.623  1.00  0.00    -0.267 OA
BRANCH  12  15
HETATM   15  C   UNL     1     -40.856  53.995 -54.012  1.00  0.00     0.035 A 
HETATM   16  C   UNL     1     -40.384  52.797 -54.547  1.00  0.00     0.030 A 
HETATM   17  C   UNL     1     -39.911  51.780 -53.708  1.00  0.00     0.012 A 
HETATM   18  C   UNL     1     -39.899  51.940 -52.316  1.00  0.00    -0.030 A 
HETATM   19  C   UNL     1     -40.361  53.151 -51.785  1.00  0.00     0.012 A 
HETATM   20  C   UNL     1     -40.824  54.171 -52.624  1.00  0.00     0.030 A 
BRANCH  18  21
HETATM   21  C   UNL     1     -39.440  50.800 -51.434  1.00  0.00     0.147 C 
HETATM   22  C   UNL     1     -39.609  49.456 -52.134  1.00  0.00     0.044 C 
BRANCH  21  23
HETATM   23  O   UNL     1     -40.177  50.785 -50.212  1.00  0.00    -0.391 OA
HETATM   24  H   UNL     1     -40.209  49.861 -49.912  1.00  0.00     0.210 HD
ENDBRANCH  21  23
ENDBRANCH  18  21
ENDBRANCH  12  15
ENDBRANCH   1  11
BRANCH   4  25
HETATM   25  C   UNL     1     -42.161  60.047 -58.625  1.00  0.00     0.409 C 
HETATM   26  F   UNL     1     -41.103  59.994 -57.784  1.00  0.00    -0.169 F 
HETATM   27  F   UNL     1     -41.662  60.360 -59.851  1.00  0.00    -0.169 F 
HETATM   28  F   UNL     1     -42.938  61.087 -58.260  1.00  0.00    -0.169 F 
ENDBRANCH   4  25
BRANCH   6  29
HETATM   29  C   UNL     1     -44.125  56.202 -60.006  1.00  0.00     0.075 A 
HETATM   30  O   UNL     1     -44.351  55.458 -61.129  1.00  0.00    -0.325 OA
HETATM   31  C   UNL     1     -45.692  55.457 -61.343  1.00  0.00     0.142 A 
HETATM   32  C   UNL     1     -46.335  56.186 -60.372  1.00  0.00     0.027 A 
HETATM   33  C   UNL     1     -45.324  56.666 -59.505  1.00  0.00     0.037 A 
ENDBRANCH   6  29
TORSDOF 6
ENDMDL
MODEL 2
REMARK VINA RESULT:      -8.5      1.364      1.739
REMARK  6 active torsions:
REMARK  status: ('A' for Active; 'I' for Inactive)
REMARK    1  A    between atoms: C_2  and  O_3 
REMARK    2  A    between atoms: C_2  and  C_4 
REMARK    3  A    between atoms: C_7  and  N_8 
REMARK       I    between atoms: N_8  and  C_9 
REMARK    4  A    between atoms: C_9  and  C_10 
REMARK    5  A    between atoms: C_13  and  C_14 
REMARK    6  A    between atoms: C_19  and  C_20 
ROOT
HETATM    1  C   UNL     1     -42.984  57.321 -55.695  1.00  0.00     0.096 C 
HETATM    2  C   UNL     1     -42.884  57.484 -57.064  1.00  0.00     0.138 C 
HETATM    3  N   UNL     1     -43.897  58.350 -57.414  1.00  0.00    -0.240 N 
HETATM    4  C   UNL     1     -44.187  58.774 -58.774  1.00  0.00     0.221 C 
HETATM    5  C   UNL     1     -43.031  58.391 -59.719  1.00  0.00     0.068 C 
HETATM    6  C   UNL     1     -42.507  56.980 -59.417  1.00  0.00     0.143 C 
HETATM    7  N   UNL     1     -42.060  56.950 -58.010  1.00  0.00    -0.363 N 
HETATM    8  N   UNL     1     -44.742  58.614 -56.406  1.00  0.00    -0.181 NA
HETATM    9  C   UNL     1     -44.171  58.014 -55.358  1.00  0.00     0.160 C 
HETATM   10  H   UNL     1     -41.591  56.067 -57.789  1.00  0.00     0.162 HD
ENDROOT
BRANCH   1  11
HETATM   11  C   UNL     1     -42.131  56.581 -54.782  1.00  0.00     0.261 C 
HETATM   12  N   UNL     1     -42.414  55.228 -54.741  1.00  0.00    -0.323 N 
HETATM   13  H   UNL     1     -43.104  54.907 -55.412  1.00  0.00     0.169 HD
HETATM   14  O   UNL     1     -41.230  57.151 -54.177  1.00  0.00    -0.267 OA
BRANCH  12  15
HETATM   15  C   UNL     1     -41.742  54.236 -54.001  1.00  0.00     0.035 A 
HETATM   16  C   UNL     1     -41.767  54.153 -52.609  1.00  0.00     0.030 A 
HETATM   17  C   UNL     1     -41.046  53.155 -51.941  1.00  0.00     0.012 A 
HETATM   18  C   UNL     1     -40.285  52.218 -52.651  1.00  0.00    -0.030 A 
HETATM   19  C   UNL     1     -40.274  52.296 -54.049  1.00  0.00     0.012 A 
HETATM   20  C   UNL     1     -41.002  53.287 -54.717  1.00  0.00     0.030 A 
BRANCH  18  21
HETATM   21  C   UNL     1     -39.468  51.190 -51.898  1.00  0.00     0.147 C 
HETATM   22  C   UNL     1     -39.527  49.828 -52.581  1.00  0.00     0.044 C 
BRANCH  21  23
HETATM   23  O   UNL     1     -39.941  51.060 -50.558  1.00  0.00    -0.391 OA
HETATM   24  H   UNL     1     -39.532  51.776 -50.044  1.00  0.00     0.210 HD
ENDBRANCH  21  23
ENDBRANCH  18  21
ENDBRANCH  12  15
ENDBRANCH   1  11
BRANCH   4  25
HETATM   25  C   UNL     1     -44.426  60.265 -58.849  1.00  0.00     0.409 C 
HETATM   26  F   UNL     1     -43.616  60.957 -58.015  1.00  0.00    -0.169 F 
HETATM   27  F   UNL     1     -44.154  60.709 -60.106  1.00  0.00    -0.169 F 
HETATM   28  F   UNL     1     -45.700  60.626 -58.593  1.00  0.00    -0.169 F 
ENDBRANCH   4  25
BRANCH   6  29
HETATM   29  C   UNL     1     -43.511  55.927 -59.790  1.00  0.00     0.075 A 
HETATM   30  O   UNL     1     -44.130  56.084 -60.998  1.00  0.00    -0.325 OA
HETATM   31  C   UNL     1     -45.007  55.057 -61.134  1.00  0.00     0.142 A 
HETATM   32  C   UNL     1     -44.961  54.236 -60.033  1.00  0.00     0.027 A 
HETATM   33  C   UNL     1     -43.993  54.795 -59.165  1.00  0.00     0.037 A 
ENDBRANCH   6  29
TORSDOF 6
ENDMDL
MODEL 3
REMARK VINA RESULT:      -8.2      2.937      4.113
REMARK  6 active torsions:
REMARK  status: ('A' for Active; 'I' for Inactive)
REMARK    1  A    between atoms: C_2  and  O_3 
REMARK    2  A    between atoms: C_2  and  C_4 
REMARK    3  A    between atoms: C_7  and  N_8 
REMARK       I    between atoms: N_8  and  C_9 
REMARK    4  A    between atoms: C_9  and  C_10 
REMARK    5  A    between atoms: C_13  and  C_14 
REMARK    6  A    between atoms: C_19  and  C_20 
ROOT
HETATM    1  C   UNL     1     -43.510  56.108 -57.805  1.00  0.00     0.096 C 
HETATM    2  C   UNL     1     -44.200  57.200 -58.297  1.00  0.00     0.138 C 
HETATM    3  N   UNL     1     -44.824  56.764 -59.445  1.00  0.00    -0.240 N 
HETATM    4  C   UNL     1     -45.635  57.601 -60.313  1.00  0.00     0.221 C 
HETATM    5  C   UNL     1     -45.968  58.937 -59.619  1.00  0.00     0.068 C 
HETATM    6  C   UNL     1     -44.747  59.501 -58.879  1.00  0.00     0.143 C 
HETATM    7  N   UNL     1     -44.309  58.497 -57.889  1.00  0.00    -0.363 N 
HETATM    8  N   UNL     1     -44.447  55.531 -59.819  1.00  0.00    -0.181 NA
HETATM    9  C   UNL     1     -43.673  55.124 -58.810  1.00  0.00     0.160 C 
HETATM   10  H   UNL     1     -43.571  58.869 -57.285  1.00  0.00     0.162 HD
ENDROOT
BRANCH   1  11
HETATM   11  C   UNL     1     -42.740  55.969 -56.581  1.00  0.00     0.261 C 
HETATM   12  N   UNL     1     -42.830  54.711 -56.016  1.00  0.00    -0.323 N 
HETATM   13  H   UNL     1     -43.334  54.022 -56.564  1.00  0.00     0.169 HD
HETATM   14  O   UNL     1     -42.054  56.899 -56.173  1.00  0.00    -0.267 OA
BRANCH  12  15
HETATM   15  C   UNL     1     -42.169  54.241 -54.863  1.00  0.00     0.035 A 
HETATM   16  C   UNL     1     -40.916  53.631 -54.881  1.00  0.00     0.030 A 
HETATM   17  C   UNL     1     -40.336  53.161 -53.696  1.00  0.00     0.012 A 
HETATM   18  C   UNL     1     -40.997  53.292 -52.468  1.00  0.00    -0.030 A 
HETATM   19  C   UNL     1     -42.249  53.918 -52.453  1.00  0.00     0.012 A 
HETATM   20  C   UNL     1     -42.824  54.397 -53.636  1.00  0.00     0.030 A 
BRANCH  18  21
HETATM   21  C   UNL     1     -40.372  52.718 -51.215  1.00  0.00     0.147 C 
HETATM   22  C   UNL     1     -39.752  53.813 -50.355  1.00  0.00     0.044 C 
BRANCH  21  23
HETATM   23  O   UNL     1     -39.366  51.763 -51.550  1.00  0.00    -0.391 OA
HETATM   24  H   UNL     1     -39.766  51.140 -52.180  1.00  0.00     0.210 HD
ENDBRANCH  21  23
ENDBRANCH  18  21
ENDBRANCH  12  15
ENDBRANCH   1  11
BRANCH   4  25
HETATM   25  C   UNL     1     -46.919  56.906 -60.710  1.00  0.00     0.409 C 
HETATM   26  F   UNL     1     -46.721  55.974 -61.670  1.00  0.00    -0.169 F 
HETATM   27  F   UNL     1     -47.432  56.248 -59.636  1.00  0.00    -0.169 F 
HETATM   28  F   UNL     1     -47.885  57.746 -61.131  1.00  0.00    -0.169 F 
ENDBRANCH   4  25
BRANCH   6  29
HETATM   29  C   UNL     1     -43.685  59.959 -59.837  1.00  0.00     0.075 A 
HETATM   30  O   UNL     1     -44.109  60.719 -60.890  1.00  0.00    -0.325 OA
HETATM   31  C   UNL     1     -43.015  61.005 -61.642  1.00  0.00     0.142 A 
HETATM   32  C   UNL     1     -41.890  60.445 -61.086  1.00  0.00     0.027 A 
HETATM   33  C   UNL     1     -42.320  59.772 -59.919  1.00  0.00     0.037 A 
ENDBRANCH   6  29
TORSDOF 6
ENDMDL
MODEL 4
REMARK VINA RESULT:      -8.2      1.765      2.322
REMARK  6 active torsions:
REMARK  status: ('A' for Active; 'I' for Inactive)
REMARK    1  A    between atoms: C_2  and  O_3 
REMARK    2  A    between atoms: C_2  and  C_4 
REMARK    3  A    between atoms: C_7  and  N_8 
REMARK       I    between atoms: N_8  and  C_9 
REMARK    4  A    between atoms: C_9  and  C_10 
REMARK    5  A    between atoms: C_13  and  C_14 
REMARK    6  A    between atoms: C_19  and  C_20 
ROOT
HETATM    1  C   UNL     1     -42.540  56.991 -56.641  1.00  0.00     0.096 C 
HETATM    2  C   UNL     1     -43.272  57.136 -57.805  1.00  0.00     0.138 C 
HETATM    3  N   UNL     1     -42.849  58.319 -58.369  1.00  0.00    -0.240 N 
HETATM    4  C   UNL     1     -43.384  58.887 -59.597  1.00  0.00     0.221 C 
HETATM    5  C   UNL     1     -44.242  57.847 -60.344  1.00  0.00     0.068 C 
HETATM    6  C   UNL     1     -45.133  57.058 -59.374  1.00  0.00     0.143 C 
HETATM    7  N   UNL     1     -44.258  56.395 -58.386  1.00  0.00    -0.363 N 
HETATM    8  N   UNL     1     -42.034  59.027 -57.572  1.00  0.00    -0.181 NA
HETATM    9  C   UNL     1     -41.824  58.207 -56.538  1.00  0.00     0.160 C 
HETATM   10  H   UNL     1     -44.791  55.759 -57.787  1.00  0.00     0.162 HD
ENDROOT
BRANCH   1  11
HETATM   11  C   UNL     1     -42.517  55.894 -55.689  1.00  0.00     0.261 C 
HETATM   12  N   UNL     1     -41.239  55.503 -55.334  1.00  0.00    -0.323 N 
HETATM   13  H   UNL     1     -40.489  56.081 -55.699  1.00  0.00     0.169 HD
HETATM   14  O   UNL     1     -43.563  55.442 -55.241  1.00  0.00    -0.267 OA
BRANCH  12  15
HETATM   15  C   UNL     1     -40.876  54.511 -54.402  1.00  0.00     0.035 A 
HETATM   16  C   UNL     1     -41.001  54.659 -53.021  1.00  0.00     0.030 A 
HETATM   17  C   UNL     1     -40.589  53.638 -52.155  1.00  0.00     0.012 A 
HETATM   18  C   UNL     1     -40.043  52.447 -52.651  1.00  0.00    -0.030 A 
HETATM   19  C   UNL     1     -39.934  52.297 -54.039  1.00  0.00     0.012 A 
HETATM   20  C   UNL     1     -40.355  53.314 -54.905  1.00  0.00     0.030 A 
BRANCH  18  21
HETATM   21  C   UNL     1     -39.550  51.389 -51.688  1.00  0.00     0.147 C 
HETATM   22  C   UNL     1     -39.751  49.988 -52.255  1.00  0.00     0.044 C 
BRANCH  21  23
HETATM   23  O   UNL     1     -40.236  51.491 -50.441  1.00  0.00    -0.391 OA
HETATM   24  H   UNL     1     -39.594  51.266 -49.746  1.00  0.00     0.210 HD
ENDBRANCH  21  23
ENDBRANCH  18  21
ENDBRANCH  12  15
ENDBRANCH   1  11
BRANCH   4  25
HETATM   25  C   UNL     1     -42.279  59.376 -60.506  1.00  0.00     0.409 C 
HETATM   26  F   UNL     1     -41.395  58.398 -60.812  1.00  0.00    -0.169 F 
HETATM   27  F   UNL     1     -42.811  59.795 -61.686  1.00  0.00    -0.169 F 
HETATM   28  F   UNL     1     -41.592  60.425 -60.012  1.00  0.00    -0.169 F 
ENDBRANCH   4  25
BRANCH   6  29
HETATM   29  C   UNL     1     -46.214  57.922 -58.792  1.00  0.00     0.075 A 
HETATM   30  O   UNL     1     -46.834  58.780 -59.657  1.00  0.00    -0.325 OA
HETATM   31  C   UNL     1     -47.749  59.480 -58.938  1.00  0.00     0.142 A 
HETATM   32  C   UNL     1     -47.732  59.083 -57.623  1.00  0.00     0.027 A 
HETATM   33  C   UNL     1     -46.745  58.075 -57.527  1.00  0.00     0.037 A 
ENDBRANCH   6  29
TORSDOF 6
ENDMDL
MODEL 5
REMARK VINA RESULT:      -8.0      3.035      8.749
REMARK  6 active torsions:
REMARK  status: ('A' for Active; 'I' for Inactive)
REMARK    1  A    between atoms: C_2  and  O_3 
REMARK    2  A    between atoms: C_2  and  C_4 
REMARK    3  A    between atoms: C_7  and  N_8 
REMARK       I    between atoms: N_8  and  C_9 
REMARK    4  A    between atoms: C_9  and  C_10 
REMARK    5  A    between atoms: C_13  and  C_14 
REMARK    6  A    between atoms: C_19  and  C_20 
ROOT
HETATM    1  C   UNL     1     -43.355  57.369 -56.668  1.00  0.00     0.096 C 
HETATM    2  C   UNL     1     -43.433  56.672 -55.477  1.00  0.00     0.138 C 
HETATM    3  N   UNL     1     -42.751  57.430 -54.552  1.00  0.00    -0.240 N 
HETATM    4  C   UNL     1     -42.550  57.054 -53.162  1.00  0.00     0.221 C 
HETATM    5  C   UNL     1     -43.462  55.870 -52.785  1.00  0.00     0.068 C 
HETATM    6  C   UNL     1     -43.500  54.817 -53.900  1.00  0.00     0.143 C 
HETATM    7  N   UNL     1     -43.983  55.472 -55.132  1.00  0.00    -0.363 N 
HETATM    8  N   UNL     1     -42.095  58.468 -55.095  1.00  0.00    -0.181 NA
HETATM    9  C   UNL     1     -42.485  58.446 -56.372  1.00  0.00     0.160 C 
HETATM   10  H   UNL     1     -44.141  54.790 -55.878  1.00  0.00     0.162 HD
ENDROOT
BRANCH   1  11
HETATM   11  C   UNL     1     -43.957  57.078 -57.957  1.00  0.00     0.261 C 
HETATM   12  N   UNL     1     -45.259  57.529 -58.069  1.00  0.00    -0.323 N 
HETATM   13  H   UNL     1     -45.596  58.083 -57.289  1.00  0.00     0.169 HD
HETATM   14  O   UNL     1     -43.302  56.532 -58.837  1.00  0.00    -0.267 OA
BRANCH  12  15
HETATM   15  C   UNL     1     -46.098  57.450 -59.199  1.00  0.00     0.035 A 
HETATM   16  C   UNL     1     -46.336  56.274 -59.908  1.00  0.00     0.030 A 
HETATM   17  C   UNL     1     -47.158  56.280 -61.042  1.00  0.00     0.012 A 
HETATM   18  C   UNL     1     -47.761  57.463 -61.490  1.00  0.00    -0.030 A 
HETATM   19  C   UNL     1     -47.530  58.639 -60.765  1.00  0.00     0.012 A 
HETATM   20  C   UNL     1     -46.716  58.630 -59.626  1.00  0.00     0.030 A 
BRANCH  18  21
HETATM   21  C   UNL     1     -48.594  57.449 -62.753  1.00  0.00     0.147 C 
HETATM   22  C   UNL     1     -49.902  58.207 -62.561  1.00  0.00     0.044 C 
BRANCH  21  23
HETATM   23  O   UNL     1     -48.884  56.108 -63.145  1.00  0.00    -0.391 OA
HETATM   24  H   UNL     1     -49.470  55.735 -62.465  1.00  0.00     0.210 HD
ENDBRANCH  21  23
ENDBRANCH  18  21
ENDBRANCH  12  15
ENDBRANCH   1  11
BRANCH   4  25
HETATM   25  C   UNL     1     -42.818  58.215 -52.231  1.00  0.00     0.409 C 
HETATM   26  F   UNL     1     -41.766  59.062 -52.149  1.00  0.00    -0.169 F 
HETATM   27  F   UNL     1     -43.864  58.947 -52.702  1.00  0.00    -0.169 F 
HETATM   28  F   UNL     1     -43.157  57.842 -50.980  1.00  0.00    -0.169 F 
ENDBRANCH   4  25
BRANCH   6  29
HETATM   29  C   UNL     1     -42.185  54.104 -54.030  1.00  0.00     0.075 A 
HETATM   30  O   UNL     1     -41.648  53.612 -52.873  1.00  0.00    -0.325 OA
HETATM   31  C   UNL     1     -40.463  53.034 -53.198  1.00  0.00     0.142 A 
HETATM   32  C   UNL     1     -40.229  53.142 -54.547  1.00  0.00     0.027 A 
HETATM   33  C   UNL     1     -41.341  53.829 -55.087  1.00  0.00     0.037 A 
ENDBRANCH   6  29
TORSDOF 6
ENDMDL
MODEL 6
REMARK VINA RESULT:      -7.9      3.513      8.569
REMARK  6 active torsions:
REMARK  status: ('A' for Active; 'I' for Inactive)
REMARK    1  A    between atoms: C_2  and  O_3 
REMARK    2  A    between atoms: C_2  and  C_4 
REMARK    3  A    between atoms: C_7  and  N_8 
REMARK       I    between atoms: N_8  and  C_9 
REMARK    4  A    between atoms: C_9  and  C_10 
REMARK    5  A    between atoms: C_13  and  C_14 
REMARK    6  A    between atoms: C_19  and  C_20 
ROOT
HETATM    1  C   UNL     1     -42.267  57.754 -54.094  1.00  0.00     0.096 C 
HETATM    2  C   UNL     1     -42.229  57.390 -52.761  1.00  0.00     0.138 C 
HETATM    3  N   UNL     1     -41.175  58.085 -52.211  1.00  0.00    -0.240 N 
HETATM    4  C   UNL     1     -40.745  57.975 -50.827  1.00  0.00     0.221 C 
HETATM    5  C   UNL     1     -41.807  57.237 -49.988  1.00  0.00     0.068 C 
HETATM    6  C   UNL     1     -42.377  56.030 -50.745  1.00  0.00     0.143 C 
HETATM    7  N   UNL     1     -42.962  56.519 -52.010  1.00  0.00    -0.363 N 
HETATM    8  N   UNL     1     -40.430  58.730 -53.123  1.00  0.00    -0.181 NA
HETATM    9  C   UNL     1     -41.110  58.552 -54.259  1.00  0.00     0.160 C 
HETATM   10  H   UNL     1     -43.463  55.773 -52.500  1.00  0.00     0.162 HD
ENDROOT
BRANCH   1  11
HETATM   11  C   UNL     1     -43.217  57.389 -55.131  1.00  0.00     0.261 C 
HETATM   12  N   UNL     1     -42.689  57.459 -56.406  1.00  0.00    -0.323 N 
HETATM   13  H   UNL     1     -41.696  57.658 -56.457  1.00  0.00     0.169 HD
HETATM   14  O   UNL     1     -44.344  57.013 -54.832  1.00  0.00    -0.267 OA
BRANCH  12  15
HETATM   15  C   UNL     1     -43.330  57.124 -57.616  1.00  0.00     0.035 A 
HETATM   16  C   UNL     1     -44.192  57.979 -58.302  1.00  0.00     0.030 A 
HETATM   17  C   UNL     1     -44.817  57.562 -59.484  1.00  0.00     0.012 A 
HETATM   18  C   UNL     1     -44.593  56.282 -60.006  1.00  0.00    -0.030 A 
HETATM   19  C   UNL     1     -43.716  55.432 -59.321  1.00  0.00     0.012 A 
HETATM   20  C   UNL     1     -43.083  55.851 -58.145  1.00  0.00     0.030 A 
BRANCH  18  21
HETATM   21  C   UNL     1     -45.331  55.839 -61.251  1.00  0.00     0.147 C 
HETATM   22  C   UNL     1     -46.841  55.928 -61.059  1.00  0.00     0.044 C 
BRANCH  21  23
HETATM   23  O   UNL     1     -44.982  54.497 -61.588  1.00  0.00    -0.391 OA
HETATM   24  H   UNL     1     -45.155  53.954 -60.801  1.00  0.00     0.210 HD
ENDBRANCH  21  23
ENDBRANCH  18  21
ENDBRANCH  12  15
ENDBRANCH   1  11
BRANCH   4  25
HETATM   25  C   UNL     1     -40.480  59.336 -50.221  1.00  0.00     0.409 C 
HETATM   26  F   UNL     1     -41.216  60.309 -50.804  1.00  0.00    -0.169 F 
HETATM   27  F   UNL     1     -40.829  59.326 -48.906  1.00  0.00    -0.169 F 
HETATM   28  F   UNL     1     -39.184  59.706 -50.261  1.00  0.00    -0.169 F 
ENDBRANCH   4  25
BRANCH   6  29
HETATM   29  C   UNL     1     -41.355  54.940 -50.894  1.00  0.00     0.075 A 
HETATM   30  O   UNL     1     -40.641  54.625 -49.772  1.00  0.00    -0.325 OA
HETATM   31  C   UNL     1     -39.765  53.647 -50.119  1.00  0.00     0.142 A 
HETATM   32  C   UNL     1     -39.906  53.324 -51.447  1.00  0.00     0.027 A 
HETATM   33  C   UNL     1     -40.935  54.155 -51.949  1.00  0.00     0.037 A 
ENDBRANCH   6  29
TORSDOF 6
ENDMDL
MODEL 7
REMARK VINA RESULT:      -7.8      2.644      3.875
REMARK  6 active torsions:
REMARK  status: ('A' for Active; 'I' for Inactive)
REMARK    1  A    between atoms: C_2  and  O_3 
REMARK    2  A    between atoms: C_2  and  C_4 
REMARK    3  A    between atoms: C_7  and  N_8 
REMARK       I    between atoms: N_8  and  C_9 
REMARK    4  A    between atoms: C_9  and  C_10 
REMARK    5  A    between atoms: C_13  and  C_14 
REMARK    6  A    between atoms: C_19  and  C_20 
ROOT
HETATM    1  C   UNL     1     -42.999  56.490 -56.779  1.00  0.00     0.096 C 
HETATM    2  C   UNL     1     -43.666  57.680 -56.999  1.00  0.00     0.138 C 
HETATM    3  N   UNL     1     -44.310  57.532 -58.207  1.00  0.00    -0.240 N 
HETATM    4  C   UNL     1     -45.109  58.564 -58.849  1.00  0.00     0.221 C 
HETATM    5  C   UNL     1     -45.403  59.712 -57.864  1.00  0.00     0.068 C 
HETATM    6  C   UNL     1     -44.163  60.065 -57.031  1.00  0.00     0.143 C 
HETATM    7  N   UNL     1     -43.740  58.851 -56.304  1.00  0.00    -0.363 N 
HETATM    8  N   UNL     1     -43.966  56.410 -58.859  1.00  0.00    -0.181 NA
HETATM    9  C   UNL     1     -43.195  55.767 -57.980  1.00  0.00     0.160 C 
HETATM   10  H   UNL     1     -42.989  59.059 -55.641  1.00  0.00     0.162 HD
ENDROOT
BRANCH   1  11
HETATM   11  C   UNL     1     -42.222  56.058 -55.630  1.00  0.00     0.261 C 
HETATM   12  N   UNL     1     -42.224  54.687 -55.451  1.00  0.00    -0.323 N 
HETATM   13  H   UNL     1     -42.678  54.152 -56.184  1.00  0.00     0.169 HD
HETATM   14  O   UNL     1     -41.604  56.876 -54.959  1.00  0.00    -0.267 OA
BRANCH  12  15
HETATM   15  C   UNL     1     -41.532  53.953 -54.467  1.00  0.00     0.035 A 
HETATM   16  C   UNL     1     -40.445  53.122 -54.738  1.00  0.00     0.030 A 
HETATM   17  C   UNL     1     -39.829  52.398 -53.710  1.00  0.00     0.012 A 
HETATM   18  C   UNL     1     -40.285  52.489 -52.389  1.00  0.00    -0.030 A 
HETATM   19  C   UNL     1     -41.368  53.335 -52.119  1.00  0.00     0.012 A 
HETATM   20  C   UNL     1     -41.978  54.067 -53.145  1.00  0.00     0.030 A 
BRANCH  18  21
HETATM   21  C   UNL     1     -39.637  51.647 -51.312  1.00  0.00     0.147 C 
HETATM   22  C   UNL     1     -39.576  50.179 -51.719  1.00  0.00     0.044 C 
BRANCH  21  23
HETATM   23  O   UNL     1     -40.360  51.761 -50.087  1.00  0.00    -0.391 OA
HETATM   24  H   UNL     1     -40.511  50.857 -49.762  1.00  0.00     0.210 HD
ENDBRANCH  21  23
ENDBRANCH  18  21
ENDBRANCH  12  15
ENDBRANCH   1  11
BRANCH   4  25
HETATM   25  C   UNL     1     -46.412  58.005 -59.377  1.00  0.00     0.409 C 
HETATM   26  F   UNL     1     -47.348  58.966 -59.552  1.00  0.00    -0.169 F 
HETATM   27  F   UNL     1     -46.206  57.442 -60.598  1.00  0.00    -0.169 F 
HETATM   28  F   UNL     1     -46.942  57.037 -58.603  1.00  0.00    -0.169 F 
ENDBRANCH   4  25
BRANCH   6  29
HETATM   29  C   UNL     1     -43.098  60.707 -57.873  1.00  0.00     0.075 A 
HETATM   30  O   UNL     1     -43.486  61.787 -58.616  1.00  0.00    -0.325 OA
HETATM   31  C   UNL     1     -42.398  62.200 -59.316  1.00  0.00     0.142 A 
HETATM   32  C   UNL     1     -41.313  61.406 -59.033  1.00  0.00     0.027 A 
HETATM   33  C   UNL     1     -41.762  60.443 -58.099  1.00  0.00     0.037 A 
ENDBRANCH   6  29
TORSDOF 6
ENDMDL
MODEL 8
REMARK VINA RESULT:      -7.8     15.762     18.301
REMARK  6 active torsions:
REMARK  status: ('A' for Active; 'I' for Inactive)
REMARK    1  A    between atoms: C_2  and  O_3 
REMARK    2  A    between atoms: C_2  and  C_4 
REMARK    3  A    between atoms: C_7  and  N_8 
REMARK       I    between atoms: N_8  and  C_9 
REMARK    4  A    between atoms: C_9  and  C_10 
REMARK    5  A    between atoms: C_13  and  C_14 
REMARK    6  A    between atoms: C_19  and  C_20 
ROOT
HETATM    1  C   UNL     1     -35.511  40.828 -52.907  1.00  0.00     0.096 C 
HETATM    2  C   UNL     1     -35.036  40.980 -54.196  1.00  0.00     0.138 C 
HETATM    3  N   UNL     1     -36.137  40.873 -55.017  1.00  0.00    -0.240 N 
HETATM    4  C   UNL     1     -36.094  40.936 -56.469  1.00  0.00     0.221 C 
HETATM    5  C   UNL     1     -34.724  41.453 -56.947  1.00  0.00     0.068 C 
HETATM    6  C   UNL     1     -33.578  40.827 -56.141  1.00  0.00     0.143 C 
HETATM    7  N   UNL     1     -33.788  41.156 -54.717  1.00  0.00    -0.363 N 
HETATM    8  N   UNL     1     -37.249  40.492 -54.368  1.00  0.00    -0.181 NA
HETATM    9  C   UNL     1     -36.875  40.494 -53.087  1.00  0.00     0.160 C 
HETATM   10  H   UNL     1     -32.990  40.864 -54.147  1.00  0.00     0.162 HD
ENDROOT
BRANCH   1  11
HETATM   11  C   UNL     1     -34.808  40.925 -51.640  1.00  0.00     0.261 C 
HETATM   12  N   UNL     1     -34.292  39.719 -51.205  1.00  0.00    -0.323 N 
HETATM   13  H   UNL     1     -34.380  38.947 -51.857  1.00  0.00     0.169 HD
HETATM   14  O   UNL     1     -34.674  42.011 -51.089  1.00  0.00    -0.267 OA
BRANCH  12  15
HETATM   15  C   UNL     1     -33.520  39.486 -50.049  1.00  0.00     0.035 A 
HETATM   16  C   UNL     1     -32.285  40.085 -49.805  1.00  0.00     0.030 A 
HETATM   17  C   UNL     1     -31.562  39.779 -48.645  1.00  0.00     0.012 A 
HETATM   18  C   UNL     1     -32.058  38.866 -47.705  1.00  0.00    -0.030 A 
HETATM   19  C   UNL     1     -33.305  38.278 -47.948  1.00  0.00     0.012 A 
HETATM   20  C   UNL     1     -34.033  38.592 -49.102  1.00  0.00     0.030 A 
BRANCH  18  21
HETATM   21  C   UNL     1     -31.224  38.509 -46.494  1.00  0.00     0.147 C 
HETATM   22  C   UNL     1     -30.454  39.719 -45.976  1.00  0.00     0.044 C 
BRANCH  21  23
HETATM   23  O   UNL     1     -30.300  37.470 -46.812  1.00  0.00    -0.391 OA
HETATM   24  H   UNL     1     -30.515  37.166 -47.710  1.00  0.00     0.210 HD
ENDBRANCH  21  23
ENDBRANCH  18  21
ENDBRANCH  12  15
ENDBRANCH   1  11
BRANCH   4  25
HETATM   25  C   UNL     1     -37.188  41.825 -57.017  1.00  0.00     0.409 C 
HETATM   26  F   UNL     1     -37.471  42.859 -56.191  1.00  0.00    -0.169 F 
HETATM   27  F   UNL     1     -36.784  42.374 -58.194  1.00  0.00    -0.169 F 
HETATM   28  F   UNL     1     -38.338  41.173 -57.283  1.00  0.00    -0.169 F 
ENDBRANCH   4  25
BRANCH   6  29
HETATM   29  C   UNL     1     -33.426  39.364 -56.443  1.00  0.00     0.075 A 
HETATM   30  O   UNL     1     -32.883  38.596 -55.452  1.00  0.00    -0.325 OA
HETATM   31  C   UNL     1     -32.809  37.326 -55.927  1.00  0.00     0.142 A 
HETATM   32  C   UNL     1     -33.301  37.262 -57.208  1.00  0.00     0.027 A 
HETATM   33  C   UNL     1     -33.704  38.576 -57.542  1.00  0.00     0.037 A 
ENDBRANCH   6  29
TORSDOF 6
ENDMDL
MODEL 9
REMARK VINA RESULT:      -7.8      4.466      6.390
REMARK  6 active torsions:
REMARK  status: ('A' for Active; 'I' for Inactive)
REMARK    1  A    between atoms: C_2  and  O_3 
REMARK    2  A    between atoms: C_2  and  C_4 
REMARK    3  A    between atoms: C_7  and  N_8 
REMARK       I    between atoms: N_8  and  C_9 
REMARK    4  A    between atoms: C_9  and  C_10 
REMARK    5  A    between atoms: C_13  and  C_14 
REMARK    6  A    between atoms: C_19  and  C_20 
ROOT
HETATM    1  C   UNL     1     -42.691  58.435 -53.203  1.00  0.00     0.096 C 
HETATM    2  C   UNL     1     -43.775  59.274 -53.032  1.00  0.00     0.138 C 
HETATM    3  N   UNL     1     -43.344  60.527 -53.410  1.00  0.00    -0.240 N 
HETATM    4  C   UNL     1     -44.155  61.732 -53.355  1.00  0.00     0.221 C 
HETATM    5  C   UNL     1     -45.638  61.375 -53.130  1.00  0.00     0.068 C 
HETATM    6  C   UNL     1     -45.792  60.260 -52.086  1.00  0.00     0.143 C 
HETATM    7  N   UNL     1     -45.041  59.081 -52.562  1.00  0.00    -0.363 N 
HETATM    8  N   UNL     1     -42.023  60.586 -53.643  1.00  0.00    -0.181 NA
HETATM    9  C   UNL     1     -41.634  59.312 -53.545  1.00  0.00     0.160 C 
HETATM   10  H   UNL     1     -45.207  58.269 -51.963  1.00  0.00     0.162 HD
ENDROOT
BRANCH   1  11
HETATM   11  C   UNL     1     -42.594  56.995 -53.033  1.00  0.00     0.261 C 
HETATM   12  N   UNL     1     -41.409  56.465 -53.509  1.00  0.00    -0.323 N 
HETATM   13  H   UNL     1     -40.724  57.143 -53.824  1.00  0.00     0.169 HD
HETATM   14  O   UNL     1     -43.487  56.378 -52.465  1.00  0.00    -0.267 OA
BRANCH  12  15
HETATM   15  C   UNL     1     -40.988  55.121 -53.449  1.00  0.00     0.035 A 
HETATM   16  C   UNL     1     -40.872  54.396 -52.264  1.00  0.00     0.030 A 
HETATM   17  C   UNL     1     -40.415  53.072 -52.282  1.00  0.00     0.012 A 
HETATM   18  C   UNL     1     -40.067  52.445 -53.486  1.00  0.00    -0.030 A 
HETATM   19  C   UNL     1     -40.199  53.173 -54.674  1.00  0.00     0.012 A 
HETATM   20  C   UNL     1     -40.664  54.493 -54.657  1.00  0.00     0.030 A 
BRANCH  18  21
HETATM   21  C   UNL     1     -39.518  51.034 -53.466  1.00  0.00     0.147 C 
HETATM   22  C   UNL     1     -40.307  50.121 -54.397  1.00  0.00     0.044 C 
BRANCH  21  23
HETATM   23  O   UNL     1     -39.561  50.501 -52.143  1.00  0.00    -0.391 OA
HETATM   24  H   UNL     1     -38.665  50.186 -51.936  1.00  0.00     0.210 HD
ENDBRANCH  21  23
ENDBRANCH  18  21
ENDBRANCH  12  15
ENDBRANCH   1  11
BRANCH   4  25
HETATM   25  C   UNL     1     -44.020  62.548 -54.622  1.00  0.00     0.409 C 
HETATM   26  F   UNL     1     -43.939  61.771 -55.726  1.00  0.00    -0.169 F 
HETATM   27  F   UNL     1     -45.122  63.329 -54.782  1.00  0.00    -0.169 F 
HETATM   28  F   UNL     1     -42.964  63.386 -54.618  1.00  0.00    -0.169 F 
ENDBRANCH   4  25
BRANCH   6  29
HETATM   29  C   UNL     1     -45.424  60.738 -50.711  1.00  0.00     0.075 A 
HETATM   30  O   UNL     1     -46.407  61.382 -50.013  1.00  0.00    -0.325 OA
HETATM   31  C   UNL     1     -45.872  61.753 -48.821  1.00  0.00     0.142 A 
HETATM   32  C   UNL     1     -44.560  61.352 -48.737  1.00  0.00     0.027 A 
HETATM   33  C   UNL     1     -44.270  60.694 -49.955  1.00  0.00     0.037 A 
ENDBRANCH   6  29
TORSDOF 6
ENDMDL
MODEL 10
REMARK VINA RESULT:      -7.7      3.848      8.952
REMARK  6 active torsions:
REMARK  status: ('A' for Active; 'I' for Inactive)
REMARK    1  A    between atoms: C_2  and  O_3 
REMARK    2  A    between atoms: C_2  and  C_4 
REMARK    3  A    between atoms: C_7  and  N_8 
REMARK       I    between atoms: N_8  and  C_9 
REMARK    4  A    between atoms: C_9  and  C_10 
REMARK    5  A    between atoms: C_13  and  C_14 
REMARK    6  A    between atoms: C_19  and  C_20 
ROOT
HETATM    1  C   UNL     1     -42.867  56.329 -56.617  1.00  0.00     0.096 C 
HETATM    2  C   UNL     1     -42.237  56.317 -55.387  1.00  0.00     0.138 C 
HETATM    3  N   UNL     1     -42.184  54.994 -55.004  1.00  0.00    -0.240 N 
HETATM    4  C   UNL     1     -41.632  54.519 -53.746  1.00  0.00     0.221 C 
HETATM    5  C   UNL     1     -40.832  55.639 -53.050  1.00  0.00     0.068 C 
HETATM    6  C   UNL     1     -41.560  56.987 -53.145  1.00  0.00     0.143 C 
HETATM    7  N   UNL     1     -41.756  57.301 -54.574  1.00  0.00    -0.363 N 
HETATM    8  N   UNL     1     -42.884  54.180 -55.809  1.00  0.00    -0.181 NA
HETATM    9  C   UNL     1     -43.273  54.985 -56.801  1.00  0.00     0.160 C 
HETATM   10  H   UNL     1     -42.130  58.245 -54.698  1.00  0.00     0.162 HD
ENDROOT
BRANCH   1  11
HETATM   11  C   UNL     1     -43.123  57.438 -57.519  1.00  0.00     0.261 C 
HETATM   12  N   UNL     1     -41.976  57.967 -58.078  1.00  0.00    -0.323 N 
HETATM   13  H   UNL     1     -41.118  57.466 -57.871  1.00  0.00     0.169 HD
HETATM   14  O   UNL     1     -44.273  57.785 -57.760  1.00  0.00    -0.267 OA
BRANCH  12  15
HETATM   15  C   UNL     1     -41.886  59.009 -59.023  1.00  0.00     0.035 A 
HETATM   16  C   UNL     1     -42.061  58.830 -60.395  1.00  0.00     0.030 A 
HETATM   17  C   UNL     1     -41.925  59.909 -61.277  1.00  0.00     0.012 A 
HETATM   18  C   UNL     1     -41.612  61.191 -60.806  1.00  0.00    -0.030 A 
HETATM   19  C   UNL     1     -41.452  61.369 -59.426  1.00  0.00     0.012 A 
HETATM   20  C   UNL     1     -41.597  60.292 -58.544  1.00  0.00     0.030 A 
BRANCH  18  21
HETATM   21  C   UNL     1     -41.411  62.324 -61.789  1.00  0.00     0.147 C 
HETATM   22  C   UNL     1     -40.011  62.915 -61.673  1.00  0.00     0.044 C 
BRANCH  21  23
HETATM   23  O   UNL     1     -42.373  63.354 -61.567  1.00  0.00    -0.391 OA
HETATM   24  H   UNL     1     -42.451  63.852 -62.399  1.00  0.00     0.210 HD
ENDBRANCH  21  23
ENDBRANCH  18  21
ENDBRANCH  12  15
ENDBRANCH   1  11
BRANCH   4  25
HETATM   25  C   UNL     1     -40.739  53.316 -53.954  1.00  0.00     0.409 C 
HETATM   26  F   UNL     1     -39.884  53.484 -54.988  1.00  0.00    -0.169 F 
HETATM   27  F   UNL     1     -39.971  53.121 -52.848  1.00  0.00    -0.169 F 
HETATM   28  F   UNL     1     -41.414  52.165 -54.147  1.00  0.00    -0.169 F 
ENDBRANCH   4  25
BRANCH   6  29
HETATM   29  C   UNL     1     -42.809  56.999 -52.311  1.00  0.00     0.075 A 
HETATM   30  O   UNL     1     -43.783  57.875 -52.696  1.00  0.00    -0.325 OA
HETATM   31  C   UNL     1     -44.804  57.751 -51.810  1.00  0.00     0.142 A 
HETATM   32  C   UNL     1     -44.505  56.803 -50.861  1.00  0.00     0.027 A 
HETATM   33  C   UNL     1     -43.218  56.314 -51.185  1.00  0.00     0.037 A 
ENDBRANCH   6  29
TORSDOF 6
ENDMDL
