MODEL 1
REMARK VINA RESULT:      -8.9      0.000      0.000
REMARK  7 active torsions:
REMARK  status: ('A' for Active; 'I' for Inactive)
REMARK    1  A    between atoms: O_2  and  C_3 
REMARK    2  A    between atoms: C_5  and  C_6 
REMARK    3  A    between atoms: C_6  and  O_7 
REMARK    4  A    between atoms: C_6  and  C_8 
REMARK    5  A    between atoms: C_8  and  N_9 
REMARK       I    between atoms: N_9  and  C_10 
REMARK    6  A    between atoms: C_10  and  C_11 
REMARK    7  A    between atoms: C_12  and  C_13 
ROOT
HETATM    1  C   UNL     1     -41.400  57.600 -53.118  1.00  0.00     0.089 C 
HETATM    2  C   UNL     1     -41.594  56.618 -51.922  1.00  0.00     0.068 C 
HETATM    3  C   UNL     1     -40.860  57.066 -50.638  1.00  0.00     0.013 C 
HETATM    4  C   UNL     1     -41.103  58.521 -50.278  1.00  0.00     0.001 C 
HETATM    5  C   UNL     1     -40.696  59.413 -51.436  1.00  0.00     0.001 C 
HETATM    6  C   UNL     1     -41.510  59.075 -52.675  1.00  0.00     0.015 C 
ENDROOT
BRANCH   1   7
HETATM    7  C   UNL     1     -42.393  57.256 -54.260  1.00  0.00     0.222 C 
HETATM    8  N   UNL     1     -41.888  56.738 -55.427  1.00  0.00    -0.358 N 
HETATM    9  H   UNL     1     -40.914  56.479 -55.485  1.00  0.00     0.162 HD
HETATM   10  O   UNL     1     -43.607  57.419 -54.137  1.00  0.00    -0.273 OA
BRANCH   8  11
HETATM   11  C   UNL     1     -42.740  56.233 -56.498  1.00  0.00     0.159 C 
BRANCH  11  12
HETATM   12  C   UNL     1     -43.063  57.190 -57.669  1.00  0.00     0.169 C 
BRANCH  12  13
HETATM   13  C   UNL     1     -43.990  56.602 -58.714  1.00  0.00    -0.025 A 
HETATM   14  C   UNL     1     -45.136  57.299 -59.139  1.00  0.00     0.046 A 
HETATM   15  C   UNL     1     -45.973  56.766 -60.119  1.00  0.00     0.068 A 
HETATM   16  C   UNL     1     -45.673  55.518 -60.670  1.00  0.00     0.037 A 
HETATM   17  C   UNL     1     -44.542  54.813 -60.258  1.00  0.00     0.003 A 
HETATM   18  C   UNL     1     -43.703  55.354 -59.286  1.00  0.00     0.010 A 
BRANCH  15  19
HETATM   19  O   UNL     1     -47.101  57.355 -60.619  1.00  0.00    -0.356 OA
HETATM   20  C   UNL     1     -47.836  56.615 -61.587  1.00  0.00     0.210 C 
ENDBRANCH  15  19
ENDBRANCH  12  13
BRANCH  12  21
HETATM   21  O   UNL     1     -43.674  58.373 -57.134  1.00  0.00    -0.389 OA
HETATM   22  H   UNL     1     -42.954  58.900 -56.742  1.00  0.00     0.210 HD
ENDBRANCH  12  21
ENDBRANCH  11  12
ENDBRANCH   8  11
ENDBRANCH   1   7
BRANCH   2  23
HETATM   23  C   UNL     1     -41.151  55.204 -52.238  1.00  0.00     0.110 A 
HETATM   24  N   UNL     1     -41.147  54.610 -53.416  1.00  0.00    -0.233 NA
HETATM   25  C   UNL     1     -40.628  53.354 -53.202  1.00  0.00     0.087 A 
HETATM   26  C   UNL     1     -40.302  53.174 -51.865  1.00  0.00     0.062 A 
HETATM   27  C   UNL     1     -40.413  52.306 -54.108  1.00  0.00     0.057 A 
HETATM   28  N   UNL     1     -40.644  54.361 -51.278  1.00  0.00    -0.342 N 
HETATM   29  C   UNL     1     -39.772  51.990 -51.348  1.00  0.00     0.034 A 
HETATM   30  H   UNL     1     -40.662  54.549 -50.284  1.00  0.00     0.167 HD
HETATM   31  C   UNL     1     -39.562  50.954 -52.263  1.00  0.00     0.026 A 
HETATM   32  C   UNL     1     -39.878  51.112 -53.616  1.00  0.00     0.036 A 
HETATM   33 CL   UNL     1     -39.606  49.801 -54.701  1.00  0.00    -0.084 Cl
ENDBRANCH   2  23
TORSDOF 7
ENDMDL
MODEL 2
REMARK VINA RESULT:      -8.7      3.283      5.482
REMARK  7 active torsions:
REMARK  status: ('A' for Active; 'I' for Inactive)
REMARK    1  A    between atoms: O_2  and  C_3 
REMARK    2  A    between atoms: C_5  and  C_6 
REMARK    3  A    between atoms: C_6  and  O_7 
REMARK    4  A    between atoms: C_6  and  C_8 
REMARK    5  A    between atoms: C_8  and  N_9 
REMARK       I    between atoms: N_9  and  C_10 
REMARK    6  A    between atoms: C_10  and  C_11 
REMARK    7  A    between atoms: C_12  and  C_13 
ROOT
HETATM    1  C   UNL     1     -44.470  58.760 -53.189  1.00  0.00     0.089 C 
HETATM    2  C   UNL     1     -44.864  57.909 -51.943  1.00  0.00     0.068 C 
HETATM    3  C   UNL     1     -45.178  58.763 -50.694  1.00  0.00     0.013 C 
HETATM    4  C   UNL     1     -46.128  59.914 -50.971  1.00  0.00     0.001 C 
HETATM    5  C   UNL     1     -45.560  60.800 -52.064  1.00  0.00     0.001 C 
HETATM    6  C   UNL     1     -45.373  60.003 -53.345  1.00  0.00     0.015 C 
ENDROOT
BRANCH   1   7
HETATM    7  C   UNL     1     -44.467  57.875 -54.464  1.00  0.00     0.222 C 
HETATM    8  N   UNL     1     -43.288  57.279 -54.839  1.00  0.00    -0.358 N 
HETATM    9  H   UNL     1     -42.484  57.323 -54.230  1.00  0.00     0.162 HD
HETATM   10  O   UNL     1     -45.488  57.683 -55.124  1.00  0.00    -0.273 OA
BRANCH   8  11
HETATM   11  C   UNL     1     -43.208  56.304 -55.920  1.00  0.00     0.159 C 
BRANCH  11  12
HETATM   12  C   UNL     1     -43.444  54.818 -55.566  1.00  0.00     0.169 C 
BRANCH  12  13
HETATM   13  C   UNL     1     -42.197  54.078 -55.125  1.00  0.00    -0.025 A 
HETATM   14  C   UNL     1     -42.227  52.693 -54.877  1.00  0.00     0.046 A 
HETATM   15  C   UNL     1     -41.071  52.012 -54.495  1.00  0.00     0.068 A 
HETATM   16  C   UNL     1     -39.877  52.721 -54.346  1.00  0.00     0.037 A 
HETATM   17  C   UNL     1     -39.831  54.095 -54.584  1.00  0.00     0.003 A 
HETATM   18  C   UNL     1     -40.986  54.768 -54.975  1.00  0.00     0.010 A 
BRANCH  15  19
HETATM   19  O   UNL     1     -40.975  50.671 -54.243  1.00  0.00    -0.356 OA
HETATM   20  C   UNL     1     -39.690  50.176 -53.887  1.00  0.00     0.210 C 
ENDBRANCH  15  19
ENDBRANCH  12  13
BRANCH  12  21
HETATM   21  O   UNL     1     -44.410  54.751 -54.506  1.00  0.00    -0.389 OA
HETATM   22  H   UNL     1     -44.258  53.904 -54.050  1.00  0.00     0.210 HD
ENDBRANCH  12  21
ENDBRANCH  11  12
ENDBRANCH   8  11
ENDBRANCH   1   7
BRANCH   2  23
HETATM   23  C   UNL     1     -43.804  56.897 -51.557  1.00  0.00     0.110 A 
HETATM   24  N   UNL     1     -43.728  55.634 -51.931  1.00  0.00    -0.233 NA
HETATM   25  C   UNL     1     -42.580  55.140 -51.355  1.00  0.00     0.087 A 
HETATM   26  C   UNL     1     -41.935  56.122 -50.616  1.00  0.00     0.062 A 
HETATM   27  C   UNL     1     -42.030  53.853 -51.415  1.00  0.00     0.057 A 
HETATM   28  N   UNL     1     -42.732  57.224 -50.761  1.00  0.00    -0.342 N 
HETATM   29  C   UNL     1     -40.753  55.906 -49.904  1.00  0.00     0.034 A 
HETATM   30  H   UNL     1     -42.639  58.096 -50.256  1.00  0.00     0.167 HD
HETATM   31  C   UNL     1     -40.215  54.618 -49.974  1.00  0.00     0.026 A 
HETATM   32  C   UNL     1     -40.843  53.613 -50.715  1.00  0.00     0.036 A 
HETATM   33 CL   UNL     1     -40.141  52.040 -50.762  1.00  0.00    -0.084 Cl
ENDBRANCH   2  23
TORSDOF 7
ENDMDL
MODEL 3
REMARK VINA RESULT:      -8.4      1.779      2.021
REMARK  7 active torsions:
REMARK  status: ('A' for Active; 'I' for Inactive)
REMARK    1  A    between atoms: O_2  and  C_3 
REMARK    2  A    between atoms: C_5  and  C_6 
REMARK    3  A    between atoms: C_6  and  O_7 
REMARK    4  A    between atoms: C_6  and  C_8 
REMARK    5  A    between atoms: C_8  and  N_9 
REMARK       I    between atoms: N_9  and  C_10 
REMARK    6  A    between atoms: C_10  and  C_11 
REMARK    7  A    between atoms: C_12  and  C_13 
ROOT
HETATM    1  C   UNL     1     -43.053  58.707 -53.029  1.00  0.00     0.089 C 
HETATM    2  C   UNL     1     -43.854  57.409 -52.701  1.00  0.00     0.068 C 
HETATM    3  C   UNL     1     -44.512  57.433 -51.304  1.00  0.00     0.013 C 
HETATM    4  C   UNL     1     -45.281  58.711 -51.018  1.00  0.00     0.001 C 
HETATM    5  C   UNL     1     -44.362  59.909 -51.169  1.00  0.00     0.001 C 
HETATM    6  C   UNL     1     -43.811  59.977 -52.585  1.00  0.00     0.015 C 
ENDROOT
BRANCH   1   7
HETATM    7  C   UNL     1     -42.683  58.743 -54.535  1.00  0.00     0.222 C 
HETATM    8  N   UNL     1     -43.604  58.282 -55.443  1.00  0.00    -0.358 N 
HETATM    9  H   UNL     1     -44.536  58.042 -55.139  1.00  0.00     0.162 HD
HETATM   10  O   UNL     1     -41.605  59.187 -54.928  1.00  0.00    -0.273 OA
BRANCH   8  11
HETATM   11  C   UNL     1     -43.425  58.417 -56.884  1.00  0.00     0.159 C 
BRANCH  11  12
HETATM   12  C   UNL     1     -42.858  57.202 -57.654  1.00  0.00     0.169 C 
BRANCH  12  13
HETATM   13  C   UNL     1     -43.834  56.573 -58.628  1.00  0.00    -0.025 A 
HETATM   14  C   UNL     1     -44.931  57.301 -59.124  1.00  0.00     0.046 A 
HETATM   15  C   UNL     1     -45.813  56.726 -60.040  1.00  0.00     0.068 A 
HETATM   16  C   UNL     1     -45.607  55.408 -60.454  1.00  0.00     0.037 A 
HETATM   17  C   UNL     1     -44.526  54.672 -59.968  1.00  0.00     0.003 A 
HETATM   18  C   UNL     1     -43.642  55.253 -59.062  1.00  0.00     0.010 A 
BRANCH  15  19
HETATM   19  O   UNL     1     -46.901  57.337 -60.600  1.00  0.00    -0.356 OA
HETATM   20  C   UNL     1     -47.734  56.533 -61.426  1.00  0.00     0.210 C 
ENDBRANCH  15  19
ENDBRANCH  12  13
BRANCH  12  21
HETATM   21  O   UNL     1     -41.698  57.627 -58.383  1.00  0.00    -0.389 OA
HETATM   22  H   UNL     1     -41.651  57.063 -59.176  1.00  0.00     0.210 HD
ENDBRANCH  12  21
ENDBRANCH  11  12
ENDBRANCH   8  11
ENDBRANCH   1   7
BRANCH   2  23
HETATM   23  C   UNL     1     -43.010  56.154 -52.793  1.00  0.00     0.110 A 
HETATM   24  N   UNL     1     -42.915  55.326 -53.816  1.00  0.00    -0.233 NA
HETATM   25  C   UNL     1     -42.007  54.364 -53.438  1.00  0.00     0.087 A 
HETATM   26  C   UNL     1     -41.531  54.609 -52.158  1.00  0.00     0.062 A 
HETATM   27  C   UNL     1     -41.545  53.241 -54.139  1.00  0.00     0.057 A 
HETATM   28  N   UNL     1     -42.184  55.748 -51.773  1.00  0.00    -0.342 N 
HETATM   29  C   UNL     1     -40.610  53.789 -51.502  1.00  0.00     0.034 A 
HETATM   30  H   UNL     1     -42.178  56.152 -50.846  1.00  0.00     0.167 HD
HETATM   31  C   UNL     1     -40.157  52.674 -52.214  1.00  0.00     0.026 A 
HETATM   32  C   UNL     1     -40.618  52.408 -53.506  1.00  0.00     0.036 A 
HETATM   33 CL   UNL     1     -40.033  51.015 -54.337  1.00  0.00    -0.084 Cl
ENDBRANCH   2  23
TORSDOF 7
ENDMDL
MODEL 4
REMARK VINA RESULT:      -8.3      3.083      7.650
REMARK  7 active torsions:
REMARK  status: ('A' for Active; 'I' for Inactive)
REMARK    1  A    between atoms: O_2  and  C_3 
REMARK    2  A    between atoms: C_5  and  C_6 
REMARK    3  A    between atoms: C_6  and  O_7 
REMARK    4  A    between atoms: C_6  and  C_8 
REMARK    5  A    between atoms: C_8  and  N_9 
REMARK       I    between atoms: N_9  and  C_10 
REMARK    6  A    between atoms: C_10  and  C_11 
REMARK    7  A    between atoms: C_12  and  C_13 
ROOT
HETATM    1  C   UNL     1     -42.893  57.721 -57.291  1.00  0.00     0.089 C 
HETATM    2  C   UNL     1     -43.662  58.381 -56.105  1.00  0.00     0.068 C 
HETATM    3  C   UNL     1     -44.218  59.783 -56.442  1.00  0.00     0.013 C 
HETATM    4  C   UNL     1     -44.968  59.836 -57.761  1.00  0.00     0.001 C 
HETATM    5  C   UNL     1     -44.068  59.361 -58.886  1.00  0.00     0.001 C 
HETATM    6  C   UNL     1     -43.621  57.929 -58.636  1.00  0.00     0.015 C 
ENDROOT
BRANCH   1   7
HETATM    7  C   UNL     1     -42.633  56.220 -56.992  1.00  0.00     0.222 C 
HETATM    8  N   UNL     1     -41.663  55.899 -56.074  1.00  0.00    -0.358 N 
HETATM    9  H   UNL     1     -41.224  56.625 -55.529  1.00  0.00     0.162 HD
HETATM   10  O   UNL     1     -43.281  55.327 -57.538  1.00  0.00    -0.273 OA
BRANCH   8  11
HETATM   11  C   UNL     1     -41.448  54.536 -55.602  1.00  0.00     0.159 C 
BRANCH  11  12
HETATM   12  C   UNL     1     -42.150  54.112 -54.291  1.00  0.00     0.169 C 
BRANCH  12  13
HETATM   13  C   UNL     1     -41.268  53.327 -53.340  1.00  0.00    -0.025 A 
HETATM   14  C   UNL     1     -41.287  53.586 -51.957  1.00  0.00     0.046 A 
HETATM   15  C   UNL     1     -40.493  52.845 -51.082  1.00  0.00     0.068 A 
HETATM   16  C   UNL     1     -39.660  51.847 -51.592  1.00  0.00     0.037 A 
HETATM   17  C   UNL     1     -39.627  51.581 -52.961  1.00  0.00     0.003 A 
HETATM   18  C   UNL     1     -40.430  52.316 -53.830  1.00  0.00     0.010 A 
BRANCH  15  19
HETATM   19  O   UNL     1     -40.438  52.996 -49.723  1.00  0.00    -0.356 OA
HETATM   20  C   UNL     1     -39.783  54.159 -49.233  1.00  0.00     0.210 C 
ENDBRANCH  15  19
ENDBRANCH  12  13
BRANCH  12  21
HETATM   21  O   UNL     1     -42.606  55.294 -53.617  1.00  0.00    -0.389 OA
HETATM   22  H   UNL     1     -42.327  55.205 -52.688  1.00  0.00     0.210 HD
ENDBRANCH  12  21
ENDBRANCH  11  12
ENDBRANCH   8  11
ENDBRANCH   1   7
BRANCH   2  23
HETATM   23  C   UNL     1     -42.823  58.505 -54.850  1.00  0.00     0.110 A 
HETATM   24  N   UNL     1     -41.541  58.806 -54.770  1.00  0.00    -0.233 NA
HETATM   25  C   UNL     1     -41.244  58.834 -53.427  1.00  0.00     0.087 A 
HETATM   26  C   UNL     1     -42.369  58.549 -52.666  1.00  0.00     0.062 A 
HETATM   27  C   UNL     1     -40.026  59.088 -52.783  1.00  0.00     0.057 A 
HETATM   28  N   UNL     1     -43.355  58.344 -53.593  1.00  0.00    -0.342 N 
HETATM   29  C   UNL     1     -42.366  58.488 -51.270  1.00  0.00     0.034 A 
HETATM   30  H   UNL     1     -44.284  57.992 -53.405  1.00  0.00     0.167 HD
HETATM   31  C   UNL     1     -41.145  58.745 -50.642  1.00  0.00     0.026 A 
HETATM   32  C   UNL     1     -39.999  59.039 -51.386  1.00  0.00     0.036 A 
HETATM   33 CL   UNL     1     -38.516  59.341 -50.561  1.00  0.00    -0.084 Cl
ENDBRANCH   2  23
TORSDOF 7
ENDMDL
MODEL 5
REMARK VINA RESULT:      -8.3      2.001      3.074
REMARK  7 active torsions:
REMARK  status: ('A' for Active; 'I' for Inactive)
REMARK    1  A    between atoms: O_2  and  C_3 
REMARK    2  A    between atoms: C_5  and  C_6 
REMARK    3  A    between atoms: C_6  and  O_7 
REMARK    4  A    between atoms: C_6  and  C_8 
REMARK    5  A    between atoms: C_8  and  N_9 
REMARK       I    between atoms: N_9  and  C_10 
REMARK    6  A    between atoms: C_10  and  C_11 
REMARK    7  A    between atoms: C_12  and  C_13 
ROOT
HETATM    1  C   UNL     1     -41.804  57.472 -54.349  1.00  0.00     0.089 C 
HETATM    2  C   UNL     1     -41.965  56.715 -52.995  1.00  0.00     0.068 C 
HETATM    3  C   UNL     1     -41.317  57.452 -51.801  1.00  0.00     0.013 C 
HETATM    4  C   UNL     1     -41.686  58.923 -51.725  1.00  0.00     0.001 C 
HETATM    5  C   UNL     1     -41.307  59.617 -53.019  1.00  0.00     0.001 C 
HETATM    6  C   UNL     1     -42.045  58.989 -54.191  1.00  0.00     0.015 C 
ENDROOT
BRANCH   1   7
HETATM    7  C   UNL     1     -42.724  56.843 -55.429  1.00  0.00     0.222 C 
HETATM    8  N   UNL     1     -42.156  56.440 -56.612  1.00  0.00    -0.358 N 
HETATM    9  H   UNL     1     -41.153  56.447 -56.719  1.00  0.00     0.162 HD
HETATM   10  O   UNL     1     -43.930  56.681 -55.241  1.00  0.00    -0.273 OA
BRANCH   8  11
HETATM   11  C   UNL     1     -42.894  55.694 -57.625  1.00  0.00     0.159 C 
BRANCH  11  12
HETATM   12  C   UNL     1     -43.133  56.382 -58.990  1.00  0.00     0.169 C 
BRANCH  12  13
HETATM   13  C   UNL     1     -43.276  57.889 -58.910  1.00  0.00    -0.025 A 
HETATM   14  C   UNL     1     -42.228  58.736 -59.316  1.00  0.00     0.046 A 
HETATM   15  C   UNL     1     -42.373  60.123 -59.264  1.00  0.00     0.068 A 
HETATM   16  C   UNL     1     -43.567  60.669 -58.789  1.00  0.00     0.037 A 
HETATM   17  C   UNL     1     -44.614  59.842 -58.380  1.00  0.00     0.003 A 
HETATM   18  C   UNL     1     -44.469  58.458 -58.444  1.00  0.00     0.010 A 
BRANCH  15  19
HETATM   19  O   UNL     1     -41.434  61.043 -59.643  1.00  0.00    -0.356 OA
HETATM   20  C   UNL     1     -40.834  61.810 -58.606  1.00  0.00     0.210 C 
ENDBRANCH  15  19
ENDBRANCH  12  13
BRANCH  12  21
HETATM   21  O   UNL     1     -42.029  56.075 -59.853  1.00  0.00    -0.389 OA
HETATM   22  H   UNL     1     -41.593  56.923 -60.053  1.00  0.00     0.210 HD
ENDBRANCH  12  21
ENDBRANCH  11  12
ENDBRANCH   8  11
ENDBRANCH   1   7
BRANCH   2  23
HETATM   23  C   UNL     1     -41.402  55.309 -53.032  1.00  0.00     0.110 A 
HETATM   24  N   UNL     1     -41.284  54.520 -54.083  1.00  0.00    -0.233 NA
HETATM   25  C   UNL     1     -40.688  53.368 -53.623  1.00  0.00     0.087 A 
HETATM   26  C   UNL     1     -40.430  53.453 -52.262  1.00  0.00     0.062 A 
HETATM   27  C   UNL     1     -40.344  52.199 -54.316  1.00  0.00     0.057 A 
HETATM   28  N   UNL     1     -40.893  54.693 -51.913  1.00  0.00    -0.342 N 
HETATM   29  C   UNL     1     -39.847  52.426 -51.517  1.00  0.00     0.034 A 
HETATM   30  H   UNL     1     -40.984  55.050 -50.972  1.00  0.00     0.167 HD
HETATM   31  C   UNL     1     -39.507  51.267 -52.221  1.00  0.00     0.026 A 
HETATM   32  C   UNL     1     -39.753  51.158 -53.593  1.00  0.00     0.036 A 
HETATM   33 CL   UNL     1     -39.322  49.704 -54.412  1.00  0.00    -0.084 Cl
ENDBRANCH   2  23
TORSDOF 7
ENDMDL
MODEL 6
REMARK VINA RESULT:      -8.1      3.320      7.883
REMARK  7 active torsions:
REMARK  status: ('A' for Active; 'I' for Inactive)
REMARK    1  A    between atoms: O_2  and  C_3 
REMARK    2  A    between atoms: C_5  and  C_6 
REMARK    3  A    between atoms: C_6  and  O_7 
REMARK    4  A    between atoms: C_6  and  C_8 
REMARK    5  A    between atoms: C_8  and  N_9 
REMARK       I    between atoms: N_9  and  C_10 
REMARK    6  A    between atoms: C_10  and  C_11 
REMARK    7  A    between atoms: C_12  and  C_13 
ROOT
HETATM    1  C   UNL     1     -42.481  57.426 -58.262  1.00  0.00     0.089 C 
HETATM    2  C   UNL     1     -43.379  58.547 -57.654  1.00  0.00     0.068 C 
HETATM    3  C   UNL     1     -43.259  59.897 -58.397  1.00  0.00     0.013 C 
HETATM    4  C   UNL     1     -43.377  59.771 -59.906  1.00  0.00     0.001 C 
HETATM    5  C   UNL     1     -42.327  58.807 -60.426  1.00  0.00     0.001 C 
HETATM    6  C   UNL     1     -42.518  57.432 -59.805  1.00  0.00     0.015 C 
ENDROOT
BRANCH   1   7
HETATM    7  C   UNL     1     -42.874  56.045 -57.672  1.00  0.00     0.222 C 
HETATM    8  N   UNL     1     -42.443  55.733 -56.406  1.00  0.00    -0.358 N 
HETATM    9  H   UNL     1     -41.990  56.434 -55.839  1.00  0.00     0.162 HD
HETATM   10  O   UNL     1     -43.568  55.245 -58.298  1.00  0.00    -0.273 OA
BRANCH   8  11
HETATM   11  C   UNL     1     -42.886  54.538 -55.697  1.00  0.00     0.159 C 
BRANCH  11  12
HETATM   12  C   UNL     1     -43.702  54.735 -54.398  1.00  0.00     0.169 C 
BRANCH  12  13
HETATM   13  C   UNL     1     -42.857  54.892 -53.150  1.00  0.00    -0.025 A 
HETATM   14  C   UNL     1     -41.797  54.008 -52.879  1.00  0.00     0.046 A 
HETATM   15  C   UNL     1     -41.006  54.170 -51.741  1.00  0.00     0.068 A 
HETATM   16  C   UNL     1     -41.284  55.217 -50.858  1.00  0.00     0.037 A 
HETATM   17  C   UNL     1     -42.333  56.100 -51.112  1.00  0.00     0.003 A 
HETATM   18  C   UNL     1     -43.113  55.940 -52.254  1.00  0.00     0.010 A 
BRANCH  15  19
HETATM   19  O   UNL     1     -39.945  53.386 -51.381  1.00  0.00    -0.356 OA
HETATM   20  C   UNL     1     -40.241  52.208 -50.640  1.00  0.00     0.210 C 
ENDBRANCH  15  19
ENDBRANCH  12  13
BRANCH  12  21
HETATM   21  O   UNL     1     -44.515  55.909 -54.547  1.00  0.00    -0.389 OA
HETATM   22  H   UNL     1     -44.394  56.431 -53.734  1.00  0.00     0.210 HD
ENDBRANCH  12  21
ENDBRANCH  11  12
ENDBRANCH   8  11
ENDBRANCH   1   7
BRANCH   2  23
HETATM   23  C   UNL     1     -43.101  58.800 -56.187  1.00  0.00     0.110 A 
HETATM   24  N   UNL     1     -41.923  58.881 -55.598  1.00  0.00    -0.233 NA
HETATM   25  C   UNL     1     -42.183  59.157 -54.275  1.00  0.00     0.087 A 
HETATM   26  C   UNL     1     -43.549  59.251 -54.048  1.00  0.00     0.062 A 
HETATM   27  C   UNL     1     -41.295  59.331 -53.204  1.00  0.00     0.057 A 
HETATM   28  N   UNL     1     -44.106  59.021 -55.276  1.00  0.00    -0.342 N 
HETATM   29  C   UNL     1     -44.112  59.505 -52.795  1.00  0.00     0.034 A 
HETATM   30  H   UNL     1     -45.090  58.888 -55.467  1.00  0.00     0.167 HD
HETATM   31  C   UNL     1     -43.215  59.678 -51.737  1.00  0.00     0.026 A 
HETATM   32  C   UNL     1     -41.835  59.592 -51.940  1.00  0.00     0.036 A 
HETATM   33 CL   UNL     1     -40.772  59.806 -50.600  1.00  0.00    -0.084 Cl
ENDBRANCH   2  23
TORSDOF 7
ENDMDL
MODEL 7
REMARK VINA RESULT:      -8.1      1.478      2.077
REMARK  7 active torsions:
REMARK  status: ('A' for Active; 'I' for Inactive)
REMARK    1  A    between atoms: O_2  and  C_3 
REMARK    2  A    between atoms: C_5  and  C_6 
REMARK    3  A    between atoms: C_6  and  O_7 
REMARK    4  A    between atoms: C_6  and  C_8 
REMARK    5  A    between atoms: C_8  and  N_9 
REMARK       I    between atoms: N_9  and  C_10 
REMARK    6  A    between atoms: C_10  and  C_11 
REMARK    7  A    between atoms: C_12  and  C_13 
ROOT
HETATM    1  C   UNL     1     -41.431  57.673 -53.107  1.00  0.00     0.089 C 
HETATM    2  C   UNL     1     -41.610  56.690 -51.909  1.00  0.00     0.068 C 
HETATM    3  C   UNL     1     -40.862  57.138 -50.633  1.00  0.00     0.013 C 
HETATM    4  C   UNL     1     -41.102  58.593 -50.269  1.00  0.00     0.001 C 
HETATM    5  C   UNL     1     -40.709  59.486 -51.431  1.00  0.00     0.001 C 
HETATM    6  C   UNL     1     -41.537  59.147 -52.661  1.00  0.00     0.015 C 
ENDROOT
BRANCH   1   7
HETATM    7  C   UNL     1     -42.436  57.329 -54.237  1.00  0.00     0.222 C 
HETATM    8  N   UNL     1     -43.777  57.476 -53.982  1.00  0.00    -0.358 N 
HETATM    9  H   UNL     1     -44.083  57.910 -53.123  1.00  0.00     0.162 HD
HETATM   10  O   UNL     1     -42.062  56.952 -55.347  1.00  0.00    -0.273 OA
BRANCH   8  11
HETATM   11  C   UNL     1     -44.796  57.336 -55.016  1.00  0.00     0.159 C 
BRANCH  11  12
HETATM   12  C   UNL     1     -44.951  58.493 -56.031  1.00  0.00     0.169 C 
BRANCH  12  13
HETATM   13  C   UNL     1     -45.131  58.041 -57.466  1.00  0.00    -0.025 A 
HETATM   14  C   UNL     1     -44.023  57.679 -58.254  1.00  0.00     0.046 A 
HETATM   15  C   UNL     1     -44.194  57.240 -59.567  1.00  0.00     0.068 A 
HETATM   16  C   UNL     1     -45.482  57.176 -60.104  1.00  0.00     0.037 A 
HETATM   17  C   UNL     1     -46.590  57.536 -59.338  1.00  0.00     0.003 A 
HETATM   18  C   UNL     1     -46.415  57.963 -58.024  1.00  0.00     0.010 A 
BRANCH  15  19
HETATM   19  O   UNL     1     -43.199  56.849 -60.420  1.00  0.00    -0.356 OA
HETATM   20  C   UNL     1     -41.960  57.540 -60.319  1.00  0.00     0.210 C 
ENDBRANCH  15  19
ENDBRANCH  12  13
BRANCH  12  21
HETATM   21  O   UNL     1     -46.093  59.277 -55.655  1.00  0.00    -0.389 OA
HETATM   22  H   UNL     1     -45.774  59.937 -55.014  1.00  0.00     0.210 HD
ENDBRANCH  12  21
ENDBRANCH  11  12
ENDBRANCH   8  11
ENDBRANCH   1   7
BRANCH   2  23
HETATM   23  C   UNL     1     -41.169  55.277 -52.231  1.00  0.00     0.110 A 
HETATM   24  N   UNL     1     -41.181  54.682 -53.408  1.00  0.00    -0.233 NA
HETATM   25  C   UNL     1     -40.656  53.427 -53.201  1.00  0.00     0.087 A 
HETATM   26  C   UNL     1     -40.310  53.249 -51.869  1.00  0.00     0.062 A 
HETATM   27  C   UNL     1     -40.454  52.379 -54.110  1.00  0.00     0.057 A 
HETATM   28  N   UNL     1     -40.646  54.436 -51.277  1.00  0.00    -0.342 N 
HETATM   29  C   UNL     1     -39.771  52.066 -51.360  1.00  0.00     0.034 A 
HETATM   30  H   UNL     1     -40.650  54.624 -50.284  1.00  0.00     0.167 HD
HETATM   31  C   UNL     1     -39.572  51.030 -52.277  1.00  0.00     0.026 A 
HETATM   32  C   UNL     1     -39.909  51.186 -53.625  1.00  0.00     0.036 A 
HETATM   33 CL   UNL     1     -39.651  49.875 -54.713  1.00  0.00    -0.084 Cl
ENDBRANCH   2  23
TORSDOF 7
ENDMDL
MODEL 8
REMARK VINA RESULT:      -8.1      4.438      9.546
REMARK  7 active torsions:
REMARK  status: ('A' for Active; 'I' for Inactive)
REMARK    1  A    between atoms: O_2  and  C_3 
REMARK    2  A    between atoms: C_5  and  C_6 
REMARK    3  A    between atoms: C_6  and  O_7 
REMARK    4  A    between atoms: C_6  and  C_8 
REMARK    5  A    between atoms: C_8  and  N_9 
REMARK       I    between atoms: N_9  and  C_10 
REMARK    6  A    between atoms: C_10  and  C_11 
REMARK    7  A    between atoms: C_12  and  C_13 
ROOT
HETATM    1  C   UNL     1     -43.985  56.882 -59.364  1.00  0.00     0.089 C 
HETATM    2  C   UNL     1     -44.537  58.340 -59.350  1.00  0.00     0.068 C 
HETATM    3  C   UNL     1     -45.658  58.579 -60.387  1.00  0.00     0.013 C 
HETATM    4  C   UNL     1     -46.742  57.515 -60.363  1.00  0.00     0.001 C 
HETATM    5  C   UNL     1     -46.125  56.147 -60.585  1.00  0.00     0.001 C 
HETATM    6  C   UNL     1     -45.116  55.839 -59.490  1.00  0.00     0.015 C 
ENDROOT
BRANCH   1   7
HETATM    7  C   UNL     1     -43.096  56.634 -58.116  1.00  0.00     0.222 C 
HETATM    8  N   UNL     1     -43.442  55.615 -57.263  1.00  0.00    -0.358 N 
HETATM    9  H   UNL     1     -44.183  54.977 -57.514  1.00  0.00     0.162 HD
HETATM   10  O   UNL     1     -42.092  57.308 -57.889  1.00  0.00    -0.273 OA
BRANCH   8  11
HETATM   11  C   UNL     1     -42.594  55.193 -56.155  1.00  0.00     0.159 C 
BRANCH  11  12
HETATM   12  C   UNL     1     -43.151  54.118 -55.193  1.00  0.00     0.169 C 
BRANCH  12  13
HETATM   13  C   UNL     1     -42.163  53.651 -54.143  1.00  0.00    -0.025 A 
HETATM   14  C   UNL     1     -41.200  52.670 -54.443  1.00  0.00     0.046 A 
HETATM   15  C   UNL     1     -40.276  52.260 -53.481  1.00  0.00     0.068 A 
HETATM   16  C   UNL     1     -40.324  52.823 -52.203  1.00  0.00     0.037 A 
HETATM   17  C   UNL     1     -41.276  53.793 -51.889  1.00  0.00     0.003 A 
HETATM   18  C   UNL     1     -42.189  54.207 -52.857  1.00  0.00     0.010 A 
BRANCH  15  19
HETATM   19  O   UNL     1     -39.289  51.331 -53.660  1.00  0.00    -0.356 OA
HETATM   20  C   UNL     1     -39.673  50.093 -54.247  1.00  0.00     0.210 C 
ENDBRANCH  15  19
ENDBRANCH  12  13
BRANCH  12  21
HETATM   21  O   UNL     1     -44.301  54.658 -54.526  1.00  0.00    -0.389 OA
HETATM   22  H   UNL     1     -44.726  53.913 -54.065  1.00  0.00     0.210 HD
ENDBRANCH  12  21
ENDBRANCH  11  12
ENDBRANCH   8  11
ENDBRANCH   1   7
BRANCH   2  23
HETATM   23  C   UNL     1     -43.464  59.384 -59.582  1.00  0.00     0.110 A 
HETATM   24  N   UNL     1     -43.030  59.844 -60.740  1.00  0.00    -0.233 NA
HETATM   25  C   UNL     1     -42.084  60.795 -60.436  1.00  0.00     0.087 A 
HETATM   26  C   UNL     1     -41.937  60.926 -59.062  1.00  0.00     0.062 A 
HETATM   27  C   UNL     1     -41.301  61.585 -61.289  1.00  0.00     0.057 A 
HETATM   28  N   UNL     1     -42.823  60.020 -58.546  1.00  0.00    -0.342 N 
HETATM   29  C   UNL     1     -41.034  61.804 -58.459  1.00  0.00     0.034 A 
HETATM   30  H   UNL     1     -42.898  59.751 -57.574  1.00  0.00     0.167 HD
HETATM   31  C   UNL     1     -40.261  62.587 -59.321  1.00  0.00     0.026 A 
HETATM   32  C   UNL     1     -40.393  62.477 -60.709  1.00  0.00     0.036 A 
HETATM   33 CL   UNL     1     -39.410  63.460 -61.728  1.00  0.00    -0.084 Cl
ENDBRANCH   2  23
TORSDOF 7
ENDMDL
MODEL 9
REMARK VINA RESULT:      -8.0      3.428      7.592
REMARK  7 active torsions:
REMARK  status: ('A' for Active; 'I' for Inactive)
REMARK    1  A    between atoms: O_2  and  C_3 
REMARK    2  A    between atoms: C_5  and  C_6 
REMARK    3  A    between atoms: C_6  and  O_7 
REMARK    4  A    between atoms: C_6  and  C_8 
REMARK    5  A    between atoms: C_8  and  N_9 
REMARK       I    between atoms: N_9  and  C_10 
REMARK    6  A    between atoms: C_10  and  C_11 
REMARK    7  A    between atoms: C_12  and  C_13 
ROOT
HETATM    1  C   UNL     1     -45.021  58.748 -52.517  1.00  0.00     0.089 C 
HETATM    2  C   UNL     1     -44.256  59.776 -53.406  1.00  0.00     0.068 C 
HETATM    3  C   UNL     1     -45.083  61.041 -53.727  1.00  0.00     0.013 C 
HETATM    4  C   UNL     1     -45.741  61.661 -52.507  1.00  0.00     0.001 C 
HETATM    5  C   UNL     1     -46.624  60.635 -51.821  1.00  0.00     0.001 C 
HETATM    6  C   UNL     1     -45.796  59.440 -51.375  1.00  0.00     0.015 C 
ENDROOT
BRANCH   1   7
HETATM    7  C   UNL     1     -44.044  57.664 -51.988  1.00  0.00     0.222 C 
HETATM    8  N   UNL     1     -44.113  56.405 -52.533  1.00  0.00    -0.358 N 
HETATM    9  H   UNL     1     -44.701  56.234 -53.335  1.00  0.00     0.162 HD
HETATM   10  O   UNL     1     -43.209  57.910 -51.119  1.00  0.00    -0.273 OA
BRANCH   8  11
HETATM   11  C   UNL     1     -43.142  55.361 -52.227  1.00  0.00     0.159 C 
BRANCH  11  12
HETATM   12  C   UNL     1     -41.786  55.402 -52.970  1.00  0.00     0.169 C 
BRANCH  12  13
HETATM   13  C   UNL     1     -41.072  54.067 -53.034  1.00  0.00    -0.025 A 
HETATM   14  C   UNL     1     -40.767  53.353 -51.861  1.00  0.00     0.046 A 
HETATM   15  C   UNL     1     -40.131  52.113 -51.927  1.00  0.00     0.068 A 
HETATM   16  C   UNL     1     -39.783  51.587 -53.173  1.00  0.00     0.037 A 
HETATM   17  C   UNL     1     -40.075  52.285 -54.345  1.00  0.00     0.003 A 
HETATM   18  C   UNL     1     -40.719  53.518 -54.275  1.00  0.00     0.010 A 
BRANCH  15  19
HETATM   19  O   UNL     1     -39.799  51.323 -50.861  1.00  0.00    -0.356 OA
HETATM   20  C   UNL     1     -39.443  49.976 -51.147  1.00  0.00     0.210 C 
ENDBRANCH  15  19
ENDBRANCH  12  13
BRANCH  12  21
HETATM   21  O   UNL     1     -42.016  55.860 -54.310  1.00  0.00    -0.389 OA
HETATM   22  H   UNL     1     -41.276  56.455 -54.527  1.00  0.00     0.210 HD
ENDBRANCH  12  21
ENDBRANCH  11  12
ENDBRANCH   8  11
ENDBRANCH   1   7
BRANCH   2  23
HETATM   23  C   UNL     1     -43.782  59.187 -54.719  1.00  0.00     0.110 A 
HETATM   24  N   UNL     1     -44.137  58.035 -55.255  1.00  0.00    -0.233 NA
HETATM   25  C   UNL     1     -43.473  57.959 -56.458  1.00  0.00     0.087 A 
HETATM   26  C   UNL     1     -42.698  59.091 -56.668  1.00  0.00     0.062 A 
HETATM   27  C   UNL     1     -43.479  56.943 -57.423  1.00  0.00     0.057 A 
HETATM   28  N   UNL     1     -42.913  59.852 -55.551  1.00  0.00    -0.342 N 
HETATM   29  C   UNL     1     -41.899  59.286 -57.796  1.00  0.00     0.034 A 
HETATM   30  H   UNL     1     -42.412  60.694 -55.300  1.00  0.00     0.167 HD
HETATM   31  C   UNL     1     -41.916  58.265 -58.751  1.00  0.00     0.026 A 
HETATM   32  C   UNL     1     -42.691  57.117 -58.565  1.00  0.00     0.036 A 
HETATM   33 CL   UNL     1     -42.671  55.885 -59.770  1.00  0.00    -0.084 Cl
ENDBRANCH   2  23
TORSDOF 7
ENDMDL
MODEL 10
REMARK VINA RESULT:      -8.0      3.230      5.387
REMARK  7 active torsions:
REMARK  status: ('A' for Active; 'I' for Inactive)
REMARK    1  A    between atoms: O_2  and  C_3 
REMARK    2  A    between atoms: C_5  and  C_6 
REMARK    3  A    between atoms: C_6  and  O_7 
REMARK    4  A    between atoms: C_6  and  C_8 
REMARK    5  A    between atoms: C_8  and  N_9 
REMARK       I    between atoms: N_9  and  C_10 
REMARK    6  A    between atoms: C_10  and  C_11 
REMARK    7  A    between atoms: C_12  and  C_13 
ROOT
HETATM    1  C   UNL     1     -41.384  54.266 -52.186  1.00  0.00     0.089 C 
HETATM    2  C   UNL     1     -40.899  55.529 -51.410  1.00  0.00     0.068 C 
HETATM    3  C   UNL     1     -40.632  55.262 -49.912  1.00  0.00     0.013 C 
HETATM    4  C   UNL     1     -39.784  54.028 -49.659  1.00  0.00     0.001 C 
HETATM    5  C   UNL     1     -40.442  52.813 -50.284  1.00  0.00     0.001 C 
HETATM    6  C   UNL     1     -40.588  53.005 -51.785  1.00  0.00     0.015 C 
ENDROOT
BRANCH   1   7
HETATM    7  C   UNL     1     -41.339  54.526 -53.715  1.00  0.00     0.222 C 
HETATM    8  N   UNL     1     -42.528  54.670 -54.385  1.00  0.00    -0.358 N 
HETATM    9  H   UNL     1     -43.395  54.725 -53.870  1.00  0.00     0.162 HD
HETATM   10  O   UNL     1     -40.275  54.623 -54.327  1.00  0.00    -0.273 OA
BRANCH   8  11
HETATM   11  C   UNL     1     -42.600  55.074 -55.785  1.00  0.00     0.159 C 
BRANCH  11  12
HETATM   12  C   UNL     1     -42.375  56.569 -56.112  1.00  0.00     0.169 C 
BRANCH  12  13
HETATM   13  C   UNL     1     -42.617  56.930 -57.564  1.00  0.00    -0.025 A 
HETATM   14  C   UNL     1     -43.161  55.994 -58.461  1.00  0.00     0.046 A 
HETATM   15  C   UNL     1     -43.405  56.338 -59.791  1.00  0.00     0.068 A 
HETATM   16  C   UNL     1     -43.089  57.625 -60.233  1.00  0.00     0.037 A 
HETATM   17  C   UNL     1     -42.545  58.564 -59.357  1.00  0.00     0.003 A 
HETATM   18  C   UNL     1     -42.314  58.218 -58.028  1.00  0.00     0.010 A 
BRANCH  15  19
HETATM   19  O   UNL     1     -43.941  55.521 -60.747  1.00  0.00    -0.356 OA
HETATM   20  C   UNL     1     -45.361  55.448 -60.805  1.00  0.00     0.210 C 
ENDBRANCH  15  19
ENDBRANCH  12  13
BRANCH  12  21
HETATM   21  O   UNL     1     -43.259  57.351 -55.296  1.00  0.00    -0.389 OA
HETATM   22  H   UNL     1     -43.115  57.058 -54.378  1.00  0.00     0.210 HD
ENDBRANCH  12  21
ENDBRANCH  11  12
ENDBRANCH   8  11
ENDBRANCH   1   7
BRANCH   2  23
HETATM   23  C   UNL     1     -41.867  56.691 -51.507  1.00  0.00     0.110 A 
HETATM   24  N   UNL     1     -43.104  56.668 -51.963  1.00  0.00    -0.233 NA
HETATM   25  C   UNL     1     -43.584  57.949 -51.816  1.00  0.00     0.087 A 
HETATM   26  C   UNL     1     -42.622  58.776 -51.253  1.00  0.00     0.062 A 
HETATM   27  C   UNL     1     -44.836  58.482 -52.153  1.00  0.00     0.057 A 
HETATM   28  N   UNL     1     -41.544  57.954 -51.068  1.00  0.00    -0.342 N 
HETATM   29  C   UNL     1     -42.818  60.136 -51.002  1.00  0.00     0.034 A 
HETATM   30  H   UNL     1     -40.616  58.244 -50.791  1.00  0.00     0.167 HD
HETATM   31  C   UNL     1     -44.072  60.653 -51.341  1.00  0.00     0.026 A 
HETATM   32  C   UNL     1     -45.059  59.840 -51.905  1.00  0.00     0.036 A 
HETATM   33 CL   UNL     1     -46.586  60.529 -52.311  1.00  0.00    -0.084 Cl
ENDBRANCH   2  23
TORSDOF 7
ENDMDL
