MODEL 1
REMARK VINA RESULT:      -8.3      0.000      0.000
REMARK  8 active torsions:
REMARK  status: ('A' for Active; 'I' for Inactive)
REMARK    1  A    between atoms: O_2  and  C_3 
REMARK    2  A    between atoms: C_3  and  C_4 
REMARK    3  A    between atoms: C_4  and  N_5 
REMARK       I    between atoms: N_5  and  C_6 
REMARK    4  A    between atoms: C_6  and  C_7 
REMARK    5  A    between atoms: C_7  and  N_8 
REMARK       I    between atoms: N_14  and  C_15 
REMARK    6  A    between atoms: C_15  and  C_16 
REMARK    7  A    between atoms: C_19  and  C_20 
REMARK    8  A    between atoms: N_31  and  C_32 
ROOT
HETATM    1  N   UNL     1     -42.154  60.413 -59.594  1.00  0.00    -0.325 N 
HETATM    2  C   UNL     1     -42.225  60.153 -58.249  1.00  0.00     0.250 A 
HETATM    3  O   UNL     1     -41.564  60.717 -57.390  1.00  0.00    -0.270 OA
HETATM    4  C   UNL     1     -43.231  59.000 -58.040  1.00  0.00     0.118 A 
HETATM    5  C   UNL     1     -44.328  59.485 -57.076  1.00  0.00     0.061 C 
HETATM    6  C   UNL     1     -43.871  59.476 -55.617  1.00  0.00     0.129 C 
HETATM    7  N   UNL     1     -43.220  58.215 -55.281  1.00  0.00    -0.348 N 
HETATM    8  C   UNL     1     -43.912  57.283 -54.503  1.00  0.00     0.253 C 
HETATM    9  O   UNL     1     -45.067  57.441 -54.116  1.00  0.00    -0.267 OA
HETATM   10  C   UNL     1     -42.032  57.922 -56.080  1.00  0.00     0.129 C 
HETATM   11  C   UNL     1     -42.408  57.793 -57.552  1.00  0.00     0.061 C 
HETATM   12  N   UNL     1     -43.746  58.782 -59.426  1.00  0.00    -0.346 N 
HETATM   13  C   UNL     1     -43.069  59.649 -60.379  1.00  0.00     0.254 A 
ENDROOT
BRANCH  12  14
HETATM   14  C   UNL     1     -44.632  57.817 -59.873  1.00  0.00     0.032 A 
HETATM   15  C   UNL     1     -44.226  56.584 -60.406  1.00  0.00     0.029 A 
HETATM   16  C   UNL     1     -45.137  55.622 -60.868  1.00  0.00     0.002 A 
HETATM   17  C   UNL     1     -46.501  55.862 -60.808  1.00  0.00     0.000 A 
HETATM   18  C   UNL     1     -46.949  57.062 -60.276  1.00  0.00     0.002 A 
HETATM   19  C   UNL     1     -46.028  58.013 -59.816  1.00  0.00     0.029 A 
ENDBRANCH  12  14
BRANCH   1  20
HETATM   20  C   UNL     1     -41.286  61.411 -60.201  1.00  0.00     0.230 C 
BRANCH  20  21
HETATM   21  C   UNL     1     -41.858  62.833 -60.167  1.00  0.00     0.235 C 
HETATM   22  N   UNL     1     -41.766  63.481 -58.954  1.00  0.00    -0.358 N 
HETATM   23  H   UNL     1     -41.607  62.907 -58.132  1.00  0.00     0.162 HD
HETATM   24  O   UNL     1     -42.434  63.317 -61.139  1.00  0.00    -0.272 OA
BRANCH  22  25
HETATM   25  C   UNL     1     -42.418  64.760 -58.736  1.00  0.00     0.148 C 
BRANCH  25  26
HETATM   26  C   UNL     1     -43.636  64.632 -57.825  1.00  0.00     0.186 C 
BRANCH  26  27
HETATM   27  O   UNL     1     -43.695  63.299 -57.305  1.00  0.00    -0.394 OA
HETATM   28  C   UNL     1     -43.678  63.297 -55.882  1.00  0.00     0.201 C 
ENDBRANCH  26  27
ENDBRANCH  25  26
ENDBRANCH  22  25
ENDBRANCH  20  21
ENDBRANCH   1  20
BRANCH   8  29
HETATM   29  C   UNL     1     -43.231  56.017 -54.149  1.00  0.00     0.032 A 
HETATM   30  C   UNL     1     -42.486  55.907 -52.973  1.00  0.00     0.018 A 
HETATM   31  C   UNL     1     -41.728  54.756 -52.740  1.00  0.00     0.013 A 
HETATM   32  C   UNL     1     -41.730  53.682 -53.650  1.00  0.00    -0.026 A 
HETATM   33  C   UNL     1     -42.575  53.781 -54.773  1.00  0.00     0.013 A 
HETATM   34  C   UNL     1     -43.318  54.937 -55.026  1.00  0.00     0.018 A 
BRANCH  32  35
HETATM   35  C   UNL     1     -40.836  52.517 -53.460  1.00  0.00    -0.026 A 
HETATM   36  C   UNL     1     -40.703  51.518 -54.439  1.00  0.00     0.012 A 
HETATM   37  C   UNL     1     -39.898  50.394 -54.227  1.00  0.00     0.001 A 
HETATM   38  C   UNL     1     -39.199  50.250 -53.032  1.00  0.00     0.000 A 
HETATM   39  C   UNL     1     -39.305  51.228 -52.049  1.00  0.00     0.001 A 
HETATM   40  C   UNL     1     -40.118  52.346 -52.260  1.00  0.00     0.012 A 
ENDBRANCH  32  35
ENDBRANCH   8  29
TORSDOF 8
ENDMDL
MODEL 2
REMARK VINA RESULT:      -8.2      3.315     10.200
REMARK  8 active torsions:
REMARK  status: ('A' for Active; 'I' for Inactive)
REMARK    1  A    between atoms: O_2  and  C_3 
REMARK    2  A    between atoms: C_3  and  C_4 
REMARK    3  A    between atoms: C_4  and  N_5 
REMARK       I    between atoms: N_5  and  C_6 
REMARK    4  A    between atoms: C_6  and  C_7 
REMARK    5  A    between atoms: C_7  and  N_8 
REMARK       I    between atoms: N_14  and  C_15 
REMARK    6  A    between atoms: C_15  and  C_16 
REMARK    7  A    between atoms: C_19  and  C_20 
REMARK    8  A    between atoms: N_31  and  C_32 
ROOT
HETATM    1  N   UNL     1     -42.876  55.230 -52.573  1.00  0.00    -0.325 N 
HETATM    2  C   UNL     1     -43.299  55.685 -53.796  1.00  0.00     0.250 A 
HETATM    3  O   UNL     1     -43.511  54.980 -54.771  1.00  0.00    -0.270 OA
HETATM    4  C   UNL     1     -43.393  57.225 -53.724  1.00  0.00     0.118 A 
HETATM    5  C   UNL     1     -44.829  57.637 -54.096  1.00  0.00     0.061 C 
HETATM    6  C   UNL     1     -45.077  57.599 -55.604  1.00  0.00     0.129 C 
HETATM    7  N   UNL     1     -44.000  58.264 -56.329  1.00  0.00    -0.348 N 
HETATM    8  C   UNL     1     -44.231  59.531 -56.871  1.00  0.00     0.253 C 
HETATM    9  O   UNL     1     -45.285  60.148 -56.738  1.00  0.00    -0.267 OA
HETATM   10  C   UNL     1     -42.680  57.671 -56.119  1.00  0.00     0.129 C 
HETATM   11  C   UNL     1     -42.289  57.769 -54.648  1.00  0.00     0.061 C 
HETATM   12  N   UNL     1     -43.079  57.488 -52.287  1.00  0.00    -0.346 N 
HETATM   13  C   UNL     1     -42.750  56.255 -51.587  1.00  0.00     0.254 A 
ENDROOT
BRANCH  12  14
HETATM   14  C   UNL     1     -42.946  58.708 -51.645  1.00  0.00     0.032 A 
HETATM   15  C   UNL     1     -41.713  59.224 -51.217  1.00  0.00     0.029 A 
HETATM   16  C   UNL     1     -41.596  60.455 -50.555  1.00  0.00     0.002 A 
HETATM   17  C   UNL     1     -42.722  61.223 -50.299  1.00  0.00     0.000 A 
HETATM   18  C   UNL     1     -43.961  60.759 -50.716  1.00  0.00     0.002 A 
HETATM   19  C   UNL     1     -44.062  59.528 -51.379  1.00  0.00     0.029 A 
ENDBRANCH  12  14
BRANCH   1  20
HETATM   20  C   UNL     1     -42.628  53.833 -52.248  1.00  0.00     0.230 C 
BRANCH  20  21
HETATM   21  C   UNL     1     -41.225  53.348 -52.631  1.00  0.00     0.235 C 
HETATM   22  N   UNL     1     -41.179  52.401 -53.631  1.00  0.00    -0.358 N 
HETATM   23  H   UNL     1     -42.035  51.895 -53.832  1.00  0.00     0.162 HD
HETATM   24  O   UNL     1     -40.227  53.724 -52.021  1.00  0.00    -0.272 OA
BRANCH  22  25
HETATM   25  C   UNL     1     -39.935  51.732 -53.972  1.00  0.00     0.148 C 
BRANCH  25  26
HETATM   26  C   UNL     1     -40.170  50.309 -54.472  1.00  0.00     0.186 C 
BRANCH  26  27
HETATM   27  O   UNL     1     -39.354  49.406 -53.719  1.00  0.00    -0.394 OA
HETATM   28  C   UNL     1     -39.615  49.512 -52.324  1.00  0.00     0.201 C 
ENDBRANCH  26  27
ENDBRANCH  25  26
ENDBRANCH  22  25
ENDBRANCH  20  21
ENDBRANCH   1  20
BRANCH   8  29
HETATM   29  C   UNL     1     -43.137  60.185 -57.624  1.00  0.00     0.032 A 
HETATM   30  C   UNL     1     -42.325  61.147 -57.020  1.00  0.00     0.018 A 
HETATM   31  C   UNL     1     -41.404  61.858 -57.793  1.00  0.00     0.013 A 
HETATM   32  C   UNL     1     -41.247  61.598 -59.169  1.00  0.00    -0.026 A 
HETATM   33  C   UNL     1     -42.006  60.549 -59.724  1.00  0.00     0.013 A 
HETATM   34  C   UNL     1     -42.945  59.847 -58.963  1.00  0.00     0.018 A 
BRANCH  32  35
HETATM   35  C   UNL     1     -40.358  62.433 -60.009  1.00  0.00    -0.026 A 
HETATM   36  C   UNL     1     -40.387  62.365 -61.412  1.00  0.00     0.012 A 
HETATM   37  C   UNL     1     -39.505  63.117 -62.195  1.00  0.00     0.001 A 
HETATM   38  C   UNL     1     -38.580  63.963 -61.590  1.00  0.00     0.000 A 
HETATM   39  C   UNL     1     -38.537  64.057 -60.203  1.00  0.00     0.001 A 
HETATM   40  C   UNL     1     -39.413  63.297 -59.423  1.00  0.00     0.012 A 
ENDBRANCH  32  35
ENDBRANCH   8  29
TORSDOF 8
ENDMDL
MODEL 3
REMARK VINA RESULT:      -8.0      1.123      1.549
REMARK  8 active torsions:
REMARK  status: ('A' for Active; 'I' for Inactive)
REMARK    1  A    between atoms: O_2  and  C_3 
REMARK    2  A    between atoms: C_3  and  C_4 
REMARK    3  A    between atoms: C_4  and  N_5 
REMARK       I    between atoms: N_5  and  C_6 
REMARK    4  A    between atoms: C_6  and  C_7 
REMARK    5  A    between atoms: C_7  and  N_8 
REMARK       I    between atoms: N_14  and  C_15 
REMARK    6  A    between atoms: C_15  and  C_16 
REMARK    7  A    between atoms: C_19  and  C_20 
REMARK    8  A    between atoms: N_31  and  C_32 
ROOT
HETATM    1  N   UNL     1     -42.132  60.471 -59.444  1.00  0.00    -0.325 N 
HETATM    2  C   UNL     1     -42.194  60.228 -58.095  1.00  0.00     0.250 A 
HETATM    3  O   UNL     1     -41.528  60.803 -57.248  1.00  0.00    -0.270 OA
HETATM    4  C   UNL     1     -43.196  59.076 -57.865  1.00  0.00     0.118 A 
HETATM    5  C   UNL     1     -44.288  59.572 -56.900  1.00  0.00     0.061 C 
HETATM    6  C   UNL     1     -43.821  59.582 -55.445  1.00  0.00     0.129 C 
HETATM    7  N   UNL     1     -43.166  58.326 -55.096  1.00  0.00    -0.348 N 
HETATM    8  C   UNL     1     -43.851  57.403 -54.303  1.00  0.00     0.253 C 
HETATM    9  O   UNL     1     -45.004  57.564 -53.910  1.00  0.00    -0.267 OA
HETATM   10  C   UNL     1     -41.982  58.025 -55.900  1.00  0.00     0.129 C 
HETATM   11  C   UNL     1     -42.368  57.877 -57.368  1.00  0.00     0.061 C 
HETATM   12  N   UNL     1     -43.720  58.840 -59.245  1.00  0.00    -0.346 N 
HETATM   13  C   UNL     1     -43.051  59.695 -60.214  1.00  0.00     0.254 A 
ENDROOT
BRANCH  12  14
HETATM   14  C   UNL     1     -44.607  57.868 -59.674  1.00  0.00     0.032 A 
HETATM   15  C   UNL     1     -45.997  57.962 -59.502  1.00  0.00     0.029 A 
HETATM   16  C   UNL     1     -46.882  56.961 -59.931  1.00  0.00     0.002 A 
HETATM   17  C   UNL     1     -46.402  55.821 -60.557  1.00  0.00     0.000 A 
HETATM   18  C   UNL     1     -45.037  55.691 -60.760  1.00  0.00     0.002 A 
HETATM   19  C   UNL     1     -44.164  56.700 -60.329  1.00  0.00     0.029 A 
ENDBRANCH  12  14
BRANCH   1  20
HETATM   20  C   UNL     1     -41.269  61.463 -60.070  1.00  0.00     0.230 C 
BRANCH  20  21
HETATM   21  C   UNL     1     -42.022  62.486 -60.927  1.00  0.00     0.235 C 
HETATM   22  N   UNL     1     -42.878  63.320 -60.239  1.00  0.00    -0.358 N 
HETATM   23  H   UNL     1     -43.165  63.028 -59.311  1.00  0.00     0.162 HD
HETATM   24  O   UNL     1     -41.924  62.495 -62.152  1.00  0.00    -0.272 OA
BRANCH  22  25
HETATM   25  C   UNL     1     -43.777  64.217 -60.944  1.00  0.00     0.148 C 
BRANCH  25  26
HETATM   26  C   UNL     1     -45.233  64.002 -60.536  1.00  0.00     0.186 C 
BRANCH  26  27
HETATM   27  O   UNL     1     -45.733  62.826 -61.181  1.00  0.00    -0.394 OA
HETATM   28  C   UNL     1     -46.129  61.843 -60.230  1.00  0.00     0.201 C 
ENDBRANCH  26  27
ENDBRANCH  25  26
ENDBRANCH  22  25
ENDBRANCH  20  21
ENDBRANCH   1  20
BRANCH   8  29
HETATM   29  C   UNL     1     -43.165  56.143 -53.937  1.00  0.00     0.032 A 
HETATM   30  C   UNL     1     -42.293  56.090 -52.847  1.00  0.00     0.018 A 
HETATM   31  C   UNL     1     -41.543  54.933 -52.618  1.00  0.00     0.013 A 
HETATM   32  C   UNL     1     -41.675  53.799 -53.443  1.00  0.00    -0.026 A 
HETATM   33  C   UNL     1     -42.641  53.849 -54.468  1.00  0.00     0.013 A 
HETATM   34  C   UNL     1     -43.380  55.008 -54.718  1.00  0.00     0.018 A 
BRANCH  32  35
HETATM   35  C   UNL     1     -40.795  52.621 -53.271  1.00  0.00    -0.026 A 
HETATM   36  C   UNL     1     -40.643  51.657 -54.281  1.00  0.00     0.012 A 
HETATM   37  C   UNL     1     -39.852  50.519 -54.088  1.00  0.00     0.001 A 
HETATM   38  C   UNL     1     -39.186  50.328 -52.881  1.00  0.00     0.000 A 
HETATM   39  C   UNL     1     -39.310  51.272 -51.868  1.00  0.00     0.001 A 
HETATM   40  C   UNL     1     -40.109  52.403 -52.060  1.00  0.00     0.012 A 
ENDBRANCH  32  35
ENDBRANCH   8  29
TORSDOF 8
ENDMDL
MODEL 4
REMARK VINA RESULT:      -7.5      3.187      5.988
REMARK  8 active torsions:
REMARK  status: ('A' for Active; 'I' for Inactive)
REMARK    1  A    between atoms: O_2  and  C_3 
REMARK    2  A    between atoms: C_3  and  C_4 
REMARK    3  A    between atoms: C_4  and  N_5 
REMARK       I    between atoms: N_5  and  C_6 
REMARK    4  A    between atoms: C_6  and  C_7 
REMARK    5  A    between atoms: C_7  and  N_8 
REMARK       I    between atoms: N_14  and  C_15 
REMARK    6  A    between atoms: C_15  and  C_16 
REMARK    7  A    between atoms: C_19  and  C_20 
REMARK    8  A    between atoms: N_31  and  C_32 
ROOT
HETATM    1  N   UNL     1     -46.089  61.259 -55.337  1.00  0.00    -0.325 N 
HETATM    2  C   UNL     1     -44.856  60.704 -55.573  1.00  0.00     0.250 A 
HETATM    3  O   UNL     1     -44.359  60.544 -56.677  1.00  0.00    -0.270 OA
HETATM    4  C   UNL     1     -44.259  60.277 -54.214  1.00  0.00     0.118 A 
HETATM    5  C   UNL     1     -42.899  60.976 -54.044  1.00  0.00     0.061 C 
HETATM    6  C   UNL     1     -41.789  60.302 -54.850  1.00  0.00     0.129 C 
HETATM    7  N   UNL     1     -41.806  58.856 -54.656  1.00  0.00    -0.348 N 
HETATM    8  C   UNL     1     -40.830  58.270 -53.847  1.00  0.00     0.253 C 
HETATM    9  O   UNL     1     -39.971  58.908 -53.243  1.00  0.00    -0.267 OA
HETATM   10  C   UNL     1     -43.054  58.212 -55.065  1.00  0.00     0.129 C 
HETATM   11  C   UNL     1     -44.215  58.738 -54.228  1.00  0.00     0.061 C 
HETATM   12  N   UNL     1     -45.285  60.783 -53.252  1.00  0.00    -0.346 N 
HETATM   13  C   UNL     1     -46.414  61.376 -53.952  1.00  0.00     0.254 A 
ENDROOT
BRANCH  12  14
HETATM   14  C   UNL     1     -45.324  60.628 -51.877  1.00  0.00     0.032 A 
HETATM   15  C   UNL     1     -45.750  59.450 -51.244  1.00  0.00     0.029 A 
HETATM   16  C   UNL     1     -45.797  59.314 -49.849  1.00  0.00     0.002 A 
HETATM   17  C   UNL     1     -45.412  60.364 -49.029  1.00  0.00     0.000 A 
HETATM   18  C   UNL     1     -44.972  61.543 -49.610  1.00  0.00     0.002 A 
HETATM   19  C   UNL     1     -44.927  61.664 -51.005  1.00  0.00     0.029 A 
ENDBRANCH  12  14
BRANCH   1  20
HETATM   20  C   UNL     1     -46.987  61.752 -56.370  1.00  0.00     0.230 C 
BRANCH  20  21
HETATM   21  C   UNL     1     -47.090  60.833 -57.593  1.00  0.00     0.235 C 
HETATM   22  N   UNL     1     -47.209  59.489 -57.315  1.00  0.00    -0.358 N 
HETATM   23  H   UNL     1     -46.938  59.180 -56.387  1.00  0.00     0.162 HD
HETATM   24  O   UNL     1     -46.986  61.271 -58.736  1.00  0.00    -0.272 OA
BRANCH  22  25
HETATM   25  C   UNL     1     -47.144  58.496 -58.373  1.00  0.00     0.148 C 
BRANCH  25  26
HETATM   26  C   UNL     1     -45.835  57.710 -58.339  1.00  0.00     0.186 C 
BRANCH  26  27
HETATM   27  O   UNL     1     -45.723  56.932 -59.535  1.00  0.00    -0.394 OA
HETATM   28  C   UNL     1     -46.998  56.490 -59.986  1.00  0.00     0.201 C 
ENDBRANCH  26  27
ENDBRANCH  25  26
ENDBRANCH  22  25
ENDBRANCH  20  21
ENDBRANCH   1  20
BRANCH   8  29
HETATM   29  C   UNL     1     -40.845  56.799 -53.678  1.00  0.00     0.032 A 
HETATM   30  C   UNL     1     -41.126  56.222 -52.438  1.00  0.00     0.018 A 
HETATM   31  C   UNL     1     -40.982  54.842 -52.270  1.00  0.00     0.013 A 
HETATM   32  C   UNL     1     -40.596  54.010 -53.339  1.00  0.00    -0.026 A 
HETATM   33  C   UNL     1     -40.424  54.611 -54.602  1.00  0.00     0.013 A 
HETATM   34  C   UNL     1     -40.544  55.993 -54.774  1.00  0.00     0.018 A 
BRANCH  32  35
HETATM   35  C   UNL     1     -40.329  52.569 -53.129  1.00  0.00    -0.026 A 
HETATM   36  C   UNL     1     -39.859  52.075 -51.900  1.00  0.00     0.012 A 
HETATM   37  C   UNL     1     -39.558  50.719 -51.729  1.00  0.00     0.001 A 
HETATM   38  C   UNL     1     -39.730  49.827 -52.783  1.00  0.00     0.000 A 
HETATM   39  C   UNL     1     -40.203  50.287 -54.006  1.00  0.00     0.001 A 
HETATM   40  C   UNL     1     -40.495  51.644 -54.178  1.00  0.00     0.012 A 
ENDBRANCH  32  35
ENDBRANCH   8  29
TORSDOF 8
ENDMDL
MODEL 5
REMARK VINA RESULT:      -7.4      5.594      8.154
REMARK  8 active torsions:
REMARK  status: ('A' for Active; 'I' for Inactive)
REMARK    1  A    between atoms: O_2  and  C_3 
REMARK    2  A    between atoms: C_3  and  C_4 
REMARK    3  A    between atoms: C_4  and  N_5 
REMARK       I    between atoms: N_5  and  C_6 
REMARK    4  A    between atoms: C_6  and  C_7 
REMARK    5  A    between atoms: C_7  and  N_8 
REMARK       I    between atoms: N_14  and  C_15 
REMARK    6  A    between atoms: C_15  and  C_16 
REMARK    7  A    between atoms: C_19  and  C_20 
REMARK    8  A    between atoms: N_31  and  C_32 
ROOT
HETATM    1  N   UNL     1     -47.251  62.103 -52.747  1.00  0.00    -0.325 N 
HETATM    2  C   UNL     1     -46.091  61.578 -53.259  1.00  0.00     0.250 A 
HETATM    3  O   UNL     1     -45.878  61.371 -54.443  1.00  0.00    -0.270 OA
HETATM    4  C   UNL     1     -45.155  61.250 -52.075  1.00  0.00     0.118 A 
HETATM    5  C   UNL     1     -43.829  62.005 -52.286  1.00  0.00     0.061 C 
HETATM    6  C   UNL     1     -42.925  61.322 -53.312  1.00  0.00     0.129 C 
HETATM    7  N   UNL     1     -42.825  59.891 -53.052  1.00  0.00    -0.348 N 
HETATM    8  C   UNL     1     -41.651  59.386 -52.488  1.00  0.00     0.253 C 
HETATM    9  O   UNL     1     -40.700  60.087 -52.150  1.00  0.00    -0.267 OA
HETATM   10  C   UNL     1     -44.103  59.182 -53.103  1.00  0.00     0.129 C 
HETATM   11  C   UNL     1     -45.042  59.716 -52.026  1.00  0.00     0.061 C 
HETATM   12  N   UNL     1     -45.930  61.776 -50.910  1.00  0.00    -0.346 N 
HETATM   13  C   UNL     1     -47.226  62.289 -51.331  1.00  0.00     0.254 A 
ENDROOT
BRANCH  12  14
HETATM   14  C   UNL     1     -45.618  61.700 -49.564  1.00  0.00     0.032 A 
HETATM   15  C   UNL     1     -45.833  60.553 -48.785  1.00  0.00     0.029 A 
HETATM   16  C   UNL     1     -45.523  60.496 -47.418  1.00  0.00     0.002 A 
HETATM   17  C   UNL     1     -44.979  61.598 -46.776  1.00  0.00     0.000 A 
HETATM   18  C   UNL     1     -44.737  62.750 -47.509  1.00  0.00     0.002 A 
HETATM   19  C   UNL     1     -45.048  62.791 -48.875  1.00  0.00     0.029 A 
ENDBRANCH  12  14
BRANCH   1  20
HETATM   20  C   UNL     1     -48.401  62.505 -53.542  1.00  0.00     0.230 C 
BRANCH  20  21
HETATM   21  C   UNL     1     -49.480  63.243 -52.742  1.00  0.00     0.235 C 
HETATM   22  N   UNL     1     -50.623  62.519 -52.479  1.00  0.00    -0.358 N 
HETATM   23  H   UNL     1     -50.794  61.698 -53.050  1.00  0.00     0.162 HD
HETATM   24  O   UNL     1     -49.356  64.427 -52.437  1.00  0.00    -0.272 OA
BRANCH  22  25
HETATM   25  C   UNL     1     -51.788  63.148 -51.882  1.00  0.00     0.148 C 
BRANCH  25  26
HETATM   26  C   UNL     1     -52.888  63.403 -52.909  1.00  0.00     0.186 C 
BRANCH  26  27
HETATM   27  O   UNL     1     -52.944  62.300 -53.821  1.00  0.00    -0.394 OA
HETATM   28  C   UNL     1     -53.850  62.556 -54.888  1.00  0.00     0.201 C 
ENDBRANCH  26  27
ENDBRANCH  25  26
ENDBRANCH  22  25
ENDBRANCH  20  21
ENDBRANCH   1  20
BRANCH   8  29
HETATM   29  C   UNL     1     -41.554  57.928 -52.251  1.00  0.00     0.032 A 
HETATM   30  C   UNL     1     -41.655  57.402 -50.961  1.00  0.00     0.018 A 
HETATM   31  C   UNL     1     -41.405  56.043 -50.748  1.00  0.00     0.013 A 
HETATM   32  C   UNL     1     -41.091  55.180 -51.815  1.00  0.00    -0.026 A 
HETATM   33  C   UNL     1     -41.103  55.722 -53.116  1.00  0.00     0.013 A 
HETATM   34  C   UNL     1     -41.329  57.083 -53.336  1.00  0.00     0.018 A 
BRANCH  32  35
HETATM   35  C   UNL     1     -40.712  53.770 -51.572  1.00  0.00    -0.026 A 
HETATM   36  C   UNL     1     -40.791  53.191 -50.294  1.00  0.00     0.012 A 
HETATM   37  C   UNL     1     -40.378  51.875 -50.064  1.00  0.00     0.001 A 
HETATM   38  C   UNL     1     -39.885  51.104 -51.112  1.00  0.00     0.000 A 
HETATM   39  C   UNL     1     -39.805  51.648 -52.390  1.00  0.00     0.001 A 
HETATM   40  C   UNL     1     -40.210  52.967 -52.615  1.00  0.00     0.012 A 
ENDBRANCH  32  35
ENDBRANCH   8  29
TORSDOF 8
ENDMDL
MODEL 6
REMARK VINA RESULT:      -7.4      3.423     10.192
REMARK  8 active torsions:
REMARK  status: ('A' for Active; 'I' for Inactive)
REMARK    1  A    between atoms: O_2  and  C_3 
REMARK    2  A    between atoms: C_3  and  C_4 
REMARK    3  A    between atoms: C_4  and  N_5 
REMARK       I    between atoms: N_5  and  C_6 
REMARK    4  A    between atoms: C_6  and  C_7 
REMARK    5  A    between atoms: C_7  and  N_8 
REMARK       I    between atoms: N_14  and  C_15 
REMARK    6  A    between atoms: C_15  and  C_16 
REMARK    7  A    between atoms: C_19  and  C_20 
REMARK    8  A    between atoms: N_31  and  C_32 
ROOT
HETATM    1  N   UNL     1     -41.274  56.058 -51.459  1.00  0.00    -0.325 N 
HETATM    2  C   UNL     1     -41.788  56.039 -52.731  1.00  0.00     0.250 A 
HETATM    3  O   UNL     1     -41.589  55.160 -53.555  1.00  0.00    -0.270 OA
HETATM    4  C   UNL     1     -42.594  57.341 -52.937  1.00  0.00     0.118 A 
HETATM    5  C   UNL     1     -44.031  56.959 -53.333  1.00  0.00     0.061 C 
HETATM    6  C   UNL     1     -44.144  56.546 -54.801  1.00  0.00     0.129 C 
HETATM    7  N   UNL     1     -43.461  57.501 -55.667  1.00  0.00    -0.348 N 
HETATM    8  C   UNL     1     -44.224  58.394 -56.423  1.00  0.00     0.253 C 
HETATM    9  O   UNL     1     -45.450  58.458 -56.371  1.00  0.00    -0.267 OA
HETATM   10  C   UNL     1     -42.032  57.643 -55.394  1.00  0.00     0.129 C 
HETATM   11  C   UNL     1     -41.818  58.168 -53.978  1.00  0.00     0.061 C 
HETATM   12  N   UNL     1     -42.524  57.967 -51.582  1.00  0.00    -0.346 N 
HETATM   13  C   UNL     1     -41.699  57.176 -50.680  1.00  0.00     0.254 A 
ENDROOT
BRANCH  12  14
HETATM   14  C   UNL     1     -43.012  59.197 -51.176  1.00  0.00     0.032 A 
HETATM   15  C   UNL     1     -42.196  60.317 -50.956  1.00  0.00     0.029 A 
HETATM   16  C   UNL     1     -42.706  61.554 -50.532  1.00  0.00     0.002 A 
HETATM   17  C   UNL     1     -44.065  61.715 -50.315  1.00  0.00     0.000 A 
HETATM   18  C   UNL     1     -44.912  60.639 -50.532  1.00  0.00     0.002 A 
HETATM   19  C   UNL     1     -44.390  59.410 -50.959  1.00  0.00     0.029 A 
ENDBRANCH  12  14
BRANCH   1  20
HETATM   20  C   UNL     1     -40.423  55.022 -50.893  1.00  0.00     0.230 C 
BRANCH  20  21
HETATM   21  C   UNL     1     -40.766  53.607 -51.374  1.00  0.00     0.235 C 
HETATM   22  N   UNL     1     -39.884  53.058 -52.279  1.00  0.00    -0.358 N 
HETATM   23  H   UNL     1     -39.265  53.696 -52.769  1.00  0.00     0.162 HD
HETATM   24  O   UNL     1     -41.806  53.047 -51.032  1.00  0.00    -0.272 OA
BRANCH  22  25
HETATM   25  C   UNL     1     -40.178  51.800 -52.943  1.00  0.00     0.148 C 
BRANCH  25  26
HETATM   26  C   UNL     1     -39.545  50.613 -52.222  1.00  0.00     0.186 C 
BRANCH  26  27
HETATM   27  O   UNL     1     -39.560  49.474 -53.089  1.00  0.00    -0.394 OA
HETATM   28  C   UNL     1     -39.835  49.851 -54.434  1.00  0.00     0.201 C 
ENDBRANCH  26  27
ENDBRANCH  25  26
ENDBRANCH  22  25
ENDBRANCH  20  21
ENDBRANCH   1  20
BRANCH   8  29
HETATM   29  C   UNL     1     -43.519  59.342 -57.316  1.00  0.00     0.032 A 
HETATM   30  C   UNL     1     -43.090  58.949 -58.585  1.00  0.00     0.018 A 
HETATM   31  C   UNL     1     -42.294  59.811 -59.343  1.00  0.00     0.013 A 
HETATM   32  C   UNL     1     -41.945  61.092 -58.871  1.00  0.00    -0.026 A 
HETATM   33  C   UNL     1     -42.483  61.497 -57.633  1.00  0.00     0.013 A 
HETATM   34  C   UNL     1     -43.262  60.633 -56.858  1.00  0.00     0.018 A 
BRANCH  32  35
HETATM   35  C   UNL     1     -41.006  61.955 -59.622  1.00  0.00    -0.026 A 
HETATM   36  C   UNL     1     -41.046  62.048 -61.023  1.00  0.00     0.012 A 
HETATM   37  C   UNL     1     -40.119  62.824 -61.728  1.00  0.00     0.001 A 
HETATM   38  C   UNL     1     -39.137  63.533 -61.042  1.00  0.00     0.000 A 
HETATM   39  C   UNL     1     -39.080  63.466 -59.654  1.00  0.00     0.001 A 
HETATM   40  C   UNL     1     -40.002  62.682 -58.954  1.00  0.00     0.012 A 
ENDBRANCH  32  35
ENDBRANCH   8  29
TORSDOF 8
ENDMDL
MODEL 7
REMARK VINA RESULT:      -7.3      4.607     10.067
REMARK  8 active torsions:
REMARK  status: ('A' for Active; 'I' for Inactive)
REMARK    1  A    between atoms: O_2  and  C_3 
REMARK    2  A    between atoms: C_3  and  C_4 
REMARK    3  A    between atoms: C_4  and  N_5 
REMARK       I    between atoms: N_5  and  C_6 
REMARK    4  A    between atoms: C_6  and  C_7 
REMARK    5  A    between atoms: C_7  and  N_8 
REMARK       I    between atoms: N_14  and  C_15 
REMARK    6  A    between atoms: C_15  and  C_16 
REMARK    7  A    between atoms: C_19  and  C_20 
REMARK    8  A    between atoms: N_31  and  C_32 
ROOT
HETATM    1  N   UNL     1     -42.814  55.167 -53.078  1.00  0.00    -0.325 N 
HETATM    2  C   UNL     1     -42.934  56.431 -52.557  1.00  0.00     0.250 A 
HETATM    3  O   UNL     1     -42.838  56.714 -51.372  1.00  0.00    -0.270 OA
HETATM    4  C   UNL     1     -43.266  57.394 -53.718  1.00  0.00     0.118 A 
HETATM    5  C   UNL     1     -42.194  58.497 -53.751  1.00  0.00     0.061 C 
HETATM    6  C   UNL     1     -42.418  59.563 -52.678  1.00  0.00     0.129 C 
HETATM    7  N   UNL     1     -43.808  60.006 -52.663  1.00  0.00    -0.348 N 
HETATM    8  C   UNL     1     -44.125  61.256 -53.201  1.00  0.00     0.253 C 
HETATM    9  O   UNL     1     -43.304  61.998 -53.734  1.00  0.00    -0.267 OA
HETATM   10  C   UNL     1     -44.773  58.943 -52.387  1.00  0.00     0.129 C 
HETATM   11  C   UNL     1     -44.707  57.879 -53.477  1.00  0.00     0.061 C 
HETATM   12  N   UNL     1     -43.188  56.488 -54.905  1.00  0.00    -0.346 N 
HETATM   13  C   UNL     1     -42.921  55.116 -54.500  1.00  0.00     0.254 A 
ENDROOT
BRANCH  12  14
HETATM   14  C   UNL     1     -43.462  56.781 -56.230  1.00  0.00     0.032 A 
HETATM   15  C   UNL     1     -44.351  57.790 -56.630  1.00  0.00     0.029 A 
HETATM   16  C   UNL     1     -44.628  58.065 -57.977  1.00  0.00     0.002 A 
HETATM   17  C   UNL     1     -44.015  57.333 -58.983  1.00  0.00     0.000 A 
HETATM   18  C   UNL     1     -43.118  56.335 -58.635  1.00  0.00     0.002 A 
HETATM   19  C   UNL     1     -42.849  56.073 -57.284  1.00  0.00     0.029 A 
ENDBRANCH  12  14
BRANCH   1  20
HETATM   20  C   UNL     1     -42.541  53.971 -52.295  1.00  0.00     0.230 C 
BRANCH  20  21
HETATM   21  C   UNL     1     -41.154  53.368 -52.549  1.00  0.00     0.235 C 
HETATM   22  N   UNL     1     -41.079  52.474 -53.594  1.00  0.00    -0.358 N 
HETATM   23  H   UNL     1     -41.949  52.066 -53.921  1.00  0.00     0.162 HD
HETATM   24  O   UNL     1     -40.203  53.611 -51.809  1.00  0.00    -0.272 OA
BRANCH  22  25
HETATM   25  C   UNL     1     -39.871  51.703 -53.835  1.00  0.00     0.148 C 
BRANCH  25  26
HETATM   26  C   UNL     1     -40.184  50.266 -54.245  1.00  0.00     0.186 C 
BRANCH  26  27
HETATM   27  O   UNL     1     -39.475  49.367 -53.386  1.00  0.00    -0.394 OA
HETATM   28  C   UNL     1     -39.492  49.819 -52.037  1.00  0.00     0.201 C 
ENDBRANCH  26  27
ENDBRANCH  25  26
ENDBRANCH  22  25
ENDBRANCH  20  21
ENDBRANCH   1  20
BRANCH   8  29
HETATM   29  C   UNL     1     -45.536  61.703 -53.158  1.00  0.00     0.032 A 
HETATM   30  C   UNL     1     -46.143  62.049 -51.948  1.00  0.00     0.018 A 
HETATM   31  C   UNL     1     -47.514  62.317 -51.915  1.00  0.00     0.013 A 
HETATM   32  C   UNL     1     -48.295  62.286 -53.087  1.00  0.00    -0.026 A 
HETATM   33  C   UNL     1     -47.631  62.038 -54.305  1.00  0.00     0.013 A 
HETATM   34  C   UNL     1     -46.265  61.747 -54.345  1.00  0.00     0.018 A 
BRANCH  32  35
HETATM   35  C   UNL     1     -49.765  62.453 -53.031  1.00  0.00    -0.026 A 
HETATM   36  C   UNL     1     -50.595  62.063 -54.095  1.00  0.00     0.012 A 
HETATM   37  C   UNL     1     -51.978  62.275 -54.055  1.00  0.00     0.001 A 
HETATM   38  C   UNL     1     -52.561  62.874 -52.942  1.00  0.00     0.000 A 
HETATM   39  C   UNL     1     -51.763  63.261 -51.871  1.00  0.00     0.001 A 
HETATM   40  C   UNL     1     -50.381  63.056 -51.917  1.00  0.00     0.012 A 
ENDBRANCH  32  35
ENDBRANCH   8  29
TORSDOF 8
ENDMDL
MODEL 8
REMARK VINA RESULT:      -7.3      4.400      9.681
REMARK  8 active torsions:
REMARK  status: ('A' for Active; 'I' for Inactive)
REMARK    1  A    between atoms: O_2  and  C_3 
REMARK    2  A    between atoms: C_3  and  C_4 
REMARK    3  A    between atoms: C_4  and  N_5 
REMARK       I    between atoms: N_5  and  C_6 
REMARK    4  A    between atoms: C_6  and  C_7 
REMARK    5  A    between atoms: C_7  and  N_8 
REMARK       I    between atoms: N_14  and  C_15 
REMARK    6  A    between atoms: C_15  and  C_16 
REMARK    7  A    between atoms: C_19  and  C_20 
REMARK    8  A    between atoms: N_31  and  C_32 
ROOT
HETATM    1  N   UNL     1     -42.820  55.245 -54.940  1.00  0.00    -0.325 N 
HETATM    2  C   UNL     1     -42.976  56.294 -54.070  1.00  0.00     0.250 A 
HETATM    3  O   UNL     1     -42.971  56.202 -52.852  1.00  0.00    -0.270 OA
HETATM    4  C   UNL     1     -43.214  57.572 -54.904  1.00  0.00     0.118 A 
HETATM    5  C   UNL     1     -42.139  58.605 -54.521  1.00  0.00     0.061 C 
HETATM    6  C   UNL     1     -42.443  59.301 -53.195  1.00  0.00     0.129 C 
HETATM    7  N   UNL     1     -43.828  59.755 -53.147  1.00  0.00    -0.348 N 
HETATM    8  C   UNL     1     -44.099  61.117 -53.301  1.00  0.00     0.253 C 
HETATM    9  O   UNL     1     -43.236  61.964 -53.521  1.00  0.00    -0.267 OA
HETATM   10  C   UNL     1     -44.815  58.685 -53.278  1.00  0.00     0.129 C 
HETATM   11  C   UNL     1     -44.668  57.999 -54.633  1.00  0.00     0.061 C 
HETATM   12  N   UNL     1     -43.047  57.067 -56.301  1.00  0.00    -0.346 N 
HETATM   13  C   UNL     1     -42.816  55.630 -56.315  1.00  0.00     0.254 A 
ENDROOT
BRANCH  12  14
HETATM   14  C   UNL     1     -43.216  57.754 -57.491  1.00  0.00     0.032 A 
HETATM   15  C   UNL     1     -44.433  57.802 -58.187  1.00  0.00     0.029 A 
HETATM   16  C   UNL     1     -44.585  58.492 -59.400  1.00  0.00     0.002 A 
HETATM   17  C   UNL     1     -43.512  59.169 -59.960  1.00  0.00     0.000 A 
HETATM   18  C   UNL     1     -42.293  59.159 -59.300  1.00  0.00     0.002 A 
HETATM   19  C   UNL     1     -42.157  58.468 -58.088  1.00  0.00     0.029 A 
ENDBRANCH  12  14
BRANCH   1  20
HETATM   20  C   UNL     1     -42.612  53.861 -54.541  1.00  0.00     0.230 C 
BRANCH  20  21
HETATM   21  C   UNL     1     -41.313  53.630 -53.761  1.00  0.00     0.235 C 
HETATM   22  N   UNL     1     -41.452  53.526 -52.394  1.00  0.00    -0.358 N 
HETATM   23  H   UNL     1     -42.309  53.885 -51.986  1.00  0.00     0.162 HD
HETATM   24  O   UNL     1     -40.219  53.624 -54.322  1.00  0.00    -0.272 OA
BRANCH  22  25
HETATM   25  C   UNL     1     -40.290  53.478 -51.524  1.00  0.00     0.148 C 
BRANCH  25  26
HETATM   26  C   UNL     1     -40.196  52.154 -50.770  1.00  0.00     0.186 C 
BRANCH  26  27
HETATM   27  O   UNL     1     -39.618  51.165 -51.629  1.00  0.00    -0.394 OA
HETATM   28  C   UNL     1     -39.485  49.915 -50.963  1.00  0.00     0.201 C 
ENDBRANCH  26  27
ENDBRANCH  25  26
ENDBRANCH  22  25
ENDBRANCH  20  21
ENDBRANCH   1  20
BRANCH   8  29
HETATM   29  C   UNL     1     -45.507  61.568 -53.227  1.00  0.00     0.032 A 
HETATM   30  C   UNL     1     -46.168  61.660 -52.000  1.00  0.00     0.018 A 
HETATM   31  C   UNL     1     -47.537  61.937 -51.972  1.00  0.00     0.013 A 
HETATM   32  C   UNL     1     -48.263  62.166 -53.157  1.00  0.00    -0.026 A 
HETATM   33  C   UNL     1     -47.545  62.171 -54.369  1.00  0.00     0.013 A 
HETATM   34  C   UNL     1     -46.180  61.873 -54.409  1.00  0.00     0.018 A 
BRANCH  32  35
HETATM   35  C   UNL     1     -49.733  62.341 -53.133  1.00  0.00    -0.026 A 
HETATM   36  C   UNL     1     -50.380  63.025 -52.090  1.00  0.00     0.012 A 
HETATM   37  C   UNL     1     -51.773  63.137 -52.047  1.00  0.00     0.001 A 
HETATM   38  C   UNL     1     -52.551  62.575 -53.056  1.00  0.00     0.000 A 
HETATM   39  C   UNL     1     -51.936  61.901 -54.105  1.00  0.00     0.001 A 
HETATM   40  C   UNL     1     -50.543  61.783 -54.140  1.00  0.00     0.012 A 
ENDBRANCH  32  35
ENDBRANCH   8  29
TORSDOF 8
ENDMDL
MODEL 9
REMARK VINA RESULT:      -7.1      3.208      5.537
REMARK  8 active torsions:
REMARK  status: ('A' for Active; 'I' for Inactive)
REMARK    1  A    between atoms: O_2  and  C_3 
REMARK    2  A    between atoms: C_3  and  C_4 
REMARK    3  A    between atoms: C_4  and  N_5 
REMARK       I    between atoms: N_5  and  C_6 
REMARK    4  A    between atoms: C_6  and  C_7 
REMARK    5  A    between atoms: C_7  and  N_8 
REMARK       I    between atoms: N_14  and  C_15 
REMARK    6  A    between atoms: C_15  and  C_16 
REMARK    7  A    between atoms: C_19  and  C_20 
REMARK    8  A    between atoms: N_31  and  C_32 
ROOT
HETATM    1  N   UNL     1     -46.664  61.163 -59.480  1.00  0.00    -0.325 N 
HETATM    2  C   UNL     1     -46.451  59.821 -59.288  1.00  0.00     0.250 A 
HETATM    3  O   UNL     1     -47.329  58.979 -59.181  1.00  0.00    -0.270 OA
HETATM    4  C   UNL     1     -44.927  59.594 -59.175  1.00  0.00     0.118 A 
HETATM    5  C   UNL     1     -44.511  58.575 -60.251  1.00  0.00     0.061 C 
HETATM    6  C   UNL     1     -44.849  57.137 -59.858  1.00  0.00     0.129 C 
HETATM    7  N   UNL     1     -44.421  56.854 -58.493  1.00  0.00    -0.348 N 
HETATM    8  C   UNL     1     -43.285  56.067 -58.289  1.00  0.00     0.253 C 
HETATM    9  O   UNL     1     -42.587  55.628 -59.201  1.00  0.00    -0.267 OA
HETATM   10  C   UNL     1     -45.041  57.708 -57.481  1.00  0.00     0.129 C 
HETATM   11  C   UNL     1     -44.661  59.165 -57.721  1.00  0.00     0.061 C 
HETATM   12  N   UNL     1     -44.388  60.961 -59.447  1.00  0.00    -0.346 N 
HETATM   13  C   UNL     1     -45.465  61.924 -59.622  1.00  0.00     0.254 A 
ENDROOT
BRANCH  12  14
HETATM   14  C   UNL     1     -43.072  61.390 -59.412  1.00  0.00     0.032 A 
HETATM   15  C   UNL     1     -42.383  61.669 -58.221  1.00  0.00     0.029 A 
HETATM   16  C   UNL     1     -41.053  62.116 -58.203  1.00  0.00     0.002 A 
HETATM   17  C   UNL     1     -40.359  62.298 -59.389  1.00  0.00     0.000 A 
HETATM   18  C   UNL     1     -40.996  62.023 -60.590  1.00  0.00     0.002 A 
HETATM   19  C   UNL     1     -42.323  61.574 -60.593  1.00  0.00     0.029 A 
ENDBRANCH  12  14
BRANCH   1  20
HETATM   20  C   UNL     1     -47.975  61.785 -59.598  1.00  0.00     0.230 C 
BRANCH  20  21
HETATM   21  C   UNL     1     -48.669  61.519 -60.938  1.00  0.00     0.235 C 
HETATM   22  N   UNL     1     -49.403  60.354 -61.004  1.00  0.00    -0.358 N 
HETATM   23  H   UNL     1     -49.207  59.641 -60.308  1.00  0.00     0.162 HD
HETATM   24  O   UNL     1     -48.504  62.258 -61.906  1.00  0.00    -0.272 OA
BRANCH  22  25
HETATM   25  C   UNL     1     -49.968  59.895 -62.261  1.00  0.00     0.148 C 
BRANCH  25  26
HETATM   26  C   UNL     1     -49.056  58.893 -62.965  1.00  0.00     0.186 C 
BRANCH  26  27
HETATM   27  O   UNL     1     -49.571  57.572 -62.772  1.00  0.00    -0.394 OA
HETATM   28  C   UNL     1     -48.572  56.696 -62.265  1.00  0.00     0.201 C 
ENDBRANCH  26  27
ENDBRANCH  25  26
ENDBRANCH  22  25
ENDBRANCH  20  21
ENDBRANCH   1  20
BRANCH   8  29
HETATM   29  C   UNL     1     -42.875  55.767 -56.899  1.00  0.00     0.032 A 
HETATM   30  C   UNL     1     -42.092  56.667 -56.172  1.00  0.00     0.018 A 
HETATM   31  C   UNL     1     -41.591  56.293 -54.922  1.00  0.00     0.013 A 
HETATM   32  C   UNL     1     -41.892  55.038 -54.358  1.00  0.00    -0.026 A 
HETATM   33  C   UNL     1     -42.771  54.198 -55.070  1.00  0.00     0.013 A 
HETATM   34  C   UNL     1     -43.259  54.554 -56.330  1.00  0.00     0.018 A 
BRANCH  32  35
HETATM   35  C   UNL     1     -41.265  54.598 -53.091  1.00  0.00    -0.026 A 
HETATM   36  C   UNL     1     -40.598  53.366 -52.983  1.00  0.00     0.012 A 
HETATM   37  C   UNL     1     -40.056  52.935 -51.767  1.00  0.00     0.001 A 
HETATM   38  C   UNL     1     -40.161  53.736 -50.633  1.00  0.00     0.000 A 
HETATM   39  C   UNL     1     -40.807  54.964 -50.714  1.00  0.00     0.001 A 
HETATM   40  C   UNL     1     -41.356  55.388 -51.928  1.00  0.00     0.012 A 
ENDBRANCH  32  35
ENDBRANCH   8  29
TORSDOF 8
ENDMDL
MODEL 10
REMARK VINA RESULT:      -7.0      2.974      9.959
REMARK  8 active torsions:
REMARK  status: ('A' for Active; 'I' for Inactive)
REMARK    1  A    between atoms: O_2  and  C_3 
REMARK    2  A    between atoms: C_3  and  C_4 
REMARK    3  A    between atoms: C_4  and  N_5 
REMARK       I    between atoms: N_5  and  C_6 
REMARK    4  A    between atoms: C_6  and  C_7 
REMARK    5  A    between atoms: C_7  and  N_8 
REMARK       I    between atoms: N_14  and  C_15 
REMARK    6  A    between atoms: C_15  and  C_16 
REMARK    7  A    between atoms: C_19  and  C_20 
REMARK    8  A    between atoms: N_31  and  C_32 
ROOT
HETATM    1  N   UNL     1     -42.875  55.354 -55.170  1.00  0.00    -0.325 N 
HETATM    2  C   UNL     1     -43.205  55.884 -56.392  1.00  0.00     0.250 A 
HETATM    3  O   UNL     1     -43.159  55.282 -57.453  1.00  0.00    -0.270 OA
HETATM    4  C   UNL     1     -43.575  57.369 -56.181  1.00  0.00     0.118 A 
HETATM    5  C   UNL     1     -44.999  57.592 -56.723  1.00  0.00     0.061 C 
HETATM    6  C   UNL     1     -45.034  57.702 -58.248  1.00  0.00     0.129 C 
HETATM    7  N   UNL     1     -44.003  58.614 -58.730  1.00  0.00    -0.348 N 
HETATM    8  C   UNL     1     -44.378  59.886 -59.172  1.00  0.00     0.253 C 
HETATM    9  O   UNL     1     -45.532  60.307 -59.138  1.00  0.00    -0.267 OA
HETATM   10  C   UNL     1     -42.640  58.216 -58.384  1.00  0.00     0.129 C 
HETATM   11  C   UNL     1     -42.470  58.191 -56.868  1.00  0.00     0.061 C 
HETATM   12  N   UNL     1     -43.505  57.499 -54.694  1.00  0.00    -0.346 N 
HETATM   13  C   UNL     1     -43.062  56.256 -54.080  1.00  0.00     0.254 A 
ENDROOT
BRANCH  12  14
HETATM   14  C   UNL     1     -43.673  58.634 -53.920  1.00  0.00     0.032 A 
HETATM   15  C   UNL     1     -44.920  59.066 -53.444  1.00  0.00     0.029 A 
HETATM   16  C   UNL     1     -45.076  60.227 -52.672  1.00  0.00     0.002 A 
HETATM   17  C   UNL     1     -43.975  61.003 -52.343  1.00  0.00     0.000 A 
HETATM   18  C   UNL     1     -42.720  60.607 -52.781  1.00  0.00     0.002 A 
HETATM   19  C   UNL     1     -42.579  59.444 -53.549  1.00  0.00     0.029 A 
ENDBRANCH  12  14
BRANCH   1  20
HETATM   20  C   UNL     1     -42.432  53.985 -54.953  1.00  0.00     0.230 C 
BRANCH  20  21
HETATM   21  C   UNL     1     -41.152  53.873 -54.116  1.00  0.00     0.235 C 
HETATM   22  N   UNL     1     -41.267  53.144 -52.953  1.00  0.00    -0.358 N 
HETATM   23  H   UNL     1     -42.202  52.987 -52.593  1.00  0.00     0.162 HD
HETATM   24  O   UNL     1     -40.125  54.470 -54.431  1.00  0.00    -0.272 OA
BRANCH  22  25
HETATM   25  C   UNL     1     -40.184  53.101 -51.986  1.00  0.00     0.148 C 
BRANCH  25  26
HETATM   26  C   UNL     1     -39.502  51.736 -51.952  1.00  0.00     0.186 C 
BRANCH  26  27
HETATM   27  O   UNL     1     -39.400  51.228 -53.287  1.00  0.00    -0.394 OA
HETATM   28  C   UNL     1     -39.698  49.838 -53.336  1.00  0.00     0.201 C 
ENDBRANCH  26  27
ENDBRANCH  25  26
ENDBRANCH  22  25
ENDBRANCH  20  21
ENDBRANCH   1  20
BRANCH   8  29
HETATM   29  C   UNL     1     -43.325  60.793 -59.681  1.00  0.00     0.032 A 
HETATM   30  C   UNL     1     -42.762  60.601 -60.945  1.00  0.00     0.018 A 
HETATM   31  C   UNL     1     -41.666  61.374 -61.337  1.00  0.00     0.013 A 
HETATM   32  C   UNL     1     -41.137  62.375 -60.499  1.00  0.00    -0.026 A 
HETATM   33  C   UNL     1     -41.795  62.614 -59.276  1.00  0.00     0.013 A 
HETATM   34  C   UNL     1     -42.878  61.831 -58.865  1.00  0.00     0.018 A 
BRANCH  32  35
HETATM   35  C   UNL     1     -39.905  63.109 -60.866  1.00  0.00    -0.026 A 
HETATM   36  C   UNL     1     -39.178  63.853 -59.922  1.00  0.00     0.012 A 
HETATM   37  C   UNL     1     -38.045  64.588 -60.291  1.00  0.00     0.001 A 
HETATM   38  C   UNL     1     -37.611  64.585 -61.613  1.00  0.00     0.000 A 
HETATM   39  C   UNL     1     -38.307  63.849 -62.566  1.00  0.00     0.001 A 
HETATM   40  C   UNL     1     -39.443  63.123 -62.196  1.00  0.00     0.012 A 
ENDBRANCH  32  35
ENDBRANCH   8  29
TORSDOF 8
ENDMDL
