MODEL 1
REMARK VINA RESULT:      -8.2      0.000      0.000
REMARK  8 active torsions:
REMARK  status: ('A' for Active; 'I' for Inactive)
REMARK    1  A    between atoms: C_7  and  C_8 
REMARK    2  A    between atoms: C_11  and  O_12 
REMARK    3  A    between atoms: O_12  and  C_13 
REMARK    4  A    between atoms: C_13  and  C_14 
REMARK       I    between atoms: C_14  and  N_15 
REMARK    5  A    between atoms: N_15  and  N_16 
REMARK       I    between atoms: N_16  and  C_17 
REMARK    6  A    between atoms: C_17  and  C_18 
REMARK    7  A    between atoms: C_18  and  N_19 
REMARK       I    between atoms: N_19  and  C_20 
REMARK    8  A    between atoms: C_20  and  C_21 
ROOT
HETATM    1  C   UNL     1     -40.479  53.145 -54.726  1.00  0.00     0.023 A 
HETATM    2  C   UNL     1     -40.300  52.131 -53.782  1.00  0.00     0.044 A 
HETATM    3  C   UNL     1     -40.111  50.775 -54.206  1.00  0.00     0.099 C 
HETATM    4  N   UNL     1     -39.957  49.678 -54.550  1.00  0.00    -0.191 NA
HETATM    5  C   UNL     1     -40.310  52.449 -52.422  1.00  0.00     0.023 A 
HETATM    6  C   UNL     1     -40.498  53.773 -52.011  1.00  0.00     0.014 A 
HETATM    7  C   UNL     1     -40.679  54.809 -52.944  1.00  0.00    -0.026 A 
HETATM    8  C   UNL     1     -40.665  54.469 -54.309  1.00  0.00     0.014 A 
ENDROOT
BRANCH   7   9
HETATM    9  C   UNL     1     -40.880  56.205 -52.508  1.00  0.00    -0.026 A 
HETATM   10  C   UNL     1     -41.202  56.516 -51.179  1.00  0.00     0.015 A 
HETATM   11  C   UNL     1     -41.396  57.841 -50.772  1.00  0.00     0.037 A 
HETATM   12  C   UNL     1     -41.263  58.892 -51.680  1.00  0.00     0.069 A 
HETATM   13  C   UNL     1     -40.947  58.602 -53.006  1.00  0.00     0.037 A 
HETATM   14  C   UNL     1     -40.760  57.273 -53.412  1.00  0.00     0.015 A 
BRANCH  12  15
HETATM   15  O   UNL     1     -41.482  60.138 -51.158  1.00  0.00    -0.342 OA
BRANCH  15  16
HETATM   16  C   UNL     1     -42.838  60.491 -50.906  1.00  0.00     0.280 C 
BRANCH  16  17
HETATM   17  C   UNL     1     -43.700  60.409 -52.162  1.00  0.00     0.260 C 
HETATM   18  N   UNL     1     -44.651  59.407 -52.152  1.00  0.00    -0.266 N 
HETATM   19  H   UNL     1     -44.577  58.656 -51.465  1.00  0.00     0.190 HD
HETATM   20  O   UNL     1     -43.534  61.163 -53.122  1.00  0.00    -0.269 OA
BRANCH  18  21
HETATM   21  N   UNL     1     -45.263  59.084 -53.371  1.00  0.00    -0.266 N 
HETATM   22  C   UNL     1     -44.905  57.903 -53.990  1.00  0.00     0.253 C 
HETATM   23  O   UNL     1     -44.310  56.994 -53.408  1.00  0.00    -0.270 OA
HETATM   24  H   UNL     1     -45.714  59.846 -53.880  1.00  0.00     0.190 HD
BRANCH  22  25
HETATM   25  C   UNL     1     -45.407  57.770 -55.424  1.00  0.00     0.227 C 
BRANCH  25  26
HETATM   26  N   UNL     1     -44.380  57.196 -56.268  1.00  0.00    -0.352 N 
HETATM   27  C   UNL     1     -43.682  57.987 -57.154  1.00  0.00     0.222 C 
HETATM   28  O   UNL     1     -43.879  59.195 -57.238  1.00  0.00    -0.273 OA
HETATM   29  H   UNL     1     -44.401  56.194 -56.418  1.00  0.00     0.162 HD
BRANCH  27  30
HETATM   30  C   UNL     1     -42.680  57.218 -58.022  1.00  0.00     0.078 C 
HETATM   31  C   UNL     1     -43.105  55.760 -58.251  1.00  0.00     0.014 C 
HETATM   32  C   UNL     1     -44.233  55.606 -59.271  1.00  0.00     0.001 C 
HETATM   33  C   UNL     1     -43.924  56.327 -60.577  1.00  0.00     0.000 C 
HETATM   34  C   UNL     1     -43.571  57.790 -60.340  1.00  0.00     0.001 C 
HETATM   35  C   UNL     1     -42.412  57.932 -59.355  1.00  0.00     0.014 C 
ENDBRANCH  27  30
ENDBRANCH  25  26
ENDBRANCH  22  25
ENDBRANCH  18  21
ENDBRANCH  16  17
ENDBRANCH  15  16
ENDBRANCH  12  15
ENDBRANCH   7   9
TORSDOF 8
ENDMDL
MODEL 2
REMARK VINA RESULT:      -8.0      1.388      2.081
REMARK  8 active torsions:
REMARK  status: ('A' for Active; 'I' for Inactive)
REMARK    1  A    between atoms: C_7  and  C_8 
REMARK    2  A    between atoms: C_11  and  O_12 
REMARK    3  A    between atoms: O_12  and  C_13 
REMARK    4  A    between atoms: C_13  and  C_14 
REMARK       I    between atoms: C_14  and  N_15 
REMARK    5  A    between atoms: N_15  and  N_16 
REMARK       I    between atoms: N_16  and  C_17 
REMARK    6  A    between atoms: C_17  and  C_18 
REMARK    7  A    between atoms: C_18  and  N_19 
REMARK       I    between atoms: N_19  and  C_20 
REMARK    8  A    between atoms: C_20  and  C_21 
ROOT
HETATM    1  C   UNL     1     -40.266  52.649 -54.699  1.00  0.00     0.023 A 
HETATM    2  C   UNL     1     -40.051  51.827 -53.591  1.00  0.00     0.044 A 
HETATM    3  C   UNL     1     -39.716  50.445 -53.770  1.00  0.00     0.099 C 
HETATM    4  N   UNL     1     -39.444  49.326 -53.916  1.00  0.00    -0.191 NA
HETATM    5  C   UNL     1     -40.167  52.362 -52.306  1.00  0.00     0.023 A 
HETATM    6  C   UNL     1     -40.497  53.711 -52.134  1.00  0.00     0.014 A 
HETATM    7  C   UNL     1     -40.717  54.555 -53.236  1.00  0.00    -0.026 A 
HETATM    8  C   UNL     1     -40.594  53.998 -54.521  1.00  0.00     0.014 A 
ENDROOT
BRANCH   7   9
HETATM    9  C   UNL     1     -41.068  55.977 -53.052  1.00  0.00    -0.026 A 
HETATM   10  C   UNL     1     -41.064  56.877 -54.128  1.00  0.00     0.015 A 
HETATM   11  C   UNL     1     -41.394  58.225 -53.947  1.00  0.00     0.037 A 
HETATM   12  C   UNL     1     -41.747  58.709 -52.687  1.00  0.00     0.069 A 
HETATM   13  C   UNL     1     -41.753  57.831 -51.604  1.00  0.00     0.037 A 
HETATM   14  C   UNL     1     -41.416  56.483 -51.788  1.00  0.00     0.015 A 
BRANCH  12  15
HETATM   15  O   UNL     1     -42.043  60.044 -52.643  1.00  0.00    -0.342 OA
BRANCH  15  16
HETATM   16  C   UNL     1     -43.289  60.398 -52.053  1.00  0.00     0.280 C 
BRANCH  16  17
HETATM   17  C   UNL     1     -44.380  60.621 -53.097  1.00  0.00     0.260 C 
HETATM   18  N   UNL     1     -45.021  59.476 -53.524  1.00  0.00    -0.266 N 
HETATM   19  H   UNL     1     -44.600  58.566 -53.329  1.00  0.00     0.190 HD
HETATM   20  O   UNL     1     -44.642  61.740 -53.543  1.00  0.00    -0.269 OA
BRANCH  18  21
HETATM   21  N   UNL     1     -45.808  59.567 -54.681  1.00  0.00    -0.266 N 
HETATM   22  C   UNL     1     -45.269  59.131 -55.875  1.00  0.00     0.253 C 
HETATM   23  O   UNL     1     -44.270  58.412 -55.938  1.00  0.00    -0.270 OA
HETATM   24  H   UNL     1     -46.608  60.201 -54.648  1.00  0.00     0.190 HD
BRANCH  22  25
HETATM   25  C   UNL     1     -46.079  59.520 -57.107  1.00  0.00     0.227 C 
BRANCH  25  26
HETATM   26  N   UNL     1     -45.400  59.095 -58.314  1.00  0.00    -0.352 N 
HETATM   27  C   UNL     1     -45.850  58.001 -59.019  1.00  0.00     0.222 C 
HETATM   28  O   UNL     1     -46.847  57.373 -58.675  1.00  0.00    -0.273 OA
HETATM   29  H   UNL     1     -44.446  59.406 -58.449  1.00  0.00     0.162 HD
BRANCH  27  30
HETATM   30  C   UNL     1     -44.984  57.639 -60.230  1.00  0.00     0.078 C 
HETATM   31  C   UNL     1     -43.531  58.113 -60.071  1.00  0.00     0.014 C 
HETATM   32  C   UNL     1     -42.708  57.247 -59.118  1.00  0.00     0.001 C 
HETATM   33  C   UNL     1     -42.794  55.767 -59.473  1.00  0.00     0.000 C 
HETATM   34  C   UNL     1     -44.240  55.296 -59.560  1.00  0.00     0.001 C 
HETATM   35  C   UNL     1     -45.044  56.138 -60.549  1.00  0.00     0.014 C 
ENDBRANCH  27  30
ENDBRANCH  25  26
ENDBRANCH  22  25
ENDBRANCH  18  21
ENDBRANCH  16  17
ENDBRANCH  15  16
ENDBRANCH  12  15
ENDBRANCH   7   9
TORSDOF 8
ENDMDL
MODEL 3
REMARK VINA RESULT:      -7.9      5.967     10.379
REMARK  8 active torsions:
REMARK  status: ('A' for Active; 'I' for Inactive)
REMARK    1  A    between atoms: C_7  and  C_8 
REMARK    2  A    between atoms: C_11  and  O_12 
REMARK    3  A    between atoms: O_12  and  C_13 
REMARK    4  A    between atoms: C_13  and  C_14 
REMARK       I    between atoms: C_14  and  N_15 
REMARK    5  A    between atoms: N_15  and  N_16 
REMARK       I    between atoms: N_16  and  C_17 
REMARK    6  A    between atoms: C_17  and  C_18 
REMARK    7  A    between atoms: C_18  and  N_19 
REMARK       I    between atoms: N_19  and  C_20 
REMARK    8  A    between atoms: C_20  and  C_21 
ROOT
HETATM    1  C   UNL     1     -43.600  63.278 -41.764  1.00  0.00     0.023 A 
HETATM    2  C   UNL     1     -44.528  64.117 -41.143  1.00  0.00     0.044 A 
HETATM    3  C   UNL     1     -44.364  64.482 -39.766  1.00  0.00     0.099 C 
HETATM    4  N   UNL     1     -44.230  64.777 -38.652  1.00  0.00    -0.191 NA
HETATM    5  C   UNL     1     -45.618  64.597 -41.872  1.00  0.00     0.023 A 
HETATM    6  C   UNL     1     -45.777  64.236 -43.216  1.00  0.00     0.014 A 
HETATM    7  C   UNL     1     -44.855  63.394 -43.860  1.00  0.00    -0.026 A 
HETATM    8  C   UNL     1     -43.763  62.923 -43.108  1.00  0.00     0.014 A 
ENDROOT
BRANCH   7   9
HETATM    9  C   UNL     1     -45.026  63.013 -45.276  1.00  0.00    -0.026 A 
HETATM   10  C   UNL     1     -45.089  61.667 -45.668  1.00  0.00     0.015 A 
HETATM   11  C   UNL     1     -45.248  61.312 -47.013  1.00  0.00     0.037 A 
HETATM   12  C   UNL     1     -45.359  62.291 -48.000  1.00  0.00     0.069 A 
HETATM   13  C   UNL     1     -45.295  63.634 -47.630  1.00  0.00     0.037 A 
HETATM   14  C   UNL     1     -45.130  63.986 -46.283  1.00  0.00     0.015 A 
BRANCH  12  15
HETATM   15  O   UNL     1     -45.505  61.814 -49.274  1.00  0.00    -0.342 OA
BRANCH  15  16
HETATM   16  C   UNL     1     -44.472  62.140 -50.197  1.00  0.00     0.280 C 
BRANCH  16  17
HETATM   17  C   UNL     1     -44.003  60.926 -50.994  1.00  0.00     0.260 C 
HETATM   18  N   UNL     1     -43.401  59.934 -50.244  1.00  0.00    -0.266 N 
HETATM   19  H   UNL     1     -43.087  60.147 -49.296  1.00  0.00     0.190 HD
HETATM   20  O   UNL     1     -44.128  60.856 -52.217  1.00  0.00    -0.269 OA
BRANCH  18  21
HETATM   21  N   UNL     1     -42.687  58.946 -50.935  1.00  0.00    -0.266 N 
HETATM   22  C   UNL     1     -41.314  58.907 -50.788  1.00  0.00     0.253 C 
HETATM   23  O   UNL     1     -40.720  59.491 -49.880  1.00  0.00    -0.270 OA
HETATM   24  H   UNL     1     -43.160  58.495 -51.720  1.00  0.00     0.190 HD
BRANCH  22  25
HETATM   25  C   UNL     1     -40.604  57.990 -51.778  1.00  0.00     0.227 C 
BRANCH  25  26
HETATM   26  N   UNL     1     -41.240  56.689 -51.808  1.00  0.00    -0.352 N 
HETATM   27  C   UNL     1     -41.282  55.960 -52.976  1.00  0.00     0.222 C 
HETATM   28  O   UNL     1     -40.761  56.364 -54.011  1.00  0.00    -0.273 OA
HETATM   29  H   UNL     1     -41.902  56.474 -51.072  1.00  0.00     0.162 HD
BRANCH  27  30
HETATM   30  C   UNL     1     -42.050  54.639 -52.860  1.00  0.00     0.078 C 
HETATM   31  C   UNL     1     -41.996  53.817 -54.156  1.00  0.00     0.014 C 
HETATM   32  C   UNL     1     -40.656  53.114 -54.376  1.00  0.00     0.001 C 
HETATM   33  C   UNL     1     -40.231  52.300 -53.161  1.00  0.00     0.000 C 
HETATM   34  C   UNL     1     -40.224  53.147 -51.894  1.00  0.00     0.001 C 
HETATM   35  C   UNL     1     -41.581  53.808 -51.657  1.00  0.00     0.014 C 
ENDBRANCH  27  30
ENDBRANCH  25  26
ENDBRANCH  22  25
ENDBRANCH  18  21
ENDBRANCH  16  17
ENDBRANCH  15  16
ENDBRANCH  12  15
ENDBRANCH   7   9
TORSDOF 8
ENDMDL
MODEL 4
REMARK VINA RESULT:      -7.9      1.250      1.935
REMARK  8 active torsions:
REMARK  status: ('A' for Active; 'I' for Inactive)
REMARK    1  A    between atoms: C_7  and  C_8 
REMARK    2  A    between atoms: C_11  and  O_12 
REMARK    3  A    between atoms: O_12  and  C_13 
REMARK    4  A    between atoms: C_13  and  C_14 
REMARK       I    between atoms: C_14  and  N_15 
REMARK    5  A    between atoms: N_15  and  N_16 
REMARK       I    between atoms: N_16  and  C_17 
REMARK    6  A    between atoms: C_17  and  C_18 
REMARK    7  A    between atoms: C_18  and  N_19 
REMARK       I    between atoms: N_19  and  C_20 
REMARK    8  A    between atoms: C_20  and  C_21 
ROOT
HETATM    1  C   UNL     1     -39.898  52.198 -52.288  1.00  0.00     0.023 A 
HETATM    2  C   UNL     1     -40.098  51.794 -53.609  1.00  0.00     0.044 A 
HETATM    3  C   UNL     1     -39.730  50.472 -54.024  1.00  0.00     0.099 C 
HETATM    4  N   UNL     1     -39.432  49.401 -54.359  1.00  0.00    -0.191 NA
HETATM    5  C   UNL     1     -40.658  52.688 -54.525  1.00  0.00     0.023 A 
HETATM    6  C   UNL     1     -41.014  53.979 -54.118  1.00  0.00     0.014 A 
HETATM    7  C   UNL     1     -40.821  54.406 -52.793  1.00  0.00    -0.026 A 
HETATM    8  C   UNL     1     -40.257  53.490 -51.886  1.00  0.00     0.014 A 
ENDROOT
BRANCH   7   9
HETATM    9  C   UNL     1     -41.194  55.769 -52.367  1.00  0.00    -0.026 A 
HETATM   10  C   UNL     1     -41.683  56.024 -51.076  1.00  0.00     0.015 A 
HETATM   11  C   UNL     1     -42.039  57.318 -50.679  1.00  0.00     0.037 A 
HETATM   12  C   UNL     1     -41.907  58.394 -51.557  1.00  0.00     0.069 A 
HETATM   13  C   UNL     1     -41.427  58.160 -52.845  1.00  0.00     0.037 A 
HETATM   14  C   UNL     1     -41.077  56.862 -53.242  1.00  0.00     0.015 A 
BRANCH  12  15
HETATM   15  O   UNL     1     -42.293  59.605 -51.050  1.00  0.00    -0.342 OA
BRANCH  15  16
HETATM   16  C   UNL     1     -43.684  59.901 -51.103  1.00  0.00     0.280 C 
BRANCH  16  17
HETATM   17  C   UNL     1     -44.182  60.087 -52.533  1.00  0.00     0.260 C 
HETATM   18  N   UNL     1     -45.205  59.239 -52.910  1.00  0.00    -0.266 N 
HETATM   19  H   UNL     1     -45.401  58.412 -52.343  1.00  0.00     0.190 HD
HETATM   20  O   UNL     1     -43.682  60.912 -53.299  1.00  0.00    -0.269 OA
BRANCH  18  21
HETATM   21  N   UNL     1     -45.499  59.147 -54.277  1.00  0.00    -0.266 N 
HETATM   22  C   UNL     1     -45.032  58.051 -54.974  1.00  0.00     0.253 C 
HETATM   23  O   UNL     1     -44.630  57.026 -54.422  1.00  0.00    -0.270 OA
HETATM   24  H   UNL     1     -45.785  60.007 -54.749  1.00  0.00     0.190 HD
BRANCH  22  25
HETATM   25  C   UNL     1     -45.160  58.172 -56.490  1.00  0.00     0.227 C 
BRANCH  25  26
HETATM   26  N   UNL     1     -43.868  58.440 -57.086  1.00  0.00    -0.352 N 
HETATM   27  C   UNL     1     -43.533  57.889 -58.304  1.00  0.00     0.222 C 
HETATM   28  O   UNL     1     -44.318  57.187 -58.934  1.00  0.00    -0.273 OA
HETATM   29  H   UNL     1     -43.127  58.764 -56.475  1.00  0.00     0.162 HD
BRANCH  27  30
HETATM   30  C   UNL     1     -42.108  58.210 -58.765  1.00  0.00     0.078 C 
HETATM   31  C   UNL     1     -41.968  58.179 -60.294  1.00  0.00     0.014 C 
HETATM   32  C   UNL     1     -42.558  59.408 -60.985  1.00  0.00     0.001 C 
HETATM   33  C   UNL     1     -42.033  60.708 -60.386  1.00  0.00     0.000 C 
HETATM   34  C   UNL     1     -42.241  60.752 -58.877  1.00  0.00     0.001 C 
HETATM   35  C   UNL     1     -41.608  59.544 -58.190  1.00  0.00     0.014 C 
ENDBRANCH  27  30
ENDBRANCH  25  26
ENDBRANCH  22  25
ENDBRANCH  18  21
ENDBRANCH  16  17
ENDBRANCH  15  16
ENDBRANCH  12  15
ENDBRANCH   7   9
TORSDOF 8
ENDMDL
MODEL 5
REMARK VINA RESULT:      -7.8      1.724      2.047
REMARK  8 active torsions:
REMARK  status: ('A' for Active; 'I' for Inactive)
REMARK    1  A    between atoms: C_7  and  C_8 
REMARK    2  A    between atoms: C_11  and  O_12 
REMARK    3  A    between atoms: O_12  and  C_13 
REMARK    4  A    between atoms: C_13  and  C_14 
REMARK       I    between atoms: C_14  and  N_15 
REMARK    5  A    between atoms: N_15  and  N_16 
REMARK       I    between atoms: N_16  and  C_17 
REMARK    6  A    between atoms: C_17  and  C_18 
REMARK    7  A    between atoms: C_18  and  N_19 
REMARK       I    between atoms: N_19  and  C_20 
REMARK    8  A    between atoms: C_20  and  C_21 
ROOT
HETATM    1  C   UNL     1     -41.028  52.377 -54.355  1.00  0.00     0.023 A 
HETATM    2  C   UNL     1     -40.208  51.646 -53.493  1.00  0.00     0.044 A 
HETATM    3  C   UNL     1     -39.679  50.378 -53.902  1.00  0.00     0.099 C 
HETATM    4  N   UNL     1     -39.251  49.351 -54.233  1.00  0.00    -0.191 NA
HETATM    5  C   UNL     1     -39.908  52.158 -52.229  1.00  0.00     0.023 A 
HETATM    6  C   UNL     1     -40.428  53.395 -51.831  1.00  0.00     0.014 A 
HETATM    7  C   UNL     1     -41.255  54.148 -52.683  1.00  0.00    -0.026 A 
HETATM    8  C   UNL     1     -41.543  53.615 -53.953  1.00  0.00     0.014 A 
ENDROOT
BRANCH   7   9
HETATM    9  C   UNL     1     -41.805  55.451 -52.261  1.00  0.00    -0.026 A 
HETATM   10  C   UNL     1     -42.988  55.960 -52.817  1.00  0.00     0.015 A 
HETATM   11  C   UNL     1     -43.503  57.198 -52.415  1.00  0.00     0.037 A 
HETATM   12  C   UNL     1     -42.855  57.957 -51.440  1.00  0.00     0.069 A 
HETATM   13  C   UNL     1     -41.676  57.469 -50.878  1.00  0.00     0.037 A 
HETATM   14  C   UNL     1     -41.159  56.231 -51.287  1.00  0.00     0.015 A 
BRANCH  12  15
HETATM   15  O   UNL     1     -43.456  59.148 -51.139  1.00  0.00    -0.342 OA
BRANCH  15  16
HETATM   16  C   UNL     1     -42.677  60.322 -51.344  1.00  0.00     0.280 C 
BRANCH  16  17
HETATM   17  C   UNL     1     -42.502  60.648 -52.825  1.00  0.00     0.260 C 
HETATM   18  N   UNL     1     -43.516  61.405 -53.379  1.00  0.00    -0.266 N 
HETATM   19  H   UNL     1     -44.402  61.494 -52.878  1.00  0.00     0.190 HD
HETATM   20  O   UNL     1     -41.541  60.238 -53.478  1.00  0.00    -0.269 OA
BRANCH  18  21
HETATM   21  N   UNL     1     -43.574  61.484 -54.777  1.00  0.00    -0.266 N 
HETATM   22  C   UNL     1     -44.567  60.781 -55.431  1.00  0.00     0.253 C 
HETATM   23  O   UNL     1     -45.560  60.332 -54.858  1.00  0.00    -0.270 OA
HETATM   24  H   UNL     1     -42.734  61.809 -55.258  1.00  0.00     0.190 HD
BRANCH  22  25
HETATM   25  C   UNL     1     -44.386  60.704 -56.943  1.00  0.00     0.227 C 
BRANCH  25  26
HETATM   26  N   UNL     1     -43.402  59.698 -57.284  1.00  0.00    -0.352 N 
HETATM   27  C   UNL     1     -43.121  59.414 -58.603  1.00  0.00     0.222 C 
HETATM   28  O   UNL     1     -43.663  60.017 -59.524  1.00  0.00    -0.273 OA
HETATM   29  H   UNL     1     -43.166  59.013 -56.575  1.00  0.00     0.162 HD
BRANCH  27  30
HETATM   30  C   UNL     1     -42.111  58.279 -58.797  1.00  0.00     0.078 C 
HETATM   31  C   UNL     1     -42.215  57.212 -57.697  1.00  0.00     0.014 C 
HETATM   32  C   UNL     1     -43.416  56.282 -57.861  1.00  0.00     0.001 C 
HETATM   33  C   UNL     1     -43.483  55.676 -59.258  1.00  0.00     0.000 C 
HETATM   34  C   UNL     1     -43.449  56.752 -60.336  1.00  0.00     0.001 C 
HETATM   35  C   UNL     1     -42.220  57.648 -60.193  1.00  0.00     0.014 C 
ENDBRANCH  27  30
ENDBRANCH  25  26
ENDBRANCH  22  25
ENDBRANCH  18  21
ENDBRANCH  16  17
ENDBRANCH  15  16
ENDBRANCH  12  15
ENDBRANCH   7   9
TORSDOF 8
ENDMDL
MODEL 6
REMARK VINA RESULT:      -7.6      4.462      6.191
REMARK  8 active torsions:
REMARK  status: ('A' for Active; 'I' for Inactive)
REMARK    1  A    between atoms: C_7  and  C_8 
REMARK    2  A    between atoms: C_11  and  O_12 
REMARK    3  A    between atoms: O_12  and  C_13 
REMARK    4  A    between atoms: C_13  and  C_14 
REMARK       I    between atoms: C_14  and  N_15 
REMARK    5  A    between atoms: N_15  and  N_16 
REMARK       I    between atoms: N_16  and  C_17 
REMARK    6  A    between atoms: C_17  and  C_18 
REMARK    7  A    between atoms: C_18  and  N_19 
REMARK       I    between atoms: N_19  and  C_20 
REMARK    8  A    between atoms: C_20  and  C_21 
ROOT
HETATM    1  C   UNL     1     -40.282  52.839 -54.713  1.00  0.00     0.023 A 
HETATM    2  C   UNL     1     -40.112  51.887 -53.706  1.00  0.00     0.044 A 
HETATM    3  C   UNL     1     -39.819  50.525 -54.042  1.00  0.00     0.099 C 
HETATM    4  N   UNL     1     -39.582  49.422 -54.315  1.00  0.00    -0.191 NA
HETATM    5  C   UNL     1     -40.230  52.271 -52.368  1.00  0.00     0.023 A 
HETATM    6  C   UNL     1     -40.519  53.602 -52.043  1.00  0.00     0.014 A 
HETATM    7  C   UNL     1     -40.694  54.576 -53.041  1.00  0.00    -0.026 A 
HETATM    8  C   UNL     1     -40.569  54.169 -54.381  1.00  0.00     0.014 A 
ENDROOT
BRANCH   7   9
HETATM    9  C   UNL     1     -41.002  55.978 -52.695  1.00  0.00    -0.026 A 
HETATM   10  C   UNL     1     -40.986  56.991 -53.666  1.00  0.00     0.015 A 
HETATM   11  C   UNL     1     -41.274  58.319 -53.332  1.00  0.00     0.037 A 
HETATM   12  C   UNL     1     -41.597  58.670 -52.021  1.00  0.00     0.069 A 
HETATM   13  C   UNL     1     -41.614  57.678 -51.041  1.00  0.00     0.037 A 
HETATM   14  C   UNL     1     -41.318  56.349 -51.378  1.00  0.00     0.015 A 
BRANCH  12  15
HETATM   15  O   UNL     1     -41.853  60.000 -51.824  1.00  0.00    -0.342 OA
BRANCH  15  16
HETATM   16  C   UNL     1     -42.462  60.352 -50.586  1.00  0.00     0.280 C 
BRANCH  16  17
HETATM   17  C   UNL     1     -43.920  60.769 -50.757  1.00  0.00     0.260 C 
HETATM   18  N   UNL     1     -44.187  61.502 -51.896  1.00  0.00    -0.266 N 
HETATM   19  H   UNL     1     -43.412  61.924 -52.411  1.00  0.00     0.190 HD
HETATM   20  O   UNL     1     -44.782  60.494 -49.921  1.00  0.00    -0.269 OA
BRANCH  18  21
HETATM   21  N   UNL     1     -45.420  62.166 -51.963  1.00  0.00    -0.266 N 
HETATM   22  C   UNL     1     -46.330  61.760 -52.919  1.00  0.00     0.253 C 
HETATM   23  O   UNL     1     -46.245  60.684 -53.512  1.00  0.00    -0.270 OA
HETATM   24  H   UNL     1     -45.478  63.082 -51.514  1.00  0.00     0.190 HD
BRANCH  22  25
HETATM   25  C   UNL     1     -47.513  62.706 -53.098  1.00  0.00     0.227 C 
BRANCH  25  26
HETATM   26  N   UNL     1     -48.758  61.966 -53.092  1.00  0.00    -0.352 N 
HETATM   27  C   UNL     1     -49.960  62.622 -53.244  1.00  0.00     0.222 C 
HETATM   28  O   UNL     1     -50.019  63.835 -53.419  1.00  0.00    -0.273 OA
HETATM   29  H   UNL     1     -48.753  61.043 -52.675  1.00  0.00     0.162 HD
BRANCH  27  30
HETATM   30  C   UNL     1     -51.186  61.708 -53.145  1.00  0.00     0.078 C 
HETATM   31  C   UNL     1     -52.241  62.251 -52.169  1.00  0.00     0.014 C 
HETATM   32  C   UNL     1     -53.052  63.416 -52.735  1.00  0.00     0.001 C 
HETATM   33  C   UNL     1     -53.645  63.090 -54.101  1.00  0.00     0.000 C 
HETATM   34  C   UNL     1     -52.575  62.618 -55.077  1.00  0.00     0.001 C 
HETATM   35  C   UNL     1     -51.801  61.424 -54.523  1.00  0.00     0.014 C 
ENDBRANCH  27  30
ENDBRANCH  25  26
ENDBRANCH  22  25
ENDBRANCH  18  21
ENDBRANCH  16  17
ENDBRANCH  15  16
ENDBRANCH  12  15
ENDBRANCH   7   9
TORSDOF 8
ENDMDL
MODEL 7
REMARK VINA RESULT:      -7.3     16.569     20.148
REMARK  8 active torsions:
REMARK  status: ('A' for Active; 'I' for Inactive)
REMARK    1  A    between atoms: C_7  and  C_8 
REMARK    2  A    between atoms: C_11  and  O_12 
REMARK    3  A    between atoms: O_12  and  C_13 
REMARK    4  A    between atoms: C_13  and  C_14 
REMARK       I    between atoms: C_14  and  N_15 
REMARK    5  A    between atoms: N_15  and  N_16 
REMARK       I    between atoms: N_16  and  C_17 
REMARK    6  A    between atoms: C_17  and  C_18 
REMARK    7  A    between atoms: C_18  and  N_19 
REMARK       I    between atoms: N_19  and  C_20 
REMARK    8  A    between atoms: C_20  and  C_21 
ROOT
HETATM    1  C   UNL     1     -38.138  38.360 -60.865  1.00  0.00     0.023 A 
HETATM    2  C   UNL     1     -39.258  37.826 -60.225  1.00  0.00     0.044 A 
HETATM    3  C   UNL     1     -40.558  37.955 -60.816  1.00  0.00     0.099 C 
HETATM    4  N   UNL     1     -41.609  38.060 -61.295  1.00  0.00    -0.191 NA
HETATM    5  C   UNL     1     -39.103  37.167 -59.004  1.00  0.00     0.023 A 
HETATM    6  C   UNL     1     -37.833  37.045 -58.427  1.00  0.00     0.014 A 
HETATM    7  C   UNL     1     -36.693  37.574 -59.055  1.00  0.00    -0.026 A 
HETATM    8  C   UNL     1     -36.870  38.233 -60.285  1.00  0.00     0.014 A 
ENDROOT
BRANCH   7   9
HETATM    9  C   UNL     1     -35.355  37.447 -58.444  1.00  0.00    -0.026 A 
HETATM   10  C   UNL     1     -35.199  37.137 -57.085  1.00  0.00     0.015 A 
HETATM   11  C   UNL     1     -33.928  37.021 -56.510  1.00  0.00     0.037 A 
HETATM   12  C   UNL     1     -32.779  37.203 -57.279  1.00  0.00     0.069 A 
HETATM   13  C   UNL     1     -32.914  37.516 -58.631  1.00  0.00     0.037 A 
HETATM   14  C   UNL     1     -34.188  37.637 -59.203  1.00  0.00     0.015 A 
BRANCH  12  15
HETATM   15  O   UNL     1     -31.599  37.068 -56.598  1.00  0.00    -0.342 OA
BRANCH  15  16
HETATM   16  C   UNL     1     -30.731  38.196 -56.604  1.00  0.00     0.280 C 
BRANCH  16  17
HETATM   17  C   UNL     1     -31.265  39.341 -55.749  1.00  0.00     0.260 C 
HETATM   18  N   UNL     1     -31.407  39.050 -54.406  1.00  0.00    -0.266 N 
HETATM   19  H   UNL     1     -31.392  38.074 -54.103  1.00  0.00     0.190 HD
HETATM   20  O   UNL     1     -31.573  40.432 -56.232  1.00  0.00    -0.269 OA
BRANCH  18  21
HETATM   21  N   UNL     1     -32.164  39.937 -53.628  1.00  0.00    -0.266 N 
HETATM   22  C   UNL     1     -33.419  39.537 -53.215  1.00  0.00     0.253 C 
HETATM   23  O   UNL     1     -33.792  38.363 -53.240  1.00  0.00    -0.270 OA
HETATM   24  H   UNL     1     -31.888  40.920 -53.645  1.00  0.00     0.190 HD
BRANCH  22  25
HETATM   25  C   UNL     1     -34.268  40.655 -52.618  1.00  0.00     0.227 C 
BRANCH  25  26
HETATM   26  N   UNL     1     -34.750  41.535 -53.662  1.00  0.00    -0.352 N 
HETATM   27  C   UNL     1     -36.010  41.365 -54.192  1.00  0.00     0.222 C 
HETATM   28  O   UNL     1     -36.772  40.494 -53.783  1.00  0.00    -0.273 OA
HETATM   29  H   UNL     1     -34.061  42.053 -54.194  1.00  0.00     0.162 HD
BRANCH  27  30
HETATM   30  C   UNL     1     -36.343  42.331 -55.333  1.00  0.00     0.078 C 
HETATM   31  C   UNL     1     -35.148  42.560 -56.271  1.00  0.00     0.014 C 
HETATM   32  C   UNL     1     -34.888  41.393 -57.223  1.00  0.00     0.001 C 
HETATM   33  C   UNL     1     -36.145  40.984 -57.983  1.00  0.00     0.000 C 
HETATM   34  C   UNL     1     -37.301  40.694 -57.034  1.00  0.00     0.001 C 
HETATM   35  C   UNL     1     -37.585  41.883 -56.118  1.00  0.00     0.014 C 
ENDBRANCH  27  30
ENDBRANCH  25  26
ENDBRANCH  22  25
ENDBRANCH  18  21
ENDBRANCH  16  17
ENDBRANCH  15  16
ENDBRANCH  12  15
ENDBRANCH   7   9
TORSDOF 8
ENDMDL
MODEL 8
REMARK VINA RESULT:      -7.2      5.489      9.623
REMARK  8 active torsions:
REMARK  status: ('A' for Active; 'I' for Inactive)
REMARK    1  A    between atoms: C_7  and  C_8 
REMARK    2  A    between atoms: C_11  and  O_12 
REMARK    3  A    between atoms: O_12  and  C_13 
REMARK    4  A    between atoms: C_13  and  C_14 
REMARK       I    between atoms: C_14  and  N_15 
REMARK    5  A    between atoms: N_15  and  N_16 
REMARK       I    between atoms: N_16  and  C_17 
REMARK    6  A    between atoms: C_17  and  C_18 
REMARK    7  A    between atoms: C_18  and  N_19 
REMARK       I    between atoms: N_19  and  C_20 
REMARK    8  A    between atoms: C_20  and  C_21 
ROOT
HETATM    1  C   UNL     1     -45.434  64.606 -43.021  1.00  0.00     0.023 A 
HETATM    2  C   UNL     1     -44.615  63.919 -42.123  1.00  0.00     0.044 A 
HETATM    3  C   UNL     1     -44.456  64.395 -40.780  1.00  0.00     0.099 C 
HETATM    4  N   UNL     1     -44.328  64.782 -39.693  1.00  0.00    -0.191 NA
HETATM    5  C   UNL     1     -43.950  62.765 -42.543  1.00  0.00     0.023 A 
HETATM    6  C   UNL     1     -44.104  62.303 -43.855  1.00  0.00     0.014 A 
HETATM    7  C   UNL     1     -44.925  62.979 -44.775  1.00  0.00    -0.026 A 
HETATM    8  C   UNL     1     -45.587  64.138 -44.332  1.00  0.00     0.014 A 
ENDROOT
BRANCH   7   9
HETATM    9  C   UNL     1     -45.084  62.493 -46.160  1.00  0.00    -0.026 A 
HETATM   10  C   UNL     1     -45.191  61.123 -46.445  1.00  0.00     0.015 A 
HETATM   11  C   UNL     1     -45.338  60.667 -47.760  1.00  0.00     0.037 A 
HETATM   12  C   UNL     1     -45.391  61.567 -48.825  1.00  0.00     0.069 A 
HETATM   13  C   UNL     1     -45.283  62.932 -48.561  1.00  0.00     0.037 A 
HETATM   14  C   UNL     1     -45.129  63.386 -47.243  1.00  0.00     0.015 A 
BRANCH  12  15
HETATM   15  O   UNL     1     -45.532  60.995 -50.060  1.00  0.00    -0.342 OA
BRANCH  15  16
HETATM   16  C   UNL     1     -44.587  61.384 -51.050  1.00  0.00     0.280 C 
BRANCH  16  17
HETATM   17  C   UNL     1     -43.670  60.233 -51.456  1.00  0.00     0.260 C 
HETATM   18  N   UNL     1     -43.347  59.357 -50.439  1.00  0.00    -0.266 N 
HETATM   19  H   UNL     1     -43.514  59.635 -49.470  1.00  0.00     0.190 HD
HETATM   20  O   UNL     1     -43.229  60.119 -52.602  1.00  0.00    -0.269 OA
BRANCH  18  21
HETATM   21  N   UNL     1     -42.286  58.469 -50.662  1.00  0.00    -0.266 N 
HETATM   22  C   UNL     1     -42.585  57.146 -50.921  1.00  0.00     0.253 C 
HETATM   23  O   UNL     1     -43.709  56.763 -51.248  1.00  0.00    -0.270 OA
HETATM   24  H   UNL     1     -41.360  58.763 -50.346  1.00  0.00     0.190 HD
BRANCH  22  25
HETATM   25  C   UNL     1     -41.379  56.212 -50.876  1.00  0.00     0.227 C 
BRANCH  25  26
HETATM   26  N   UNL     1     -41.086  55.701 -52.199  1.00  0.00    -0.352 N 
HETATM   27  C   UNL     1     -41.185  54.353 -52.464  1.00  0.00     0.222 C 
HETATM   28  O   UNL     1     -41.549  53.550 -51.611  1.00  0.00    -0.273 OA
HETATM   29  H   UNL     1     -40.526  56.281 -52.813  1.00  0.00     0.162 HD
BRANCH  27  30
HETATM   30  C   UNL     1     -40.774  53.965 -53.889  1.00  0.00     0.078 C 
HETATM   31  C   UNL     1     -41.856  53.142 -54.604  1.00  0.00     0.014 C 
HETATM   32  C   UNL     1     -43.041  53.980 -55.084  1.00  0.00     0.001 C 
HETATM   33  C   UNL     1     -42.595  55.182 -55.908  1.00  0.00     0.000 C 
HETATM   34  C   UNL     1     -41.572  56.026 -55.157  1.00  0.00     0.001 C 
HETATM   35  C   UNL     1     -40.369  55.190 -54.721  1.00  0.00     0.014 C 
ENDBRANCH  27  30
ENDBRANCH  25  26
ENDBRANCH  22  25
ENDBRANCH  18  21
ENDBRANCH  16  17
ENDBRANCH  15  16
ENDBRANCH  12  15
ENDBRANCH   7   9
TORSDOF 8
ENDMDL
MODEL 9
REMARK VINA RESULT:      -7.2      2.248      2.922
REMARK  8 active torsions:
REMARK  status: ('A' for Active; 'I' for Inactive)
REMARK    1  A    between atoms: C_7  and  C_8 
REMARK    2  A    between atoms: C_11  and  O_12 
REMARK    3  A    between atoms: O_12  and  C_13 
REMARK    4  A    between atoms: C_13  and  C_14 
REMARK       I    between atoms: C_14  and  N_15 
REMARK    5  A    between atoms: N_15  and  N_16 
REMARK       I    between atoms: N_16  and  C_17 
REMARK    6  A    between atoms: C_17  and  C_18 
REMARK    7  A    between atoms: C_18  and  N_19 
REMARK       I    between atoms: N_19  and  C_20 
REMARK    8  A    between atoms: C_20  and  C_21 
ROOT
HETATM    1  C   UNL     1     -40.281  52.803 -54.749  1.00  0.00     0.023 A 
HETATM    2  C   UNL     1     -40.097  51.910 -53.691  1.00  0.00     0.044 A 
HETATM    3  C   UNL     1     -39.773  50.539 -53.951  1.00  0.00     0.099 C 
HETATM    4  N   UNL     1     -39.511  49.428 -54.162  1.00  0.00    -0.191 NA
HETATM    5  C   UNL     1     -40.234  52.364 -52.377  1.00  0.00     0.023 A 
HETATM    6  C   UNL     1     -40.553  53.704 -52.126  1.00  0.00     0.014 A 
HETATM    7  C   UNL     1     -40.741  54.618 -53.176  1.00  0.00    -0.026 A 
HETATM    8  C   UNL     1     -40.598  54.142 -54.491  1.00  0.00     0.014 A 
ENDROOT
BRANCH   7   9
HETATM    9  C   UNL     1     -41.081  56.030 -52.909  1.00  0.00    -0.026 A 
HETATM   10  C   UNL     1     -40.587  57.066 -53.715  1.00  0.00     0.015 A 
HETATM   11  C   UNL     1     -40.909  58.403 -53.455  1.00  0.00     0.037 A 
HETATM   12  C   UNL     1     -41.742  58.740 -52.388  1.00  0.00     0.069 A 
HETATM   13  C   UNL     1     -42.240  57.725 -51.573  1.00  0.00     0.037 A 
HETATM   14  C   UNL     1     -41.911  56.387 -51.833  1.00  0.00     0.015 A 
BRANCH  12  15
HETATM   15  O   UNL     1     -41.976  60.080 -52.238  1.00  0.00    -0.342 OA
BRANCH  15  16
HETATM   16  C   UNL     1     -43.281  60.538 -52.577  1.00  0.00     0.280 C 
BRANCH  16  17
HETATM   17  C   UNL     1     -43.490  60.622 -54.086  1.00  0.00     0.260 C 
HETATM   18  N   UNL     1     -42.580  61.413 -54.758  1.00  0.00    -0.266 N 
HETATM   19  H   UNL     1     -42.000  62.067 -54.228  1.00  0.00     0.190 HD
HETATM   20  O   UNL     1     -44.422  60.048 -54.652  1.00  0.00    -0.269 OA
BRANCH  18  21
HETATM   21  N   UNL     1     -42.886  61.774 -56.077  1.00  0.00    -0.266 N 
HETATM   22  C   UNL     1     -42.137  61.223 -57.097  1.00  0.00     0.253 C 
HETATM   23  O   UNL     1     -41.421  60.232 -56.944  1.00  0.00    -0.270 OA
HETATM   24  H   UNL     1     -43.438  62.624 -56.209  1.00  0.00     0.190 HD
BRANCH  22  25
HETATM   25  C   UNL     1     -42.355  61.876 -58.458  1.00  0.00     0.227 C 
BRANCH  25  26
HETATM   26  N   UNL     1     -42.875  60.911 -59.404  1.00  0.00    -0.352 N 
HETATM   27  C   UNL     1     -44.125  60.360 -59.224  1.00  0.00     0.222 C 
HETATM   28  O   UNL     1     -44.847  60.686 -58.287  1.00  0.00    -0.273 OA
HETATM   29  H   UNL     1     -42.210  60.430 -59.998  1.00  0.00     0.162 HD
BRANCH  27  30
HETATM   30  C   UNL     1     -44.500  59.306 -60.270  1.00  0.00     0.078 C 
HETATM   31  C   UNL     1     -44.124  57.884 -59.827  1.00  0.00     0.014 C 
HETATM   32  C   UNL     1     -45.072  57.302 -58.779  1.00  0.00     0.001 C 
HETATM   33  C   UNL     1     -46.531  57.403 -59.209  1.00  0.00     0.000 C 
HETATM   34  C   UNL     1     -46.907  58.832 -59.580  1.00  0.00     0.001 C 
HETATM   35  C   UNL     1     -45.983  59.390 -60.661  1.00  0.00     0.014 C 
ENDBRANCH  27  30
ENDBRANCH  25  26
ENDBRANCH  22  25
ENDBRANCH  18  21
ENDBRANCH  16  17
ENDBRANCH  15  16
ENDBRANCH  12  15
ENDBRANCH   7   9
TORSDOF 8
ENDMDL
MODEL 10
REMARK VINA RESULT:      -7.2      3.956      9.052
REMARK  8 active torsions:
REMARK  status: ('A' for Active; 'I' for Inactive)
REMARK    1  A    between atoms: C_7  and  C_8 
REMARK    2  A    between atoms: C_11  and  O_12 
REMARK    3  A    between atoms: O_12  and  C_13 
REMARK    4  A    between atoms: C_13  and  C_14 
REMARK       I    between atoms: C_14  and  N_15 
REMARK    5  A    between atoms: N_15  and  N_16 
REMARK       I    between atoms: N_16  and  C_17 
REMARK    6  A    between atoms: C_17  and  C_18 
REMARK    7  A    between atoms: C_18  and  N_19 
REMARK       I    between atoms: N_19  and  C_20 
REMARK    8  A    between atoms: C_20  and  C_21 
ROOT
HETATM    1  C   UNL     1     -45.034  62.045 -45.476  1.00  0.00     0.023 A 
HETATM    2  C   UNL     1     -45.355  63.402 -45.394  1.00  0.00     0.044 A 
HETATM    3  C   UNL     1     -45.636  64.001 -44.123  1.00  0.00     0.099 C 
HETATM    4  N   UNL     1     -45.864  64.486 -43.093  1.00  0.00    -0.191 NA
HETATM    5  C   UNL     1     -45.401  64.170 -46.560  1.00  0.00     0.023 A 
HETATM    6  C   UNL     1     -45.129  63.581 -47.800  1.00  0.00     0.014 A 
HETATM    7  C   UNL     1     -44.804  62.217 -47.905  1.00  0.00    -0.026 A 
HETATM    8  C   UNL     1     -44.760  61.462 -46.719  1.00  0.00     0.014 A 
ENDROOT
BRANCH   7   9
HETATM    9  C   UNL     1     -44.520  61.598 -49.215  1.00  0.00    -0.026 A 
HETATM   10  C   UNL     1     -45.467  61.608 -50.249  1.00  0.00     0.015 A 
HETATM   11  C   UNL     1     -45.194  61.015 -51.487  1.00  0.00     0.037 A 
HETATM   12  C   UNL     1     -43.963  60.405 -51.729  1.00  0.00     0.069 A 
HETATM   13  C   UNL     1     -43.010  60.382 -50.712  1.00  0.00     0.037 A 
HETATM   14  C   UNL     1     -43.289  60.971 -49.471  1.00  0.00     0.015 A 
BRANCH  12  15
HETATM   15  O   UNL     1     -43.823  59.860 -52.976  1.00  0.00    -0.342 OA
BRANCH  15  16
HETATM   16  C   UNL     1     -44.921  59.096 -53.462  1.00  0.00     0.280 C 
BRANCH  16  17
HETATM   17  C   UNL     1     -44.801  57.617 -53.101  1.00  0.00     0.260 C 
HETATM   18  N   UNL     1     -44.882  57.339 -51.751  1.00  0.00    -0.266 N 
HETATM   19  H   UNL     1     -44.771  58.098 -51.077  1.00  0.00     0.190 HD
HETATM   20  O   UNL     1     -44.615  56.747 -53.953  1.00  0.00    -0.269 OA
BRANCH  18  21
HETATM   21  N   UNL     1     -44.483  56.063 -51.329  1.00  0.00    -0.266 N 
HETATM   22  C   UNL     1     -43.135  55.827 -51.144  1.00  0.00     0.253 C 
HETATM   23  O   UNL     1     -42.303  56.729 -51.047  1.00  0.00    -0.270 OA
HETATM   24  H   UNL     1     -45.153  55.302 -51.454  1.00  0.00     0.190 HD
BRANCH  22  25
HETATM   25  C   UNL     1     -42.777  54.356 -50.956  1.00  0.00     0.227 C 
BRANCH  25  26
HETATM   26  N   UNL     1     -41.703  53.979 -51.851  1.00  0.00    -0.352 N 
HETATM   27  C   UNL     1     -40.784  53.024 -51.475  1.00  0.00     0.222 C 
HETATM   28  O   UNL     1     -40.858  52.443 -50.397  1.00  0.00    -0.273 OA
HETATM   29  H   UNL     1     -41.461  54.626 -52.593  1.00  0.00     0.162 HD
BRANCH  27  30
HETATM   30  C   UNL     1     -39.671  52.789 -52.502  1.00  0.00     0.078 C 
HETATM   31  C   UNL     1     -38.963  51.442 -52.298  1.00  0.00     0.014 C 
HETATM   32  C   UNL     1     -39.779  50.244 -52.784  1.00  0.00     0.001 C 
HETATM   33  C   UNL     1     -40.264  50.427 -54.218  1.00  0.00     0.000 C 
HETATM   34  C   UNL     1     -41.024  51.737 -54.388  1.00  0.00     0.001 C 
HETATM   35  C   UNL     1     -40.184  52.933 -53.943  1.00  0.00     0.014 C 
ENDBRANCH  27  30
ENDBRANCH  25  26
ENDBRANCH  22  25
ENDBRANCH  18  21
ENDBRANCH  16  17
ENDBRANCH  15  16
ENDBRANCH  12  15
ENDBRANCH   7   9
TORSDOF 8
ENDMDL
