MODEL 1
REMARK VINA RESULT:      -8.1      0.000      0.000
REMARK  9 active torsions:
REMARK  status: ('A' for Active; 'I' for Inactive)
REMARK    1  A    between atoms: C_2  and  N_3 
REMARK    2  A    between atoms: N_3  and  C_5 
REMARK    3  A    between atoms: N_3  and  C_33 
REMARK    4  A    between atoms: C_5  and  C_6 
REMARK    5  A    between atoms: C_6  and  N_7 
REMARK       I    between atoms: N_7  and  C_8 
REMARK    6  A    between atoms: C_8  and  C_9 
REMARK    7  A    between atoms: N_15  and  C_16 
REMARK    8  A    between atoms: C_16  and  C_17 
REMARK       I    between atoms: C_17  and  N_18 
REMARK    9  A    between atoms: N_18  and  C_19 
ROOT
HETATM    1  C   UNL     1     -43.825  60.418 -50.402  1.00  0.00     0.081 A 
HETATM    2  S   UNL     1     -42.189  60.838 -50.706  1.00  0.00    -0.063 SA
HETATM    3  C   UNL     1     -41.998  59.589 -51.837  1.00  0.00     0.116 A 
HETATM    4  C   UNL     1     -43.148  58.848 -51.987  1.00  0.00     0.075 A 
HETATM    5  C   UNL     1     -43.133  57.793 -52.995  1.00  0.00     0.262 A 
HETATM    6  O   UNL     1     -44.112  57.095 -53.244  1.00  0.00    -0.267 OA
HETATM    7  N   UNL     1     -41.918  57.663 -53.665  1.00  0.00    -0.299 N 
HETATM    8  C   UNL     1     -40.847  58.494 -53.395  1.00  0.00     0.214 A 
HETATM    9  N   UNL     1     -40.827  59.429 -52.499  1.00  0.00    -0.235 NA
HETATM   10  C   UNL     1     -44.210  59.283 -51.108  1.00  0.00    -0.021 A 
HETATM   11  C   UNL     1     -45.567  58.650 -51.034  1.00  0.00     0.051 C 
ENDROOT
BRANCH   7  12
HETATM   12  C   UNL     1     -41.857  56.753 -54.798  1.00  0.00     0.236 C 
BRANCH  12  13
HETATM   13  C   UNL     1     -40.916  55.589 -54.457  1.00  0.00     0.240 C 
HETATM   14  N   UNL     1     -41.494  54.663 -53.602  1.00  0.00    -0.326 N 
HETATM   15  H   UNL     1     -42.445  54.836 -53.299  1.00  0.00     0.169 HD
HETATM   16  O   UNL     1     -39.761  55.565 -54.873  1.00  0.00    -0.271 OA
BRANCH  14  17
HETATM   17  C   UNL     1     -40.904  53.480 -53.103  1.00  0.00     0.036 A 
HETATM   18  C   UNL     1     -40.544  52.389 -53.894  1.00  0.00     0.053 A 
HETATM   19  C   UNL     1     -39.973  51.247 -53.317  1.00  0.00     0.042 A 
HETATM   20 CL   UNL     1     -39.570  49.930 -54.364  1.00  0.00    -0.084 Cl
HETATM   21  C   UNL     1     -39.744  51.176 -51.936  1.00  0.00    -0.040 A 
HETATM   22  C   UNL     1     -39.138  49.962 -51.290  1.00  0.00     0.050 C 
HETATM   23  C   UNL     1     -40.108  52.273 -51.145  1.00  0.00     0.011 A 
HETATM   24  C   UNL     1     -40.683  53.410 -51.722  1.00  0.00     0.030 A 
ENDBRANCH  14  17
ENDBRANCH  12  13
ENDBRANCH   7  12
BRANCH   1  25
HETATM   25  C   UNL     1     -44.604  61.226 -49.478  1.00  0.00     0.259 C 
HETATM   26  N   UNL     1     -44.517  60.858 -48.143  1.00  0.00    -0.355 N 
HETATM   27  H   UNL     1     -43.766  60.202 -47.942  1.00  0.00     0.162 HD
HETATM   28  O   UNL     1     -45.315  62.174 -49.802  1.00  0.00    -0.267 OA
BRANCH  26  29
HETATM   29  C   UNL     1     -44.910  61.770 -47.076  1.00  0.00     0.150 C 
BRANCH  29  30
HETATM   30  C   UNL     1     -45.020  61.130 -45.678  1.00  0.00     0.254 C 
BRANCH  30  31
HETATM   31  N   UNL     1     -44.810  62.158 -44.571  1.00  0.00    -0.070 N 
HETATM   32  H   UNL     1     -45.607  61.993 -43.938  1.00  0.00     0.279 HD
BRANCH  31  33
HETATM   33  C   UNL     1     -44.952  63.586 -45.055  1.00  0.00     0.230 C 
HETATM   34  C   UNL     1     -46.299  64.164 -44.659  1.00  0.00     0.034 C 
ENDBRANCH  31  33
BRANCH  31  35
HETATM   35  C   UNL     1     -43.580  61.944 -43.717  1.00  0.00     0.230 C 
HETATM   36  C   UNL     1     -43.453  62.973 -42.608  1.00  0.00     0.034 C 
ENDBRANCH  31  35
ENDBRANCH  30  31
ENDBRANCH  29  30
ENDBRANCH  26  29
ENDBRANCH   1  25
TORSDOF 9
ENDMDL
MODEL 2
REMARK VINA RESULT:      -8.1      4.803      8.335
REMARK  9 active torsions:
REMARK  status: ('A' for Active; 'I' for Inactive)
REMARK    1  A    between atoms: C_2  and  N_3 
REMARK    2  A    between atoms: N_3  and  C_5 
REMARK    3  A    between atoms: N_3  and  C_33 
REMARK    4  A    between atoms: C_5  and  C_6 
REMARK    5  A    between atoms: C_6  and  N_7 
REMARK       I    between atoms: N_7  and  C_8 
REMARK    6  A    between atoms: C_8  and  C_9 
REMARK    7  A    between atoms: N_15  and  C_16 
REMARK    8  A    between atoms: C_16  and  C_17 
REMARK       I    between atoms: C_17  and  N_18 
REMARK    9  A    between atoms: N_18  and  C_19 
ROOT
HETATM    1  C   UNL     1     -43.392  58.829 -55.171  1.00  0.00     0.081 A 
HETATM    2  S   UNL     1     -41.858  59.530 -54.853  1.00  0.00    -0.063 SA
HETATM    3  C   UNL     1     -41.726  58.748 -53.354  1.00  0.00     0.116 A 
HETATM    4  C   UNL     1     -42.826  57.968 -53.079  1.00  0.00     0.075 A 
HETATM    5  C   UNL     1     -42.793  57.180 -51.852  1.00  0.00     0.262 A 
HETATM    6  O   UNL     1     -43.700  56.419 -51.524  1.00  0.00    -0.267 OA
HETATM    7  N   UNL     1     -41.633  57.349 -51.098  1.00  0.00    -0.299 N 
HETATM    8  C   UNL     1     -40.609  58.178 -51.516  1.00  0.00     0.214 A 
HETATM    9  N   UNL     1     -40.616  58.898 -52.591  1.00  0.00    -0.235 NA
HETATM   10  C   UNL     1     -43.839  58.052 -54.106  1.00  0.00    -0.021 A 
HETATM   11  C   UNL     1     -45.154  57.332 -54.068  1.00  0.00     0.051 C 
ENDROOT
BRANCH   7  12
HETATM   12  C   UNL     1     -41.435  56.482 -49.946  1.00  0.00     0.236 C 
BRANCH  12  13
HETATM   13  C   UNL     1     -40.632  55.249 -50.378  1.00  0.00     0.240 C 
HETATM   14  N   UNL     1     -41.223  54.561 -51.428  1.00  0.00    -0.326 N 
HETATM   15  H   UNL     1     -42.093  54.927 -51.795  1.00  0.00     0.169 HD
HETATM   16  O   UNL     1     -39.613  54.914 -49.780  1.00  0.00    -0.271 OA
BRANCH  14  17
HETATM   17  C   UNL     1     -40.739  53.394 -52.062  1.00  0.00     0.036 A 
HETATM   18  C   UNL     1     -40.264  52.272 -51.382  1.00  0.00     0.053 A 
HETATM   19  C   UNL     1     -39.791  51.158 -52.089  1.00  0.00     0.042 A 
HETATM   20 CL   UNL     1     -39.203  49.813 -51.174  1.00  0.00    -0.084 Cl
HETATM   21  C   UNL     1     -39.790  51.142 -53.491  1.00  0.00    -0.040 A 
HETATM   22  C   UNL     1     -39.283  49.964 -54.274  1.00  0.00     0.050 C 
HETATM   23  C   UNL     1     -40.266  52.272 -54.168  1.00  0.00     0.011 A 
HETATM   24  C   UNL     1     -40.733  53.385 -53.461  1.00  0.00     0.030 A 
ENDBRANCH  14  17
ENDBRANCH  12  13
ENDBRANCH   7  12
BRANCH   1  25
HETATM   25  C   UNL     1     -44.050  59.108 -56.438  1.00  0.00     0.259 C 
HETATM   26  N   UNL     1     -44.194  58.020 -57.287  1.00  0.00    -0.355 N 
HETATM   27  H   UNL     1     -44.011  57.123 -56.847  1.00  0.00     0.162 HD
HETATM   28  O   UNL     1     -44.460  60.211 -56.787  1.00  0.00    -0.267 OA
BRANCH  26  29
HETATM   29  C   UNL     1     -45.146  58.039 -58.391  1.00  0.00     0.150 C 
BRANCH  29  30
HETATM   30  C   UNL     1     -44.533  58.317 -59.777  1.00  0.00     0.254 C 
BRANCH  30  31
HETATM   31  N   UNL     1     -44.192  57.024 -60.511  1.00  0.00    -0.070 N 
HETATM   32  H   UNL     1     -44.166  57.311 -61.501  1.00  0.00     0.279 HD
BRANCH  31  33
HETATM   33  C   UNL     1     -45.285  55.980 -60.408  1.00  0.00     0.230 C 
HETATM   34  C   UNL     1     -44.719  54.642 -59.965  1.00  0.00     0.034 C 
ENDBRANCH  31  33
BRANCH  31  35
HETATM   35  C   UNL     1     -42.815  56.465 -60.228  1.00  0.00     0.230 C 
HETATM   36  C   UNL     1     -41.762  57.549 -60.091  1.00  0.00     0.034 C 
ENDBRANCH  31  35
ENDBRANCH  30  31
ENDBRANCH  29  30
ENDBRANCH  26  29
ENDBRANCH   1  25
TORSDOF 9
ENDMDL
MODEL 3
REMARK VINA RESULT:      -7.5      1.618      2.005
REMARK  9 active torsions:
REMARK  status: ('A' for Active; 'I' for Inactive)
REMARK    1  A    between atoms: C_2  and  N_3 
REMARK    2  A    between atoms: N_3  and  C_5 
REMARK    3  A    between atoms: N_3  and  C_33 
REMARK    4  A    between atoms: C_5  and  C_6 
REMARK    5  A    between atoms: C_6  and  N_7 
REMARK       I    between atoms: N_7  and  C_8 
REMARK    6  A    between atoms: C_8  and  C_9 
REMARK    7  A    between atoms: N_15  and  C_16 
REMARK    8  A    between atoms: C_16  and  C_17 
REMARK       I    between atoms: C_17  and  N_18 
REMARK    9  A    between atoms: N_18  and  C_19 
ROOT
HETATM    1  C   UNL     1     -44.401  60.117 -51.645  1.00  0.00     0.081 A 
HETATM    2  S   UNL     1     -43.323  60.997 -52.648  1.00  0.00    -0.063 SA
HETATM    3  C   UNL     1     -42.839  59.602 -53.483  1.00  0.00     0.116 A 
HETATM    4  C   UNL     1     -43.471  58.473 -53.013  1.00  0.00     0.075 A 
HETATM    5  C   UNL     1     -43.197  57.220 -53.707  1.00  0.00     0.262 A 
HETATM    6  O   UNL     1     -43.734  56.158 -53.402  1.00  0.00    -0.267 OA
HETATM    7  N   UNL     1     -42.294  57.338 -54.762  1.00  0.00    -0.299 N 
HETATM    8  C   UNL     1     -41.742  58.556 -55.112  1.00  0.00     0.214 A 
HETATM    9  N   UNL     1     -41.955  59.681 -54.507  1.00  0.00    -0.235 NA
HETATM   10  C   UNL     1     -44.344  58.749 -51.895  1.00  0.00    -0.021 A 
HETATM   11  C   UNL     1     -45.144  57.713 -51.163  1.00  0.00     0.051 C 
ENDROOT
BRANCH   7  12
HETATM   12  C   UNL     1     -42.086  56.180 -55.616  1.00  0.00     0.236 C 
BRANCH  12  13
HETATM   13  C   UNL     1     -41.065  55.245 -54.954  1.00  0.00     0.240 C 
HETATM   14  N   UNL     1     -41.658  54.172 -54.305  1.00  0.00    -0.326 N 
HETATM   15  H   UNL     1     -42.670  54.110 -54.333  1.00  0.00     0.169 HD
HETATM   16  O   UNL     1     -39.864  55.503 -54.971  1.00  0.00    -0.271 OA
BRANCH  14  17
HETATM   17  C   UNL     1     -41.006  53.132 -53.606  1.00  0.00     0.036 A 
HETATM   18  C   UNL     1     -40.538  51.960 -54.202  1.00  0.00     0.053 A 
HETATM   19  C   UNL     1     -39.911  50.970 -53.434  1.00  0.00     0.042 A 
HETATM   20 CL   UNL     1     -39.373  49.540 -54.245  1.00  0.00    -0.084 Cl
HETATM   21  C   UNL     1     -39.732  51.136 -52.054  1.00  0.00    -0.040 A 
HETATM   22  C   UNL     1     -39.068  50.089 -51.204  1.00  0.00     0.050 C 
HETATM   23  C   UNL     1     -40.205  52.313 -51.459  1.00  0.00     0.011 A 
HETATM   24  C   UNL     1     -40.836  53.297 -52.227  1.00  0.00     0.030 A 
ENDBRANCH  14  17
ENDBRANCH  12  13
ENDBRANCH   7  12
BRANCH   1  25
HETATM   25  C   UNL     1     -45.211  60.834 -50.673  1.00  0.00     0.259 C 
HETATM   26  N   UNL     1     -44.878  60.618 -49.344  1.00  0.00    -0.355 N 
HETATM   27  H   UNL     1     -43.986  60.149 -49.210  1.00  0.00     0.162 HD
HETATM   28  O   UNL     1     -46.142  61.584 -50.953  1.00  0.00    -0.267 OA
BRANCH  26  29
HETATM   29  C   UNL     1     -45.317  61.528 -48.293  1.00  0.00     0.150 C 
BRANCH  29  30
HETATM   30  C   UNL     1     -44.792  61.198 -46.882  1.00  0.00     0.254 C 
BRANCH  30  31
HETATM   31  N   UNL     1     -45.933  61.036 -45.881  1.00  0.00    -0.070 N 
HETATM   32  H   UNL     1     -45.594  61.544 -45.050  1.00  0.00     0.279 HD
BRANCH  31  33
HETATM   33  C   UNL     1     -46.133  59.601 -45.440  1.00  0.00     0.230 C 
HETATM   34  C   UNL     1     -47.570  59.161 -45.659  1.00  0.00     0.034 C 
ENDBRANCH  31  33
BRANCH  31  35
HETATM   35  C   UNL     1     -47.226  61.722 -46.260  1.00  0.00     0.230 C 
HETATM   36  C   UNL     1     -47.336  63.121 -45.683  1.00  0.00     0.034 C 
ENDBRANCH  31  35
ENDBRANCH  30  31
ENDBRANCH  29  30
ENDBRANCH  26  29
ENDBRANCH   1  25
TORSDOF 9
ENDMDL
MODEL 4
REMARK VINA RESULT:      -7.4      4.298      5.731
REMARK  9 active torsions:
REMARK  status: ('A' for Active; 'I' for Inactive)
REMARK    1  A    between atoms: C_2  and  N_3 
REMARK    2  A    between atoms: N_3  and  C_5 
REMARK    3  A    between atoms: N_3  and  C_33 
REMARK    4  A    between atoms: C_5  and  C_6 
REMARK    5  A    between atoms: C_6  and  N_7 
REMARK       I    between atoms: N_7  and  C_8 
REMARK    6  A    between atoms: C_8  and  C_9 
REMARK    7  A    between atoms: N_15  and  C_16 
REMARK    8  A    between atoms: C_16  and  C_17 
REMARK       I    between atoms: C_17  and  N_18 
REMARK    9  A    between atoms: N_18  and  C_19 
ROOT
HETATM    1  C   UNL     1     -46.148  60.845 -52.639  1.00  0.00     0.081 A 
HETATM    2  S   UNL     1     -45.843  59.902 -51.238  1.00  0.00    -0.063 SA
HETATM    3  C   UNL     1     -44.777  58.875 -52.068  1.00  0.00     0.116 A 
HETATM    4  C   UNL     1     -44.650  59.225 -53.393  1.00  0.00     0.075 A 
HETATM    5  C   UNL     1     -43.696  58.464 -54.193  1.00  0.00     0.262 A 
HETATM    6  O   UNL     1     -43.470  58.712 -55.374  1.00  0.00    -0.267 OA
HETATM    7  N   UNL     1     -43.047  57.450 -53.492  1.00  0.00    -0.299 N 
HETATM    8  C   UNL     1     -43.289  57.224 -52.150  1.00  0.00     0.214 A 
HETATM    9  N   UNL     1     -44.138  57.872 -51.419  1.00  0.00    -0.235 NA
HETATM   10  C   UNL     1     -45.494  60.340 -53.759  1.00  0.00    -0.021 A 
HETATM   11  C   UNL     1     -45.584  60.924 -55.136  1.00  0.00     0.051 C 
ENDROOT
BRANCH   7  12
HETATM   12  C   UNL     1     -41.961  56.747 -54.158  1.00  0.00     0.236 C 
BRANCH  12  13
HETATM   13  C   UNL     1     -41.975  55.275 -53.724  1.00  0.00     0.240 C 
HETATM   14  N   UNL     1     -40.721  54.809 -53.358  1.00  0.00    -0.326 N 
HETATM   15  H   UNL     1     -39.947  55.461 -53.408  1.00  0.00     0.169 HD
HETATM   16  O   UNL     1     -43.005  54.608 -53.777  1.00  0.00    -0.271 OA
BRANCH  14  17
HETATM   17  C   UNL     1     -40.393  53.511 -52.906  1.00  0.00     0.036 A 
HETATM   18  C   UNL     1     -40.118  52.433 -53.749  1.00  0.00     0.053 A 
HETATM   19  C   UNL     1     -39.811  51.173 -53.218  1.00  0.00     0.042 A 
HETATM   20 CL   UNL     1     -39.498  49.885 -54.330  1.00  0.00    -0.084 Cl
HETATM   21  C   UNL     1     -39.767  50.967 -51.833  1.00  0.00    -0.040 A 
HETATM   22  C   UNL     1     -39.447  49.625 -51.237  1.00  0.00     0.050 C 
HETATM   23  C   UNL     1     -40.047  52.051 -50.991  1.00  0.00     0.011 A 
HETATM   24  C   UNL     1     -40.358  53.307 -51.522  1.00  0.00     0.030 A 
ENDBRANCH  14  17
ENDBRANCH  12  13
ENDBRANCH   7  12
BRANCH   1  25
HETATM   25  C   UNL     1     -47.022  62.003 -52.537  1.00  0.00     0.259 C 
HETATM   26  N   UNL     1     -48.347  61.782 -52.883  1.00  0.00    -0.355 N 
HETATM   27  H   UNL     1     -48.595  60.800 -52.970  1.00  0.00     0.162 HD
HETATM   28  O   UNL     1     -46.664  63.123 -52.185  1.00  0.00    -0.267 OA
BRANCH  26  29
HETATM   29  C   UNL     1     -49.402  62.703 -52.478  1.00  0.00     0.150 C 
BRANCH  29  30
HETATM   30  C   UNL     1     -50.526  62.905 -53.514  1.00  0.00     0.254 C 
BRANCH  30  31
HETATM   31  N   UNL     1     -51.790  62.143 -53.127  1.00  0.00    -0.070 N 
HETATM   32  H   UNL     1     -51.478  61.543 -52.348  1.00  0.00     0.279 HD
BRANCH  31  33
HETATM   33  C   UNL     1     -52.269  61.202 -54.212  1.00  0.00     0.230 C 
HETATM   34  C   UNL     1     -53.054  61.951 -55.274  1.00  0.00     0.034 C 
ENDBRANCH  31  33
BRANCH  31  35
HETATM   35  C   UNL     1     -52.902  62.990 -52.548  1.00  0.00     0.230 C 
HETATM   36  C   UNL     1     -52.963  62.917 -51.034  1.00  0.00     0.034 C 
ENDBRANCH  31  35
ENDBRANCH  30  31
ENDBRANCH  29  30
ENDBRANCH  26  29
ENDBRANCH   1  25
TORSDOF 9
ENDMDL
MODEL 5
REMARK VINA RESULT:      -7.2      5.200      6.215
REMARK  9 active torsions:
REMARK  status: ('A' for Active; 'I' for Inactive)
REMARK    1  A    between atoms: C_2  and  N_3 
REMARK    2  A    between atoms: N_3  and  C_5 
REMARK    3  A    between atoms: N_3  and  C_33 
REMARK    4  A    between atoms: C_5  and  C_6 
REMARK    5  A    between atoms: C_6  and  N_7 
REMARK       I    between atoms: N_7  and  C_8 
REMARK    6  A    between atoms: C_8  and  C_9 
REMARK    7  A    between atoms: N_15  and  C_16 
REMARK    8  A    between atoms: C_16  and  C_17 
REMARK       I    between atoms: C_17  and  N_18 
REMARK    9  A    between atoms: N_18  and  C_19 
ROOT
HETATM    1  C   UNL     1     -45.840  60.951 -54.739  1.00  0.00     0.081 A 
HETATM    2  S   UNL     1     -45.219  60.337 -53.262  1.00  0.00    -0.063 SA
HETATM    3  C   UNL     1     -44.434  59.050 -54.038  1.00  0.00     0.116 A 
HETATM    4  C   UNL     1     -44.637  59.066 -55.399  1.00  0.00     0.075 A 
HETATM    5  C   UNL     1     -43.944  58.053 -56.188  1.00  0.00     0.262 A 
HETATM    6  O   UNL     1     -44.019  57.995 -57.412  1.00  0.00    -0.267 OA
HETATM    7  N   UNL     1     -43.172  57.174 -55.432  1.00  0.00    -0.299 N 
HETATM    8  C   UNL     1     -43.070  57.292 -54.059  1.00  0.00     0.214 A 
HETATM    9  N   UNL     1     -43.682  58.171 -53.332  1.00  0.00    -0.235 NA
HETATM   10  C   UNL     1     -45.510  60.138 -55.820  1.00  0.00    -0.021 A 
HETATM   11  C   UNL     1     -45.929  60.390 -57.237  1.00  0.00     0.051 C 
ENDROOT
BRANCH   7  12
HETATM   12  C   UNL     1     -42.314  56.236 -56.140  1.00  0.00     0.236 C 
BRANCH  12  13
HETATM   13  C   UNL     1     -42.238  54.926 -55.344  1.00  0.00     0.240 C 
HETATM   14  N   UNL     1     -40.995  54.719 -54.764  1.00  0.00    -0.326 N 
HETATM   15  H   UNL     1     -40.286  55.428 -54.914  1.00  0.00     0.169 HD
HETATM   16  O   UNL     1     -43.187  54.147 -55.312  1.00  0.00    -0.271 OA
BRANCH  14  17
HETATM   17  C   UNL     1     -40.599  53.623 -53.966  1.00  0.00     0.036 A 
HETATM   18  C   UNL     1     -40.239  52.373 -54.473  1.00  0.00     0.053 A 
HETATM   19  C   UNL     1     -39.868  51.334 -53.610  1.00  0.00     0.042 A 
HETATM   20 CL   UNL     1     -39.452  49.810 -54.316  1.00  0.00    -0.084 Cl
HETATM   21  C   UNL     1     -39.843  51.525 -52.222  1.00  0.00    -0.040 A 
HETATM   22  C   UNL     1     -39.455  50.426 -51.273  1.00  0.00     0.050 C 
HETATM   23  C   UNL     1     -40.207  52.780 -51.717  1.00  0.00     0.011 A 
HETATM   24  C   UNL     1     -40.582  53.815 -52.580  1.00  0.00     0.030 A 
ENDBRANCH  14  17
ENDBRANCH  12  13
ENDBRANCH   7  12
BRANCH   1  25
HETATM   25  C   UNL     1     -46.621  62.177 -54.724  1.00  0.00     0.259 C 
HETATM   26  N   UNL     1     -47.966  62.025 -54.419  1.00  0.00    -0.355 N 
HETATM   27  H   UNL     1     -48.205  61.110 -54.044  1.00  0.00     0.162 HD
HETATM   28  O   UNL     1     -46.176  63.296 -54.966  1.00  0.00    -0.267 OA
BRANCH  26  29
HETATM   29  C   UNL     1     -48.782  63.155 -53.992  1.00  0.00     0.150 C 
BRANCH  29  30
HETATM   30  C   UNL     1     -50.277  63.053 -54.350  1.00  0.00     0.254 C 
BRANCH  30  31
HETATM   31  N   UNL     1     -50.774  61.612 -54.284  1.00  0.00    -0.070 N 
HETATM   32  H   UNL     1     -49.919  61.074 -54.077  1.00  0.00     0.279 HD
BRANCH  31  33
HETATM   33  C   UNL     1     -51.278  61.099 -55.616  1.00  0.00     0.230 C 
HETATM   34  C   UNL     1     -52.681  60.531 -55.485  1.00  0.00     0.034 C 
ENDBRANCH  31  33
BRANCH  31  35
HETATM   35  C   UNL     1     -51.716  61.306 -53.140  1.00  0.00     0.230 C 
HETATM   36  C   UNL     1     -52.072  62.539 -52.331  1.00  0.00     0.034 C 
ENDBRANCH  31  35
ENDBRANCH  30  31
ENDBRANCH  29  30
ENDBRANCH  26  29
ENDBRANCH   1  25
TORSDOF 9
ENDMDL
MODEL 6
REMARK VINA RESULT:      -7.2      4.801      8.962
REMARK  9 active torsions:
REMARK  status: ('A' for Active; 'I' for Inactive)
REMARK    1  A    between atoms: C_2  and  N_3 
REMARK    2  A    between atoms: N_3  and  C_5 
REMARK    3  A    between atoms: N_3  and  C_33 
REMARK    4  A    between atoms: C_5  and  C_6 
REMARK    5  A    between atoms: C_6  and  N_7 
REMARK       I    between atoms: N_7  and  C_8 
REMARK    6  A    between atoms: C_8  and  C_9 
REMARK    7  A    between atoms: N_15  and  C_16 
REMARK    8  A    between atoms: C_16  and  C_17 
REMARK       I    between atoms: C_17  and  N_18 
REMARK    9  A    between atoms: N_18  and  C_19 
ROOT
HETATM    1  C   UNL     1     -43.537  59.095 -57.175  1.00  0.00     0.081 A 
HETATM    2  S   UNL     1     -42.059  59.884 -56.806  1.00  0.00    -0.063 SA
HETATM    3  C   UNL     1     -42.218  59.573 -55.146  1.00  0.00     0.116 A 
HETATM    4  C   UNL     1     -43.377  58.888 -54.858  1.00  0.00     0.075 A 
HETATM    5  C   UNL     1     -43.587  58.491 -53.470  1.00  0.00     0.262 A 
HETATM    6  O   UNL     1     -44.564  57.843 -53.103  1.00  0.00    -0.267 OA
HETATM    7  N   UNL     1     -42.572  58.890 -52.603  1.00  0.00    -0.299 N 
HETATM    8  C   UNL     1     -41.462  59.579 -53.054  1.00  0.00     0.214 A 
HETATM    9  N   UNL     1     -41.254  59.957 -54.274  1.00  0.00    -0.235 NA
HETATM   10  C   UNL     1     -44.191  58.653 -56.029  1.00  0.00    -0.021 A 
HETATM   11  C   UNL     1     -45.517  57.953 -56.018  1.00  0.00     0.051 C 
ENDROOT
BRANCH   7  12
HETATM   12  C   UNL     1     -42.610  58.399 -51.234  1.00  0.00     0.236 C 
BRANCH  12  13
HETATM   13  C   UNL     1     -41.621  57.234 -51.092  1.00  0.00     0.240 C 
HETATM   14  N   UNL     1     -42.123  56.038 -51.585  1.00  0.00    -0.326 N 
HETATM   15  H   UNL     1     -43.056  56.050 -51.979  1.00  0.00     0.169 HD
HETATM   16  O   UNL     1     -40.538  57.386 -50.533  1.00  0.00    -0.271 OA
BRANCH  14  17
HETATM   17  C   UNL     1     -41.469  54.786 -51.611  1.00  0.00     0.036 A 
HETATM   18  C   UNL     1     -41.037  54.152 -52.777  1.00  0.00     0.053 A 
HETATM   19  C   UNL     1     -40.405  52.903 -52.716  1.00  0.00     0.042 A 
HETATM   20 CL   UNL     1     -39.913  52.175 -54.206  1.00  0.00    -0.084 Cl
HETATM   21  C   UNL     1     -40.186  52.265 -51.487  1.00  0.00    -0.040 A 
HETATM   22  C   UNL     1     -39.516  50.923 -51.393  1.00  0.00     0.050 C 
HETATM   23  C   UNL     1     -40.624  52.905 -50.320  1.00  0.00     0.011 A 
HETATM   24  C   UNL     1     -41.259  54.149 -50.383  1.00  0.00     0.030 A 
ENDBRANCH  14  17
ENDBRANCH  12  13
ENDBRANCH   7  12
BRANCH   1  25
HETATM   25  C   UNL     1     -43.953  58.983 -58.564  1.00  0.00     0.259 C 
HETATM   26  N   UNL     1     -44.013  57.692 -59.067  1.00  0.00    -0.355 N 
HETATM   27  H   UNL     1     -43.958  56.967 -58.356  1.00  0.00     0.162 HD
HETATM   28  O   UNL     1     -44.234  59.932 -59.291  1.00  0.00    -0.267 OA
BRANCH  26  29
HETATM   29  C   UNL     1     -44.760  57.382 -60.279  1.00  0.00     0.150 C 
BRANCH  29  30
HETATM   30  C   UNL     1     -46.271  57.156 -60.075  1.00  0.00     0.254 C 
BRANCH  30  31
HETATM   31  N   UNL     1     -47.084  57.698 -61.247  1.00  0.00    -0.070 N 
HETATM   32  H   UNL     1     -46.370  57.874 -61.971  1.00  0.00     0.279 HD
BRANCH  31  33
HETATM   33  C   UNL     1     -47.720  59.041 -60.955  1.00  0.00     0.230 C 
HETATM   34  C   UNL     1     -47.602  59.389 -59.481  1.00  0.00     0.034 C 
ENDBRANCH  31  33
BRANCH  31  35
HETATM   35  C   UNL     1     -48.045  56.714 -61.876  1.00  0.00     0.230 C 
HETATM   36  C   UNL     1     -49.185  57.398 -62.608  1.00  0.00     0.034 C 
ENDBRANCH  31  35
ENDBRANCH  30  31
ENDBRANCH  29  30
ENDBRANCH  26  29
ENDBRANCH   1  25
TORSDOF 9
ENDMDL
MODEL 7
REMARK VINA RESULT:      -7.1      4.337      8.466
REMARK  9 active torsions:
REMARK  status: ('A' for Active; 'I' for Inactive)
REMARK    1  A    between atoms: C_2  and  N_3 
REMARK    2  A    between atoms: N_3  and  C_5 
REMARK    3  A    between atoms: N_3  and  C_33 
REMARK    4  A    between atoms: C_5  and  C_6 
REMARK    5  A    between atoms: C_6  and  N_7 
REMARK       I    between atoms: N_7  and  C_8 
REMARK    6  A    between atoms: C_8  and  C_9 
REMARK    7  A    between atoms: N_15  and  C_16 
REMARK    8  A    between atoms: C_16  and  C_17 
REMARK       I    between atoms: C_17  and  N_18 
REMARK    9  A    between atoms: N_18  and  C_19 
ROOT
HETATM    1  C   UNL     1     -44.147  59.906 -56.521  1.00  0.00     0.081 A 
HETATM    2  S   UNL     1     -43.029  61.079 -55.957  1.00  0.00    -0.063 SA
HETATM    3  C   UNL     1     -43.006  60.419 -54.395  1.00  0.00     0.116 A 
HETATM    4  C   UNL     1     -43.837  59.327 -54.283  1.00  0.00     0.075 A 
HETATM    5  C   UNL     1     -43.842  58.622 -53.006  1.00  0.00     0.262 A 
HETATM    6  O   UNL     1     -44.512  57.613 -52.804  1.00  0.00    -0.267 OA
HETATM    7  N   UNL     1     -43.001  59.179 -52.045  1.00  0.00    -0.299 N 
HETATM    8  C   UNL     1     -42.222  60.289 -52.317  1.00  0.00     0.214 A 
HETATM    9  N   UNL     1     -42.207  60.943 -53.434  1.00  0.00    -0.235 NA
HETATM   10  C   UNL     1     -44.560  59.050 -55.504  1.00  0.00    -0.021 A 
HETATM   11  C   UNL     1     -45.552  57.939 -55.674  1.00  0.00     0.051 C 
ENDROOT
BRANCH   7  12
HETATM   12  C   UNL     1     -42.811  58.453 -50.799  1.00  0.00     0.236 C 
BRANCH  12  13
HETATM   13  C   UNL     1     -41.725  57.387 -50.999  1.00  0.00     0.240 C 
HETATM   14  N   UNL     1     -42.247  56.124 -51.236  1.00  0.00    -0.326 N 
HETATM   15  H   UNL     1     -43.256  56.031 -51.256  1.00  0.00     0.169 HD
HETATM   16  O   UNL     1     -40.535  57.666 -50.886  1.00  0.00    -0.271 OA
BRANCH  14  17
HETATM   17  C   UNL     1     -41.523  54.933 -51.467  1.00  0.00     0.036 A 
HETATM   18  C   UNL     1     -41.203  54.442 -52.733  1.00  0.00     0.053 A 
HETATM   19  C   UNL     1     -40.491  53.244 -52.875  1.00  0.00     0.042 A 
HETATM   20 CL   UNL     1     -40.148  52.695 -54.479  1.00  0.00    -0.084 Cl
HETATM   21  C   UNL     1     -40.077  52.515 -51.751  1.00  0.00    -0.040 A 
HETATM   22  C   UNL     1     -39.317  51.225 -51.874  1.00  0.00     0.050 C 
HETATM   23  C   UNL     1     -40.402  53.010 -50.482  1.00  0.00     0.011 A 
HETATM   24  C   UNL     1     -41.118  54.204 -50.342  1.00  0.00     0.030 A 
ENDBRANCH  14  17
ENDBRANCH  12  13
ENDBRANCH   7  12
BRANCH   1  25
HETATM   25  C   UNL     1     -44.548  59.924 -57.918  1.00  0.00     0.259 C 
HETATM   26  N   UNL     1     -43.763  59.166 -58.775  1.00  0.00    -0.355 N 
HETATM   27  H   UNL     1     -43.127  58.530 -58.301  1.00  0.00     0.162 HD
HETATM   28  O   UNL     1     -45.502  60.555 -58.366  1.00  0.00    -0.267 OA
BRANCH  26  29
HETATM   29  C   UNL     1     -44.239  58.774 -60.095  1.00  0.00     0.150 C 
BRANCH  29  30
HETATM   30  C   UNL     1     -43.671  57.443 -60.625  1.00  0.00     0.254 C 
BRANCH  30  31
HETATM   31  N   UNL     1     -44.559  56.262 -60.247  1.00  0.00    -0.070 N 
HETATM   32  H   UNL     1     -44.779  55.827 -61.156  1.00  0.00     0.279 HD
BRANCH  31  33
HETATM   33  C   UNL     1     -45.888  56.687 -59.656  1.00  0.00     0.230 C 
HETATM   34  C   UNL     1     -47.040  56.269 -60.553  1.00  0.00     0.034 C 
ENDBRANCH  31  33
BRANCH  31  35
HETATM   35  C   UNL     1     -43.880  55.173 -59.446  1.00  0.00     0.230 C 
HETATM   36  C   UNL     1     -43.339  55.675 -58.120  1.00  0.00     0.034 C 
ENDBRANCH  31  35
ENDBRANCH  30  31
ENDBRANCH  29  30
ENDBRANCH  26  29
ENDBRANCH   1  25
TORSDOF 9
ENDMDL
MODEL 8
REMARK VINA RESULT:      -7.1      5.474      9.010
REMARK  9 active torsions:
REMARK  status: ('A' for Active; 'I' for Inactive)
REMARK    1  A    between atoms: C_2  and  N_3 
REMARK    2  A    between atoms: N_3  and  C_5 
REMARK    3  A    between atoms: N_3  and  C_33 
REMARK    4  A    between atoms: C_5  and  C_6 
REMARK    5  A    between atoms: C_6  and  N_7 
REMARK       I    between atoms: N_7  and  C_8 
REMARK    6  A    between atoms: C_8  and  C_9 
REMARK    7  A    between atoms: N_15  and  C_16 
REMARK    8  A    between atoms: C_16  and  C_17 
REMARK       I    between atoms: C_17  and  N_18 
REMARK    9  A    between atoms: N_18  and  C_19 
ROOT
HETATM    1  C   UNL     1     -42.894  57.086 -52.182  1.00  0.00     0.081 A 
HETATM    2  S   UNL     1     -44.513  57.641 -52.054  1.00  0.00    -0.063 SA
HETATM    3  C   UNL     1     -44.285  58.817 -53.255  1.00  0.00     0.116 A 
HETATM    4  C   UNL     1     -43.001  58.807 -53.751  1.00  0.00     0.075 A 
HETATM    5  C   UNL     1     -42.705  59.721 -54.849  1.00  0.00     0.262 A 
HETATM    6  O   UNL     1     -41.606  59.772 -55.396  1.00  0.00    -0.267 OA
HETATM    7  N   UNL     1     -43.784  60.513 -55.237  1.00  0.00    -0.299 N 
HETATM    8  C   UNL     1     -45.022  60.401 -54.633  1.00  0.00     0.214 A 
HETATM    9  N   UNL     1     -45.310  59.610 -53.650  1.00  0.00    -0.235 NA
HETATM   10  C   UNL     1     -42.156  57.840 -53.089  1.00  0.00    -0.021 A 
HETATM   11  C   UNL     1     -40.706  57.620 -53.401  1.00  0.00     0.051 C 
ENDROOT
BRANCH   7  12
HETATM   12  C   UNL     1     -43.634  61.334 -56.429  1.00  0.00     0.236 C 
BRANCH  12  13
HETATM   13  C   UNL     1     -44.093  60.530 -57.653  1.00  0.00     0.240 C 
HETATM   14  N   UNL     1     -43.881  59.167 -57.513  1.00  0.00    -0.326 N 
HETATM   15  H   UNL     1     -43.462  58.845 -56.648  1.00  0.00     0.169 HD
HETATM   16  O   UNL     1     -44.535  61.093 -58.652  1.00  0.00    -0.271 OA
BRANCH  14  17
HETATM   17  C   UNL     1     -44.195  58.155 -58.448  1.00  0.00     0.036 A 
HETATM   18  C   UNL     1     -45.495  57.772 -58.782  1.00  0.00     0.053 A 
HETATM   19  C   UNL     1     -45.720  56.749 -59.712  1.00  0.00     0.042 A 
HETATM   20 CL   UNL     1     -47.360  56.322 -60.060  1.00  0.00    -0.084 Cl
HETATM   21  C   UNL     1     -44.648  56.092 -60.333  1.00  0.00    -0.040 A 
HETATM   22  C   UNL     1     -44.861  54.988 -61.331  1.00  0.00     0.050 C 
HETATM   23  C   UNL     1     -43.346  56.478 -59.993  1.00  0.00     0.011 A 
HETATM   24  C   UNL     1     -43.123  57.496 -59.060  1.00  0.00     0.030 A 
ENDBRANCH  14  17
ENDBRANCH  12  13
ENDBRANCH   7  12
BRANCH   1  25
HETATM   25  C   UNL     1     -42.465  55.960 -51.367  1.00  0.00     0.259 C 
HETATM   26  N   UNL     1     -42.600  54.712 -51.956  1.00  0.00    -0.355 N 
HETATM   27  H   UNL     1     -42.790  54.742 -52.955  1.00  0.00     0.162 HD
HETATM   28  O   UNL     1     -42.016  56.050 -50.228  1.00  0.00    -0.267 OA
BRANCH  26  29
HETATM   29  C   UNL     1     -41.880  53.550 -51.449  1.00  0.00     0.150 C 
BRANCH  29  30
HETATM   30  C   UNL     1     -40.362  53.556 -51.713  1.00  0.00     0.254 C 
BRANCH  30  31
HETATM   31  N   UNL     1     -40.010  52.798 -52.989  1.00  0.00    -0.070 N 
HETATM   32  H   UNL     1     -39.142  53.255 -53.307  1.00  0.00     0.279 HD
BRANCH  31  33
HETATM   33  C   UNL     1     -41.020  53.006 -54.098  1.00  0.00     0.230 C 
HETATM   34  C   UNL     1     -40.560  54.089 -55.058  1.00  0.00     0.034 C 
ENDBRANCH  31  33
BRANCH  31  35
HETATM   35  C   UNL     1     -39.639  51.344 -52.795  1.00  0.00     0.230 C 
HETATM   36  C   UNL     1     -39.958  50.493 -54.011  1.00  0.00     0.034 C 
ENDBRANCH  31  35
ENDBRANCH  30  31
ENDBRANCH  29  30
ENDBRANCH  26  29
ENDBRANCH   1  25
TORSDOF 9
ENDMDL
MODEL 9
REMARK VINA RESULT:      -7.0      4.742      8.455
REMARK  9 active torsions:
REMARK  status: ('A' for Active; 'I' for Inactive)
REMARK    1  A    between atoms: C_2  and  N_3 
REMARK    2  A    between atoms: N_3  and  C_5 
REMARK    3  A    between atoms: N_3  and  C_33 
REMARK    4  A    between atoms: C_5  and  C_6 
REMARK    5  A    between atoms: C_6  and  N_7 
REMARK       I    between atoms: N_7  and  C_8 
REMARK    6  A    between atoms: C_8  and  C_9 
REMARK    7  A    between atoms: N_15  and  C_16 
REMARK    8  A    between atoms: C_16  and  C_17 
REMARK       I    between atoms: C_17  and  N_18 
REMARK    9  A    between atoms: N_18  and  C_19 
ROOT
HETATM    1  C   UNL     1     -43.238  59.605 -56.878  1.00  0.00     0.081 A 
HETATM    2  S   UNL     1     -41.798  60.306 -56.262  1.00  0.00    -0.063 SA
HETATM    3  C   UNL     1     -42.024  59.612 -54.731  1.00  0.00     0.116 A 
HETATM    4  C   UNL     1     -43.176  58.862 -54.669  1.00  0.00     0.075 A 
HETATM    5  C   UNL     1     -43.438  58.148 -53.424  1.00  0.00     0.262 A 
HETATM    6  O   UNL     1     -44.413  57.417 -53.268  1.00  0.00    -0.267 OA
HETATM    7  N   UNL     1     -42.473  58.346 -52.439  1.00  0.00    -0.299 N 
HETATM    8  C   UNL     1     -41.362  59.138 -52.660  1.00  0.00     0.214 A 
HETATM    9  N   UNL     1     -41.109  59.794 -53.747  1.00  0.00    -0.235 NA
HETATM   10  C   UNL     1     -43.931  58.898 -55.900  1.00  0.00    -0.021 A 
HETATM   11  C   UNL     1     -45.238  58.196 -56.119  1.00  0.00     0.051 C 
ENDROOT
BRANCH   7  12
HETATM   12  C   UNL     1     -42.559  57.547 -51.227  1.00  0.00     0.236 C 
BRANCH  12  13
HETATM   13  C   UNL     1     -41.590  56.362 -51.337  1.00  0.00     0.240 C 
HETATM   14  N   UNL     1     -41.988  55.426 -52.278  1.00  0.00    -0.326 N 
HETATM   15  H   UNL     1     -42.846  55.609 -52.786  1.00  0.00     0.169 HD
HETATM   16  O   UNL     1     -40.614  56.272 -50.597  1.00  0.00    -0.271 OA
BRANCH  14  17
HETATM   17  C   UNL     1     -41.320  54.231 -52.627  1.00  0.00     0.036 A 
HETATM   18  C   UNL     1     -40.913  53.262 -51.708  1.00  0.00     0.053 A 
HETATM   19  C   UNL     1     -40.245  52.108 -52.137  1.00  0.00     0.042 A 
HETATM   20 CL   UNL     1     -39.759  50.964 -50.934  1.00  0.00    -0.084 Cl
HETATM   21  C   UNL     1     -39.976  51.895 -53.496  1.00  0.00    -0.040 A 
HETATM   22  C   UNL     1     -39.256  50.669 -53.983  1.00  0.00     0.050 C 
HETATM   23  C   UNL     1     -40.384  52.870 -54.415  1.00  0.00     0.011 A 
HETATM   24  C   UNL     1     -41.047  54.025 -53.984  1.00  0.00     0.030 A 
ENDBRANCH  14  17
ENDBRANCH  12  13
ENDBRANCH   7  12
BRANCH   1  25
HETATM   25  C   UNL     1     -43.588  59.817 -58.273  1.00  0.00     0.259 C 
HETATM   26  N   UNL     1     -43.385  58.730 -59.111  1.00  0.00    -0.355 N 
HETATM   27  H   UNL     1     -43.210  57.856 -58.622  1.00  0.00     0.162 HD
HETATM   28  O   UNL     1     -44.028  60.867 -58.735  1.00  0.00    -0.267 OA
BRANCH  26  29
HETATM   29  C   UNL     1     -44.028  58.646 -60.417  1.00  0.00     0.150 C 
BRANCH  29  30
HETATM   30  C   UNL     1     -45.568  58.675 -60.390  1.00  0.00     0.254 C 
BRANCH  30  31
HETATM   31  N   UNL     1     -46.139  57.515 -59.580  1.00  0.00    -0.070 N 
HETATM   32  H   UNL     1     -45.358  57.249 -58.962  1.00  0.00     0.279 HD
BRANCH  31  33
HETATM   33  C   UNL     1     -46.436  56.294 -60.425  1.00  0.00     0.230 C 
HETATM   34  C   UNL     1     -47.620  56.543 -61.343  1.00  0.00     0.034 C 
ENDBRANCH  31  33
BRANCH  31  35
HETATM   35  C   UNL     1     -47.273  57.877 -58.646  1.00  0.00     0.230 C 
HETATM   36  C   UNL     1     -47.543  59.369 -58.606  1.00  0.00     0.034 C 
ENDBRANCH  31  35
ENDBRANCH  30  31
ENDBRANCH  29  30
ENDBRANCH  26  29
ENDBRANCH   1  25
TORSDOF 9
ENDMDL
MODEL 10
REMARK VINA RESULT:      -7.0      4.409      6.270
REMARK  9 active torsions:
REMARK  status: ('A' for Active; 'I' for Inactive)
REMARK    1  A    between atoms: C_2  and  N_3 
REMARK    2  A    between atoms: N_3  and  C_5 
REMARK    3  A    between atoms: N_3  and  C_33 
REMARK    4  A    between atoms: C_5  and  C_6 
REMARK    5  A    between atoms: C_6  and  N_7 
REMARK       I    between atoms: N_7  and  C_8 
REMARK    6  A    between atoms: C_8  and  C_9 
REMARK    7  A    between atoms: N_15  and  C_16 
REMARK    8  A    between atoms: C_16  and  C_17 
REMARK       I    between atoms: C_17  and  N_18 
REMARK    9  A    between atoms: N_18  and  C_19 
ROOT
HETATM    1  C   UNL     1     -45.389  60.783 -54.134  1.00  0.00     0.081 A 
HETATM    2  S   UNL     1     -45.326  59.358 -55.087  1.00  0.00    -0.063 SA
HETATM    3  C   UNL     1     -44.319  58.566 -53.975  1.00  0.00     0.116 A 
HETATM    4  C   UNL     1     -44.018  59.362 -52.893  1.00  0.00     0.075 A 
HETATM    5  C   UNL     1     -43.224  58.763 -51.826  1.00  0.00     0.262 A 
HETATM    6  O   UNL     1     -42.928  59.364 -50.797  1.00  0.00    -0.267 OA
HETATM    7  N   UNL     1     -42.851  57.442 -52.067  1.00  0.00    -0.299 N 
HETATM    8  C   UNL     1     -43.238  56.776 -53.215  1.00  0.00     0.214 A 
HETATM    9  N   UNL     1     -43.930  57.285 -54.184  1.00  0.00    -0.235 NA
HETATM   10  C   UNL     1     -44.587  60.687 -53.000  1.00  0.00    -0.021 A 
HETATM   11  C   UNL     1     -44.409  61.776 -51.986  1.00  0.00     0.051 C 
ENDROOT
BRANCH   7  12
HETATM   12  C   UNL     1     -42.202  56.708 -50.992  1.00  0.00     0.236 C 
BRANCH  12  13
HETATM   13  C   UNL     1     -42.129  55.223 -51.371  1.00  0.00     0.240 C 
HETATM   14  N   UNL     1     -40.950  54.890 -52.021  1.00  0.00    -0.326 N 
HETATM   15  H   UNL     1     -40.275  55.630 -52.175  1.00  0.00     0.169 HD
HETATM   16  O   UNL     1     -43.073  54.467 -51.156  1.00  0.00    -0.271 OA
BRANCH  14  17
HETATM   17  C   UNL     1     -40.569  53.614 -52.494  1.00  0.00     0.036 A 
HETATM   18  C   UNL     1     -40.155  52.564 -51.672  1.00  0.00     0.053 A 
HETATM   19  C   UNL     1     -39.782  51.332 -52.224  1.00  0.00     0.042 A 
HETATM   20 CL   UNL     1     -39.265  50.087 -51.139  1.00  0.00    -0.084 Cl
HETATM   21  C   UNL     1     -39.822  51.121 -53.609  1.00  0.00    -0.040 A 
HETATM   22  C   UNL     1     -39.423  49.811 -54.228  1.00  0.00     0.050 C 
HETATM   23  C   UNL     1     -40.236  52.178 -54.430  1.00  0.00     0.011 A 
HETATM   24  C   UNL     1     -40.603  53.410 -53.878  1.00  0.00     0.030 A 
ENDBRANCH  14  17
ENDBRANCH  12  13
ENDBRANCH   7  12
BRANCH   1  25
HETATM   25  C   UNL     1     -46.208  61.899 -54.580  1.00  0.00     0.259 C 
HETATM   26  N   UNL     1     -47.559  61.804 -54.281  1.00  0.00    -0.355 N 
HETATM   27  H   UNL     1     -47.785  61.072 -53.612  1.00  0.00     0.162 HD
HETATM   28  O   UNL     1     -45.788  62.877 -55.192  1.00  0.00    -0.267 OA
BRANCH  26  29
HETATM   29  C   UNL     1     -48.428  62.974 -54.309  1.00  0.00     0.150 C 
BRANCH  29  30
HETATM   30  C   UNL     1     -49.764  62.777 -55.051  1.00  0.00     0.254 C 
BRANCH  30  31
HETATM   31  N   UNL     1     -50.536  61.577 -54.511  1.00  0.00    -0.070 N 
HETATM   32  H   UNL     1     -49.806  60.860 -54.387  1.00  0.00     0.279 HD
BRANCH  31  33
HETATM   33  C   UNL     1     -51.516  61.005 -55.514  1.00  0.00     0.230 C 
HETATM   34  C   UNL     1     -52.048  62.089 -56.435  1.00  0.00     0.034 C 
ENDBRANCH  31  33
BRANCH  31  35
HETATM   35  C   UNL     1     -51.140  61.763 -53.137  1.00  0.00     0.230 C 
HETATM   36  C   UNL     1     -51.813  63.114 -52.973  1.00  0.00     0.034 C 
ENDBRANCH  31  35
ENDBRANCH  30  31
ENDBRANCH  29  30
ENDBRANCH  26  29
ENDBRANCH   1  25
TORSDOF 9
ENDMDL
