MODEL 1
REMARK VINA RESULT:      -8.4      0.000      0.000
REMARK  4 active torsions:
REMARK  status: ('A' for Active; 'I' for Inactive)
REMARK    1  A    between atoms: C_2  and  C_3 
REMARK    2  A    between atoms: C_7  and  N_8 
REMARK    3  A    between atoms: C_10  and  C_11 
REMARK    4  A    between atoms: C_21  and  C_22 
ROOT
HETATM    1  C   UNL     1     -40.058  51.718 -52.839  1.00  0.00     0.079 A 
HETATM    2  S   UNL     1     -40.409  52.927 -53.996  1.00  0.00    -0.064 SA
HETATM    3  C   UNL     1     -40.698  54.097 -52.799  1.00  0.00     0.112 A 
HETATM    4  C   UNL     1     -40.538  53.614 -51.506  1.00  0.00     0.043 A 
HETATM    5  C   UNL     1     -40.176  52.221 -51.552  1.00  0.00     0.060 A 
HETATM    6  N   UNL     1     -41.034  55.347 -53.165  1.00  0.00    -0.240 NA
HETATM    7  C   UNL     1     -41.213  56.223 -52.159  1.00  0.00     0.069 A 
HETATM    8  C   UNL     1     -41.081  55.863 -50.822  1.00  0.00     0.049 A 
HETATM    9  C   UNL     1     -40.742  54.543 -50.454  1.00  0.00     0.065 A 
ENDROOT
BRANCH   7  10
HETATM   10  C   UNL     1     -41.566  57.597 -52.579  1.00  0.00    -0.004 A 
HETATM   11  C   UNL     1     -42.204  58.475 -51.678  1.00  0.00     0.053 A 
HETATM   12  C   UNL     1     -42.522  59.751 -52.096  1.00  0.00     0.106 A 
HETATM   13  C   UNL     1     -42.240  60.187 -53.366  1.00  0.00     0.105 A 
HETATM   14  O   UNL     1     -43.130  60.706 -51.343  1.00  0.00    -0.323 OA
HETATM   15  O   UNL     1     -42.636  61.471 -53.577  1.00  0.00    -0.323 OA
HETATM   16  C   UNL     1     -41.628  59.372 -54.289  1.00  0.00     0.040 A 
HETATM   17  C   UNL     1     -43.209  61.790 -52.291  1.00  0.00     0.352 A 
HETATM   18  C   UNL     1     -41.293  58.071 -53.890  1.00  0.00     0.017 A 
ENDBRANCH   7  10
BRANCH   9  19
HETATM   19  C   UNL     1     -40.564  54.209 -48.998  1.00  0.00     0.418 C 
HETATM   20  F   UNL     1     -41.175  53.047 -48.629  1.00  0.00    -0.166 F 
HETATM   21  F   UNL     1     -39.258  54.079 -48.646  1.00  0.00    -0.166 F 
HETATM   22  F   UNL     1     -41.075  55.162 -48.167  1.00  0.00    -0.166 F 
ENDBRANCH   9  19
BRANCH   1  23
HETATM   23  C   UNL     1     -39.716  50.353 -53.235  1.00  0.00     0.164 C 
HETATM   24  C   UNL     1     -39.654  50.005 -54.705  1.00  0.00     0.097 C 
HETATM   25  O   UNL     1     -39.480  49.468 -52.406  1.00  0.00    -0.292 OA
ENDBRANCH   1  23
BRANCH   5  26
HETATM   26  N   UNL     1     -39.959  51.458 -50.455  1.00  0.00    -0.397 N 
HETATM   27  H   UNL     1     -39.335  50.652 -50.460  1.00  0.00     0.156 HD
HETATM   28  H   UNL     1     -39.985  51.902 -49.530  1.00  0.00     0.156 HD
ENDBRANCH   5  26
TORSDOF 4
ENDMDL
MODEL 2
REMARK VINA RESULT:      -8.3      3.816      8.375
REMARK  4 active torsions:
REMARK  status: ('A' for Active; 'I' for Inactive)
REMARK    1  A    between atoms: C_2  and  C_3 
REMARK    2  A    between atoms: C_7  and  N_8 
REMARK    3  A    between atoms: C_10  and  C_11 
REMARK    4  A    between atoms: C_21  and  C_22 
ROOT
HETATM    1  C   UNL     1     -42.203  59.138 -53.048  1.00  0.00     0.079 A 
HETATM    2  S   UNL     1     -41.535  57.973 -51.991  1.00  0.00    -0.064 SA
HETATM    3  C   UNL     1     -41.607  56.751 -53.168  1.00  0.00     0.112 A 
HETATM    4  C   UNL     1     -42.130  57.183 -54.380  1.00  0.00     0.043 A 
HETATM    5  C   UNL     1     -42.483  58.576 -54.285  1.00  0.00     0.060 A 
HETATM    6  N   UNL     1     -41.166  55.516 -52.866  1.00  0.00    -0.240 NA
HETATM    7  C   UNL     1     -41.226  54.613 -53.863  1.00  0.00     0.069 A 
HETATM    8  C   UNL     1     -41.728  54.923 -55.122  1.00  0.00     0.049 A 
HETATM    9  C   UNL     1     -42.199  56.220 -55.419  1.00  0.00     0.065 A 
ENDROOT
BRANCH   7  10
HETATM   10  C   UNL     1     -40.723  53.266 -53.519  1.00  0.00    -0.004 A 
HETATM   11  C   UNL     1     -40.546  52.895 -52.169  1.00  0.00     0.053 A 
HETATM   12  C   UNL     1     -40.074  51.632 -51.877  1.00  0.00     0.106 A 
HETATM   13  C   UNL     1     -39.768  50.728 -52.862  1.00  0.00     0.105 A 
HETATM   14  O   UNL     1     -39.858  51.132 -50.630  1.00  0.00    -0.323 OA
HETATM   15  O   UNL     1     -39.317  49.546 -52.364  1.00  0.00    -0.323 OA
HETATM   16  C   UNL     1     -39.912  51.037 -54.194  1.00  0.00     0.040 A 
HETATM   17  C   UNL     1     -39.369  49.813 -50.947  1.00  0.00     0.352 A 
HETATM   18  C   UNL     1     -40.390  52.314 -54.520  1.00  0.00     0.017 A 
ENDBRANCH   7  10
BRANCH   9  19
HETATM   19  C   UNL     1     -42.692  56.523 -56.808  1.00  0.00     0.418 C 
HETATM   20  F   UNL     1     -43.987  56.949 -56.845  1.00  0.00    -0.166 F 
HETATM   21  F   UNL     1     -41.958  57.486 -57.425  1.00  0.00    -0.166 F 
HETATM   22  F   UNL     1     -42.647  55.440 -57.637  1.00  0.00    -0.166 F 
ENDBRANCH   9  19
BRANCH   1  23
HETATM   23  C   UNL     1     -42.443  60.515 -52.621  1.00  0.00     0.164 C 
HETATM   24  C   UNL     1     -42.583  60.816 -51.145  1.00  0.00     0.097 C 
HETATM   25  O   UNL     1     -42.542  61.446 -53.426  1.00  0.00    -0.292 OA
ENDBRANCH   1  23
BRANCH   5  26
HETATM   26  N   UNL     1     -43.028  59.291 -55.298  1.00  0.00    -0.397 N 
HETATM   27  H   UNL     1     -43.502  58.853 -56.087  1.00  0.00     0.156 HD
HETATM   28  H   UNL     1     -43.422  60.217 -55.095  1.00  0.00     0.156 HD
ENDBRANCH   5  26
TORSDOF 4
ENDMDL
MODEL 3
REMARK VINA RESULT:      -8.2      0.872      1.736
REMARK  4 active torsions:
REMARK  status: ('A' for Active; 'I' for Inactive)
REMARK    1  A    between atoms: C_2  and  C_3 
REMARK    2  A    between atoms: C_7  and  N_8 
REMARK    3  A    between atoms: C_10  and  C_11 
REMARK    4  A    between atoms: C_21  and  C_22 
ROOT
HETATM    1  C   UNL     1     -40.082  51.621 -52.887  1.00  0.00     0.079 A 
HETATM    2  S   UNL     1     -40.418  52.770 -54.108  1.00  0.00    -0.064 SA
HETATM    3  C   UNL     1     -40.719  53.999 -52.976  1.00  0.00     0.112 A 
HETATM    4  C   UNL     1     -40.576  53.583 -51.659  1.00  0.00     0.043 A 
HETATM    5  C   UNL     1     -40.215  52.189 -51.629  1.00  0.00     0.060 A 
HETATM    6  N   UNL     1     -41.050  55.229 -53.409  1.00  0.00    -0.240 NA
HETATM    7  C   UNL     1     -41.241  56.155 -52.452  1.00  0.00     0.069 A 
HETATM    8  C   UNL     1     -41.125  55.864 -51.096  1.00  0.00     0.049 A 
HETATM    9  C   UNL     1     -40.792  54.565 -50.658  1.00  0.00     0.065 A 
ENDROOT
BRANCH   7  10
HETATM   10  C   UNL     1     -41.587  57.506 -52.946  1.00  0.00    -0.004 A 
HETATM   11  C   UNL     1     -41.704  57.749 -54.331  1.00  0.00     0.053 A 
HETATM   12  C   UNL     1     -42.027  59.018 -54.764  1.00  0.00     0.106 A 
HETATM   13  C   UNL     1     -42.234  60.052 -53.886  1.00  0.00     0.105 A 
HETATM   14  O   UNL     1     -42.179  59.402 -56.060  1.00  0.00    -0.323 OA
HETATM   15  O   UNL     1     -42.539  61.218 -54.515  1.00  0.00    -0.323 OA
HETATM   16  C   UNL     1     -42.124  59.876 -52.526  1.00  0.00     0.040 A 
HETATM   17  C   UNL     1     -42.493  60.800 -55.895  1.00  0.00     0.352 A 
HETATM   18  C   UNL     1     -41.797  58.596 -52.059  1.00  0.00     0.017 A 
ENDBRANCH   7  10
BRANCH   9  19
HETATM   19  C   UNL     1     -40.633  54.305 -49.185  1.00  0.00     0.418 C 
HETATM   20  F   UNL     1     -39.337  54.124 -48.801  1.00  0.00    -0.166 F 
HETATM   21  F   UNL     1     -41.117  55.318 -48.419  1.00  0.00    -0.166 F 
HETATM   22  F   UNL     1     -41.290  53.184 -48.768  1.00  0.00    -0.166 F 
ENDBRANCH   9  19
BRANCH   1  23
HETATM   23  C   UNL     1     -39.736  50.238 -53.208  1.00  0.00     0.164 C 
HETATM   24  C   UNL     1     -39.585  49.833 -54.657  1.00  0.00     0.097 C 
HETATM   25  O   UNL     1     -39.569  49.382 -52.333  1.00  0.00    -0.292 OA
ENDBRANCH   1  23
BRANCH   5  26
HETATM   26  N   UNL     1     -40.012  51.483 -50.491  1.00  0.00    -0.397 N 
HETATM   27  H   UNL     1     -39.737  50.502 -50.495  1.00  0.00     0.156 HD
HETATM   28  H   UNL     1     -39.645  51.969 -49.665  1.00  0.00     0.156 HD
ENDBRANCH   5  26
TORSDOF 4
ENDMDL
MODEL 4
REMARK VINA RESULT:      -8.2      3.426      7.834
REMARK  4 active torsions:
REMARK  status: ('A' for Active; 'I' for Inactive)
REMARK    1  A    between atoms: C_2  and  C_3 
REMARK    2  A    between atoms: C_7  and  N_8 
REMARK    3  A    between atoms: C_10  and  C_11 
REMARK    4  A    between atoms: C_21  and  C_22 
ROOT
HETATM    1  C   UNL     1     -43.097  57.494 -57.184  1.00  0.00     0.079 A 
HETATM    2  S   UNL     1     -42.893  55.804 -57.339  1.00  0.00    -0.064 SA
HETATM    3  C   UNL     1     -42.105  55.684 -55.839  1.00  0.00     0.112 A 
HETATM    4  C   UNL     1     -41.976  56.903 -55.185  1.00  0.00     0.043 A 
HETATM    5  C   UNL     1     -42.551  57.947 -55.992  1.00  0.00     0.060 A 
HETATM    6  N   UNL     1     -41.690  54.480 -55.406  1.00  0.00    -0.240 NA
HETATM    7  C   UNL     1     -41.104  54.464 -54.194  1.00  0.00     0.069 A 
HETATM    8  C   UNL     1     -40.918  55.617 -53.439  1.00  0.00     0.049 A 
HETATM    9  C   UNL     1     -41.347  56.875 -53.914  1.00  0.00     0.065 A 
ENDROOT
BRANCH   7  10
HETATM   10  C   UNL     1     -40.669  53.130 -53.725  1.00  0.00    -0.004 A 
HETATM   11  C   UNL     1     -40.469  52.890 -52.350  1.00  0.00     0.053 A 
HETATM   12  C   UNL     1     -40.062  51.636 -51.940  1.00  0.00     0.106 A 
HETATM   13  C   UNL     1     -39.843  50.618 -52.834  1.00  0.00     0.105 A 
HETATM   14  O   UNL     1     -39.835  51.255 -50.655  1.00  0.00    -0.323 OA
HETATM   15  O   UNL     1     -39.446  49.468 -52.228  1.00  0.00    -0.323 OA
HETATM   16  C   UNL     1     -40.014  50.799 -54.187  1.00  0.00     0.040 A 
HETATM   17  C   UNL     1     -39.434  49.882 -50.845  1.00  0.00     0.352 A 
HETATM   18  C   UNL     1     -40.427  52.062 -54.630  1.00  0.00     0.017 A 
ENDBRANCH   7  10
BRANCH   9  19
HETATM   19  C   UNL     1     -41.166  58.090 -53.045  1.00  0.00     0.418 C 
HETATM   20  F   UNL     1     -40.424  59.072 -53.632  1.00  0.00    -0.166 F 
HETATM   21  F   UNL     1     -42.347  58.664 -52.695  1.00  0.00    -0.166 F 
HETATM   22  F   UNL     1     -40.530  57.814 -51.870  1.00  0.00    -0.166 F 
ENDBRANCH   9  19
BRANCH   1  23
HETATM   23  C   UNL     1     -43.746  58.288 -58.225  1.00  0.00     0.164 C 
HETATM   24  C   UNL     1     -45.010  57.766 -58.871  1.00  0.00     0.097 C 
HETATM   25  O   UNL     1     -43.293  59.373 -58.604  1.00  0.00    -0.292 OA
ENDBRANCH   1  23
BRANCH   5  26
HETATM   26  N   UNL     1     -42.575  59.254 -55.636  1.00  0.00    -0.397 N 
HETATM   27  H   UNL     1     -43.443  59.768 -55.488  1.00  0.00     0.156 HD
HETATM   28  H   UNL     1     -41.821  59.620 -55.045  1.00  0.00     0.156 HD
ENDBRANCH   5  26
TORSDOF 4
ENDMDL
MODEL 5
REMARK VINA RESULT:      -7.8      3.146      3.713
REMARK  4 active torsions:
REMARK  status: ('A' for Active; 'I' for Inactive)
REMARK    1  A    between atoms: C_2  and  C_3 
REMARK    2  A    between atoms: C_7  and  N_8 
REMARK    3  A    between atoms: C_10  and  C_11 
REMARK    4  A    between atoms: C_21  and  C_22 
ROOT
HETATM    1  C   UNL     1     -40.136  51.940 -51.905  1.00  0.00     0.079 A 
HETATM    2  S   UNL     1     -40.239  53.075 -50.630  1.00  0.00    -0.064 SA
HETATM    3  C   UNL     1     -40.740  54.317 -51.674  1.00  0.00     0.112 A 
HETATM    4  C   UNL     1     -40.844  53.916 -52.999  1.00  0.00     0.043 A 
HETATM    5  C   UNL     1     -40.476  52.529 -53.114  1.00  0.00     0.060 A 
HETATM    6  N   UNL     1     -40.998  55.539 -51.171  1.00  0.00    -0.240 NA
HETATM    7  C   UNL     1     -41.421  56.459 -52.057  1.00  0.00     0.069 A 
HETATM    8  C   UNL     1     -41.568  56.180 -53.412  1.00  0.00     0.049 A 
HETATM    9  C   UNL     1     -41.280  54.898 -53.925  1.00  0.00     0.065 A 
ENDROOT
BRANCH   7  10
HETATM   10  C   UNL     1     -41.716  57.791 -51.485  1.00  0.00    -0.004 A 
HETATM   11  C   UNL     1     -42.948  58.424 -51.753  1.00  0.00     0.053 A 
HETATM   12  C   UNL     1     -43.196  59.667 -51.207  1.00  0.00     0.106 A 
HETATM   13  C   UNL     1     -42.277  60.306 -50.414  1.00  0.00     0.105 A 
HETATM   14  O   UNL     1     -44.333  60.395 -51.372  1.00  0.00    -0.323 OA
HETATM   15  O   UNL     1     -42.714  61.518 -49.980  1.00  0.00    -0.323 OA
HETATM   16  C   UNL     1     -41.057  59.740 -50.126  1.00  0.00     0.040 A 
HETATM   17  C   UNL     1     -44.017  61.572 -50.600  1.00  0.00     0.352 A 
HETATM   18  C   UNL     1     -40.778  58.478 -50.668  1.00  0.00     0.017 A 
ENDBRANCH   7  10
BRANCH   9  19
HETATM   19  C   UNL     1     -41.496  54.628 -55.390  1.00  0.00     0.418 C 
HETATM   20  F   UNL     1     -41.823  55.741 -56.106  1.00  0.00    -0.166 F 
HETATM   21  F   UNL     1     -40.398  54.098 -55.992  1.00  0.00    -0.166 F 
HETATM   22  F   UNL     1     -42.506  53.741 -55.624  1.00  0.00    -0.166 F 
ENDBRANCH   9  19
BRANCH   1  23
HETATM   23  C   UNL     1     -39.712  50.561 -51.673  1.00  0.00     0.164 C 
HETATM   24  C   UNL     1     -39.847  49.971 -50.287  1.00  0.00     0.097 C 
HETATM   25  O   UNL     1     -39.238  49.859 -52.572  1.00  0.00    -0.292 OA
ENDBRANCH   1  23
BRANCH   5  26
HETATM   26  N   UNL     1     -40.465  51.842 -54.281  1.00  0.00    -0.397 N 
HETATM   27  H   UNL     1     -39.686  51.886 -54.938  1.00  0.00     0.156 HD
HETATM   28  H   UNL     1     -40.937  50.931 -54.325  1.00  0.00     0.156 HD
ENDBRANCH   5  26
TORSDOF 4
ENDMDL
MODEL 6
REMARK VINA RESULT:      -7.7      4.897      6.176
REMARK  4 active torsions:
REMARK  status: ('A' for Active; 'I' for Inactive)
REMARK    1  A    between atoms: C_2  and  C_3 
REMARK    2  A    between atoms: C_7  and  N_8 
REMARK    3  A    between atoms: C_10  and  C_11 
REMARK    4  A    between atoms: C_21  and  C_22 
ROOT
HETATM    1  C   UNL     1     -41.480  54.691 -51.412  1.00  0.00     0.079 A 
HETATM    2  S   UNL     1     -42.032  53.896 -52.821  1.00  0.00    -0.064 SA
HETATM    3  C   UNL     1     -42.055  55.338 -53.718  1.00  0.00     0.112 A 
HETATM    4  C   UNL     1     -41.651  56.448 -52.988  1.00  0.00     0.043 A 
HETATM    5  C   UNL     1     -41.330  56.050 -51.642  1.00  0.00     0.060 A 
HETATM    6  N   UNL     1     -42.435  55.307 -55.008  1.00  0.00    -0.240 NA
HETATM    7  C   UNL     1     -42.395  56.484 -55.659  1.00  0.00     0.069 A 
HETATM    8  C   UNL     1     -42.006  57.667 -55.039  1.00  0.00     0.049 A 
HETATM    9  C   UNL     1     -41.624  57.685 -53.681  1.00  0.00     0.065 A 
ENDROOT
BRANCH   7  10
HETATM   10  C   UNL     1     -42.800  56.429 -57.081  1.00  0.00    -0.004 A 
HETATM   11  C   UNL     1     -43.539  55.331 -57.568  1.00  0.00     0.053 A 
HETATM   12  C   UNL     1     -43.902  55.304 -58.899  1.00  0.00     0.106 A 
HETATM   13  C   UNL     1     -43.562  56.315 -59.763  1.00  0.00     0.105 A 
HETATM   14  O   UNL     1     -44.615  54.320 -59.510  1.00  0.00    -0.323 OA
HETATM   15  O   UNL     1     -44.013  56.096 -61.026  1.00  0.00    -0.323 OA
HETATM   16  C   UNL     1     -42.835  57.405 -59.344  1.00  0.00     0.040 A 
HETATM   17  C   UNL     1     -44.673  54.823 -60.860  1.00  0.00     0.352 A 
HETATM   18  C   UNL     1     -42.453  57.458 -57.997  1.00  0.00     0.017 A 
ENDBRANCH   7  10
BRANCH   9  19
HETATM   19  C   UNL     1     -41.166  58.979 -53.064  1.00  0.00     0.418 C 
HETATM   20  F   UNL     1     -39.875  58.947 -52.629  1.00  0.00    -0.166 F 
HETATM   21  F   UNL     1     -41.252  60.029 -53.923  1.00  0.00    -0.166 F 
HETATM   22  F   UNL     1     -41.903  59.338 -51.973  1.00  0.00    -0.166 F 
ENDBRANCH   9  19
BRANCH   1  23
HETATM   23  C   UNL     1     -41.247  53.967 -50.163  1.00  0.00     0.164 C 
HETATM   24  C   UNL     1     -40.420  52.702 -50.187  1.00  0.00     0.097 C 
HETATM   25  O   UNL     1     -41.710  54.352 -49.084  1.00  0.00    -0.292 OA
ENDBRANCH   1  23
BRANCH   5  26
HETATM   26  N   UNL     1     -40.912  56.905 -50.678  1.00  0.00    -0.397 N 
HETATM   27  H   UNL     1     -41.482  57.683 -50.348  1.00  0.00     0.156 HD
HETATM   28  H   UNL     1     -40.298  56.553 -49.936  1.00  0.00     0.156 HD
ENDBRANCH   5  26
TORSDOF 4
ENDMDL
MODEL 7
REMARK VINA RESULT:      -7.7      3.324      7.938
REMARK  4 active torsions:
REMARK  status: ('A' for Active; 'I' for Inactive)
REMARK    1  A    between atoms: C_2  and  C_3 
REMARK    2  A    between atoms: C_7  and  N_8 
REMARK    3  A    between atoms: C_10  and  C_11 
REMARK    4  A    between atoms: C_21  and  C_22 
ROOT
HETATM    1  C   UNL     1     -44.634  58.455 -51.048  1.00  0.00     0.079 A 
HETATM    2  S   UNL     1     -44.711  56.754 -50.909  1.00  0.00    -0.064 SA
HETATM    3  C   UNL     1     -43.153  56.553 -51.555  1.00  0.00     0.112 A 
HETATM    4  C   UNL     1     -42.537  57.753 -51.889  1.00  0.00     0.043 A 
HETATM    5  C   UNL     1     -43.422  58.849 -51.596  1.00  0.00     0.060 A 
HETATM    6  N   UNL     1     -42.645  55.314 -51.683  1.00  0.00    -0.240 NA
HETATM    7  C   UNL     1     -41.393  55.242 -52.172  1.00  0.00     0.069 A 
HETATM    8  C   UNL     1     -40.669  56.371 -52.542  1.00  0.00     0.049 A 
HETATM    9  C   UNL     1     -41.222  57.663 -52.415  1.00  0.00     0.065 A 
ENDROOT
BRANCH   7  10
HETATM   10  C   UNL     1     -40.844  53.874 -52.291  1.00  0.00    -0.004 A 
HETATM   11  C   UNL     1     -40.831  53.218 -53.540  1.00  0.00     0.053 A 
HETATM   12  C   UNL     1     -40.313  51.941 -53.622  1.00  0.00     0.106 A 
HETATM   13  C   UNL     1     -39.815  51.290 -52.521  1.00  0.00     0.105 A 
HETATM   14  O   UNL     1     -40.229  51.189 -54.751  1.00  0.00    -0.323 OA
HETATM   15  O   UNL     1     -39.357  50.045 -52.815  1.00  0.00    -0.323 OA
HETATM   16  C   UNL     1     -39.811  51.877 -51.278  1.00  0.00     0.040 A 
HETATM   17  C   UNL     1     -39.631  49.984 -54.231  1.00  0.00     0.352 A 
HETATM   18  C   UNL     1     -40.330  53.174 -51.166  1.00  0.00     0.017 A 
ENDBRANCH   7  10
BRANCH   9  19
HETATM   19  C   UNL     1     -40.387  58.859 -52.785  1.00  0.00     0.418 C 
HETATM   20  F   UNL     1     -40.168  59.712 -51.744  1.00  0.00    -0.166 F 
HETATM   21  F   UNL     1     -39.160  58.515 -53.259  1.00  0.00    -0.166 F 
HETATM   22  F   UNL     1     -40.956  59.624 -53.761  1.00  0.00    -0.166 F 
ENDBRANCH   9  19
BRANCH   1  23
HETATM   23  C   UNL     1     -45.750  59.310 -50.647  1.00  0.00     0.164 C 
HETATM   24  C   UNL     1     -46.470  60.124 -51.698  1.00  0.00     0.097 C 
HETATM   25  O   UNL     1     -46.124  59.395 -49.473  1.00  0.00    -0.292 OA
ENDBRANCH   1  23
BRANCH   5  26
HETATM   26  N   UNL     1     -43.118  60.150 -51.819  1.00  0.00    -0.397 N 
HETATM   27  H   UNL     1     -43.117  60.849 -51.078  1.00  0.00     0.156 HD
HETATM   28  H   UNL     1     -42.435  60.380 -52.549  1.00  0.00     0.156 HD
ENDBRANCH   5  26
TORSDOF 4
ENDMDL
MODEL 8
REMARK VINA RESULT:      -7.5      2.165      2.976
REMARK  4 active torsions:
REMARK  status: ('A' for Active; 'I' for Inactive)
REMARK    1  A    between atoms: C_2  and  C_3 
REMARK    2  A    between atoms: C_7  and  N_8 
REMARK    3  A    between atoms: C_10  and  C_11 
REMARK    4  A    between atoms: C_21  and  C_22 
ROOT
HETATM    1  C   UNL     1     -40.010  51.416 -52.562  1.00  0.00     0.079 A 
HETATM    2  S   UNL     1     -40.297  52.089 -54.107  1.00  0.00    -0.064 SA
HETATM    3  C   UNL     1     -40.733  53.595 -53.455  1.00  0.00     0.112 A 
HETATM    4  C   UNL     1     -40.674  53.634 -52.068  1.00  0.00     0.043 A 
HETATM    5  C   UNL     1     -40.261  52.349 -51.566  1.00  0.00     0.060 A 
HETATM    6  N   UNL     1     -41.078  54.598 -54.283  1.00  0.00    -0.240 NA
HETATM    7  C   UNL     1     -41.378  55.769 -53.691  1.00  0.00     0.069 A 
HETATM    8  C   UNL     1     -41.354  55.936 -52.310  1.00  0.00     0.049 A 
HETATM    9  C   UNL     1     -41.003  54.870 -51.455  1.00  0.00     0.065 A 
ENDROOT
BRANCH   7  10
HETATM   10  C   UNL     1     -41.739  56.865 -54.617  1.00  0.00    -0.004 A 
HETATM   11  C   UNL     1     -42.145  56.577 -55.937  1.00  0.00     0.053 A 
HETATM   12  C   UNL     1     -42.475  57.619 -56.779  1.00  0.00     0.106 A 
HETATM   13  C   UNL     1     -42.416  58.928 -56.370  1.00  0.00     0.105 A 
HETATM   14  O   UNL     1     -42.886  57.498 -58.070  1.00  0.00    -0.323 OA
HETATM   15  O   UNL     1     -42.779  59.798 -57.349  1.00  0.00    -0.323 OA
HETATM   16  C   UNL     1     -42.019  59.267 -55.098  1.00  0.00     0.040 A 
HETATM   17  C   UNL     1     -43.067  58.884 -58.429  1.00  0.00     0.352 A 
HETATM   18  C   UNL     1     -41.678  58.228 -54.221  1.00  0.00     0.017 A 
ENDBRANCH   7  10
BRANCH   9  19
HETATM   19  C   UNL     1     -40.947  55.107 -49.970  1.00  0.00     0.418 C 
HETATM   20  F   UNL     1     -39.723  54.854 -49.426  1.00  0.00    -0.166 F 
HETATM   21  F   UNL     1     -41.255  56.387 -49.632  1.00  0.00    -0.166 F 
HETATM   22  F   UNL     1     -41.819  54.324 -49.272  1.00  0.00    -0.166 F 
ENDBRANCH   9  19
BRANCH   1  23
HETATM   23  C   UNL     1     -39.586  50.028 -52.395  1.00  0.00     0.164 C 
HETATM   24  C   UNL     1     -39.391  49.478 -51.000  1.00  0.00     0.097 C 
HETATM   25  O   UNL     1     -39.374  49.285 -53.359  1.00  0.00    -0.292 OA
ENDBRANCH   1  23
BRANCH   5  26
HETATM   26  N   UNL     1     -40.117  52.060 -50.251  1.00  0.00    -0.397 N 
HETATM   27  H   UNL     1     -40.020  52.781 -49.537  1.00  0.00     0.156 HD
HETATM   28  H   UNL     1     -40.576  51.223 -49.875  1.00  0.00     0.156 HD
ENDBRANCH   5  26
TORSDOF 4
ENDMDL
MODEL 9
REMARK VINA RESULT:      -7.5      3.886      4.924
REMARK  4 active torsions:
REMARK  status: ('A' for Active; 'I' for Inactive)
REMARK    1  A    between atoms: C_2  and  C_3 
REMARK    2  A    between atoms: C_7  and  N_8 
REMARK    3  A    between atoms: C_10  and  C_11 
REMARK    4  A    between atoms: C_21  and  C_22 
ROOT
HETATM    1  C   UNL     1     -40.645  53.243 -52.097  1.00  0.00     0.079 A 
HETATM    2  S   UNL     1     -40.944  52.919 -53.749  1.00  0.00    -0.064 SA
HETATM    3  C   UNL     1     -41.445  54.513 -54.050  1.00  0.00     0.112 A 
HETATM    4  C   UNL     1     -41.400  55.327 -52.925  1.00  0.00     0.043 A 
HETATM    5  C   UNL     1     -40.941  54.563 -51.794  1.00  0.00     0.060 A 
HETATM    6  N   UNL     1     -41.822  54.864 -55.293  1.00  0.00    -0.240 NA
HETATM    7  C   UNL     1     -42.174  56.153 -55.456  1.00  0.00     0.069 A 
HETATM    8  C   UNL     1     -42.169  57.068 -54.408  1.00  0.00     0.049 A 
HETATM    9  C   UNL     1     -41.784  56.680 -53.107  1.00  0.00     0.065 A 
ENDROOT
BRANCH   7  10
HETATM   10  C   UNL     1     -42.570  56.525 -56.832  1.00  0.00    -0.004 A 
HETATM   11  C   UNL     1     -42.461  57.863 -57.267  1.00  0.00     0.053 A 
HETATM   12  C   UNL     1     -42.838  58.182 -58.555  1.00  0.00     0.106 A 
HETATM   13  C   UNL     1     -43.319  57.236 -59.424  1.00  0.00     0.105 A 
HETATM   14  O   UNL     1     -42.786  59.421 -59.115  1.00  0.00    -0.323 OA
HETATM   15  O   UNL     1     -43.635  57.756 -60.640  1.00  0.00    -0.323 OA
HETATM   16  C   UNL     1     -43.455  55.919 -59.052  1.00  0.00     0.040 A 
HETATM   17  C   UNL     1     -43.303  59.145 -60.433  1.00  0.00     0.352 A 
HETATM   18  C   UNL     1     -43.079  55.566 -57.749  1.00  0.00     0.017 A 
ENDBRANCH   7  10
BRANCH   9  19
HETATM   19  C   UNL     1     -41.751  57.713 -52.013  1.00  0.00     0.418 C 
HETATM   20  F   UNL     1     -40.511  57.898 -51.478  1.00  0.00    -0.166 F 
HETATM   21  F   UNL     1     -42.168  58.936 -52.434  1.00  0.00    -0.166 F 
HETATM   22  F   UNL     1     -42.554  57.396 -50.957  1.00  0.00    -0.166 F 
ENDBRANCH   9  19
BRANCH   1  23
HETATM   23  C   UNL     1     -40.167  52.205 -51.186  1.00  0.00     0.164 C 
HETATM   24  C   UNL     1     -39.432  51.009 -51.749  1.00  0.00     0.097 C 
HETATM   25  O   UNL     1     -40.350  52.266 -49.965  1.00  0.00    -0.292 OA
ENDBRANCH   1  23
BRANCH   5  26
HETATM   26  N   UNL     1     -40.798  55.068 -50.546  1.00  0.00    -0.397 N 
HETATM   27  H   UNL     1     -40.452  54.514 -49.764  1.00  0.00     0.156 HD
HETATM   28  H   UNL     1     -40.551  56.058 -50.437  1.00  0.00     0.156 HD
ENDBRANCH   5  26
TORSDOF 4
ENDMDL
MODEL 10
REMARK VINA RESULT:      -7.2      3.619      4.444
REMARK  4 active torsions:
REMARK  status: ('A' for Active; 'I' for Inactive)
REMARK    1  A    between atoms: C_2  and  C_3 
REMARK    2  A    between atoms: C_7  and  N_8 
REMARK    3  A    between atoms: C_10  and  C_11 
REMARK    4  A    between atoms: C_21  and  C_22 
ROOT
HETATM    1  C   UNL     1     -40.807  53.108 -51.841  1.00  0.00     0.079 A 
HETATM    2  S   UNL     1     -41.381  54.267 -50.724  1.00  0.00    -0.064 SA
HETATM    3  C   UNL     1     -42.220  55.125 -51.926  1.00  0.00     0.112 A 
HETATM    4  C   UNL     1     -42.093  54.566 -53.191  1.00  0.00     0.043 A 
HETATM    5  C   UNL     1     -41.256  53.397 -53.122  1.00  0.00     0.060 A 
HETATM    6  N   UNL     1     -42.921  56.222 -51.588  1.00  0.00    -0.240 NA
HETATM    7  C   UNL     1     -43.584  56.826 -52.592  1.00  0.00     0.069 A 
HETATM    8  C   UNL     1     -43.538  56.363 -53.903  1.00  0.00     0.049 A 
HETATM    9  C   UNL     1     -42.787  55.218 -54.243  1.00  0.00     0.065 A 
ENDROOT
BRANCH   7  10
HETATM   10  C   UNL     1     -44.362  58.021 -52.200  1.00  0.00    -0.004 A 
HETATM   11  C   UNL     1     -44.373  59.165 -53.025  1.00  0.00     0.053 A 
HETATM   12  C   UNL     1     -45.107  60.267 -52.634  1.00  0.00     0.106 A 
HETATM   13  C   UNL     1     -45.823  60.282 -51.464  1.00  0.00     0.105 A 
HETATM   14  O   UNL     1     -45.217  61.434 -53.324  1.00  0.00    -0.323 OA
HETATM   15  O   UNL     1     -46.473  61.459 -51.264  1.00  0.00    -0.323 OA
HETATM   16  C   UNL     1     -45.841  59.198 -50.617  1.00  0.00     0.040 A 
HETATM   17  C   UNL     1     -46.076  62.189 -52.445  1.00  0.00     0.352 A 
HETATM   18  C   UNL     1     -45.105  58.066 -50.989  1.00  0.00     0.017 A 
ENDBRANCH   7  10
BRANCH   9  19
HETATM   19  C   UNL     1     -42.802  54.725 -55.665  1.00  0.00     0.418 C 
HETATM   20  F   UNL     1     -43.439  53.530 -55.820  1.00  0.00    -0.166 F 
HETATM   21  F   UNL     1     -43.414  55.593 -56.514  1.00  0.00    -0.166 F 
HETATM   22  F   UNL     1     -41.551  54.534 -56.175  1.00  0.00    -0.166 F 
ENDBRANCH   9  19
BRANCH   1  23
HETATM   23  C   UNL     1     -39.941  52.006 -51.428  1.00  0.00     0.164 C 
HETATM   24  C   UNL     1     -40.266  51.249 -50.160  1.00  0.00     0.097 C 
HETATM   25  O   UNL     1     -38.945  51.673 -52.077  1.00  0.00    -0.292 OA
ENDBRANCH   1  23
BRANCH   5  26
HETATM   26  N   UNL     1     -40.931  52.632 -54.191  1.00  0.00    -0.397 N 
HETATM   27  H   UNL     1     -41.352  52.764 -55.110  1.00  0.00     0.156 HD
HETATM   28  H   UNL     1     -39.973  52.271 -54.269  1.00  0.00     0.156 HD
ENDBRANCH   5  26
TORSDOF 4
ENDMDL
