MODEL 1
REMARK VINA RESULT:      -8.0      0.000      0.000
REMARK  5 active torsions:
REMARK  status: ('A' for Active; 'I' for Inactive)
REMARK    1  A    between atoms: C_6  and  N_7 
REMARK       I    between atoms: N_7  and  C_8 
REMARK    2  A    between atoms: C_8  and  C_9 
REMARK    3  A    between atoms: C_9  and  N_10 
REMARK    4  A    between atoms: C_12  and  C_13 
REMARK    5  A    between atoms: C_14  and  O_15 
ROOT
HETATM    1  N   UNL     1     -41.040  55.174 -52.696  1.00  0.00    -0.325 N 
HETATM    2  C   UNL     1     -42.325  55.587 -52.981  1.00  0.00     0.239 C 
HETATM    3  O   UNL     1     -43.374  54.992 -52.748  1.00  0.00    -0.271 OA
HETATM    4  H   UNL     1     -40.352  55.908 -52.575  1.00  0.00     0.169 HD
ENDROOT
BRANCH   2   5
HETATM    5  C   UNL     1     -42.375  56.962 -53.626  1.00  0.00     0.222 C 
BRANCH   5   6
HETATM    6  N   UNL     1     -42.303  56.763 -55.088  1.00  0.00    -0.389 N 
HETATM    7  H   UNL     1     -41.791  55.913 -55.390  1.00  0.00     0.159 HD
HETATM    8  C   UNL     1     -42.741  57.547 -56.006  1.00  0.00     0.097 C 
BRANCH   8   9
HETATM    9  C   UNL     1     -42.598  57.274 -57.448  1.00  0.00     0.012 A 
HETATM   10  C   UNL     1     -42.997  56.066 -58.036  1.00  0.00     0.077 A 
HETATM   11  C   UNL     1     -42.848  55.864 -59.406  1.00  0.00     0.037 A 
HETATM   12  C   UNL     1     -42.292  56.874 -60.194  1.00  0.00     0.003 A 
HETATM   13  C   UNL     1     -41.890  58.079 -59.614  1.00  0.00     0.001 A 
HETATM   14  C   UNL     1     -42.043  58.283 -58.242  1.00  0.00     0.016 A 
BRANCH  10  15
HETATM   15  O   UNL     1     -43.540  55.080 -57.253  1.00  0.00    -0.360 OA
HETATM   16  H   UNL     1     -43.850  54.359 -57.840  1.00  0.00     0.217 HD
ENDBRANCH  10  15
ENDBRANCH   8   9
ENDBRANCH   5   6
ENDBRANCH   2   5
BRANCH   1  17
HETATM   17  C   UNL     1     -40.612  53.897 -52.244  1.00  0.00     0.046 A 
HETATM   18  C   UNL     1     -40.613  53.491 -50.892  1.00  0.00    -0.034 A 
HETATM   19  C   UNL     1     -40.177  52.188 -50.564  1.00  0.00     0.015 A 
HETATM   20  C   UNL     1     -41.099  54.322 -49.735  1.00  0.00     0.050 C 
HETATM   21  C   UNL     1     -39.795  51.271 -51.542  1.00  0.00    -0.061 A 
HETATM   22  C   UNL     1     -39.393  49.872 -51.179  1.00  0.00     0.048 C 
HETATM   23  C   UNL     1     -39.847  51.660 -52.878  1.00  0.00     0.015 A 
HETATM   24  C   UNL     1     -40.244  52.958 -53.244  1.00  0.00    -0.034 A 
HETATM   25  C   UNL     1     -40.239  53.290 -54.716  1.00  0.00     0.050 C 
ENDBRANCH   1  17
TORSDOF 5
ENDMDL
MODEL 2
REMARK VINA RESULT:      -7.9      1.151      1.571
REMARK  5 active torsions:
REMARK  status: ('A' for Active; 'I' for Inactive)
REMARK    1  A    between atoms: C_6  and  N_7 
REMARK       I    between atoms: N_7  and  C_8 
REMARK    2  A    between atoms: C_8  and  C_9 
REMARK    3  A    between atoms: C_9  and  N_10 
REMARK    4  A    between atoms: C_12  and  C_13 
REMARK    5  A    between atoms: C_14  and  O_15 
ROOT
HETATM    1  N   UNL     1     -41.007  55.380 -53.067  1.00  0.00    -0.325 N 
HETATM    2  C   UNL     1     -42.286  55.892 -52.974  1.00  0.00     0.239 C 
HETATM    3  O   UNL     1     -43.292  55.325 -52.558  1.00  0.00    -0.271 OA
HETATM    4  H   UNL     1     -40.253  56.057 -53.037  1.00  0.00     0.169 HD
ENDROOT
BRANCH   2   5
HETATM    5  C   UNL     1     -42.377  57.341 -53.424  1.00  0.00     0.222 C 
BRANCH   5   6
HETATM    6  N   UNL     1     -42.201  57.356 -54.891  1.00  0.00    -0.389 N 
HETATM    7  H   UNL     1     -41.353  57.850 -55.226  1.00  0.00     0.159 HD
HETATM    8  C   UNL     1     -43.004  56.888 -55.778  1.00  0.00     0.097 C 
BRANCH   8   9
HETATM    9  C   UNL     1     -42.753  56.974 -57.229  1.00  0.00     0.012 A 
HETATM   10  C   UNL     1     -42.233  58.120 -57.844  1.00  0.00     0.077 A 
HETATM   11  C   UNL     1     -42.007  58.143 -59.219  1.00  0.00     0.037 A 
HETATM   12  C   UNL     1     -42.307  57.015 -59.984  1.00  0.00     0.003 A 
HETATM   13  C   UNL     1     -42.828  55.870 -59.378  1.00  0.00     0.001 A 
HETATM   14  C   UNL     1     -43.051  55.845 -58.000  1.00  0.00     0.016 A 
BRANCH  10  15
HETATM   15  O   UNL     1     -41.943  59.223 -57.083  1.00  0.00    -0.360 OA
HETATM   16  H   UNL     1     -41.415  59.842 -57.629  1.00  0.00     0.217 HD
ENDBRANCH  10  15
ENDBRANCH   8   9
ENDBRANCH   5   6
ENDBRANCH   2   5
BRANCH   1  17
HETATM   17  C   UNL     1     -40.588  54.035 -52.885  1.00  0.00     0.046 A 
HETATM   18  C   UNL     1     -40.452  53.408 -51.628  1.00  0.00    -0.034 A 
HETATM   19  C   UNL     1     -40.040  52.058 -51.573  1.00  0.00     0.015 A 
HETATM   20  C   UNL     1     -40.761  54.045 -50.300  1.00  0.00     0.050 C 
HETATM   21  C   UNL     1     -39.816  51.309 -52.728  1.00  0.00    -0.061 A 
HETATM   22  C   UNL     1     -39.438  49.859 -52.650  1.00  0.00     0.048 C 
HETATM   23  C   UNL     1     -40.005  51.918 -53.965  1.00  0.00     0.015 A 
HETATM   24  C   UNL     1     -40.381  53.269 -54.063  1.00  0.00    -0.034 A 
HETATM   25  C   UNL     1     -40.532  53.843 -55.450  1.00  0.00     0.050 C 
ENDBRANCH   1  17
TORSDOF 5
ENDMDL
MODEL 3
REMARK VINA RESULT:      -7.8      0.264      1.878
REMARK  5 active torsions:
REMARK  status: ('A' for Active; 'I' for Inactive)
REMARK    1  A    between atoms: C_6  and  N_7 
REMARK       I    between atoms: N_7  and  C_8 
REMARK    2  A    between atoms: C_8  and  C_9 
REMARK    3  A    between atoms: C_9  and  N_10 
REMARK    4  A    between atoms: C_12  and  C_13 
REMARK    5  A    between atoms: C_14  and  O_15 
ROOT
HETATM    1  N   UNL     1     -41.189  54.984 -52.743  1.00  0.00    -0.325 N 
HETATM    2  C   UNL     1     -42.453  55.372 -53.140  1.00  0.00     0.239 C 
HETATM    3  O   UNL     1     -43.494  54.725 -53.065  1.00  0.00    -0.271 OA
HETATM    4  H   UNL     1     -40.550  55.731 -52.497  1.00  0.00     0.169 HD
ENDROOT
BRANCH   2   5
HETATM    5  C   UNL     1     -42.491  56.788 -53.689  1.00  0.00     0.222 C 
BRANCH   5   6
HETATM    6  N   UNL     1     -42.418  56.689 -55.161  1.00  0.00    -0.389 N 
HETATM    7  H   UNL     1     -42.021  55.801 -55.522  1.00  0.00     0.159 HD
HETATM    8  C   UNL     1     -42.727  57.591 -56.022  1.00  0.00     0.097 C 
BRANCH   8   9
HETATM    9  C   UNL     1     -42.595  57.407 -57.478  1.00  0.00     0.012 A 
HETATM   10  C   UNL     1     -42.955  56.220 -58.131  1.00  0.00     0.077 A 
HETATM   11  C   UNL     1     -42.818  56.104 -59.512  1.00  0.00     0.037 A 
HETATM   12  C   UNL     1     -42.314  57.179 -60.246  1.00  0.00     0.003 A 
HETATM   13  C   UNL     1     -41.951  58.363 -59.603  1.00  0.00     0.001 A 
HETATM   14  C   UNL     1     -42.092  58.482 -58.219  1.00  0.00     0.016 A 
BRANCH  10  15
HETATM   15  O   UNL     1     -43.448  55.170 -57.400  1.00  0.00    -0.360 OA
HETATM   16  H   UNL     1     -42.834  54.413 -57.499  1.00  0.00     0.217 HD
ENDBRANCH  10  15
ENDBRANCH   8   9
ENDBRANCH   5   6
ENDBRANCH   2   5
BRANCH   1  17
HETATM   17  C   UNL     1     -40.758  53.693 -52.336  1.00  0.00     0.046 A 
HETATM   18  C   UNL     1     -40.262  52.707 -53.216  1.00  0.00    -0.034 A 
HETATM   19  C   UNL     1     -39.848  51.462 -52.692  1.00  0.00     0.015 A 
HETATM   20  C   UNL     1     -40.078  52.879 -54.700  1.00  0.00     0.050 C 
HETATM   21  C   UNL     1     -39.865  51.197 -51.323  1.00  0.00    -0.061 A 
HETATM   22  C   UNL     1     -39.365  49.890 -50.780  1.00  0.00     0.048 C 
HETATM   23  C   UNL     1     -40.304  52.193 -50.456  1.00  0.00     0.015 A 
HETATM   24  C   UNL     1     -40.755  53.433 -50.940  1.00  0.00    -0.034 A 
HETATM   25  C   UNL     1     -41.238  54.436 -49.920  1.00  0.00     0.050 C 
ENDBRANCH   1  17
TORSDOF 5
ENDMDL
MODEL 4
REMARK VINA RESULT:      -7.6      1.759      2.976
REMARK  5 active torsions:
REMARK  status: ('A' for Active; 'I' for Inactive)
REMARK    1  A    between atoms: C_6  and  N_7 
REMARK       I    between atoms: N_7  and  C_8 
REMARK    2  A    between atoms: C_8  and  C_9 
REMARK    3  A    between atoms: C_9  and  N_10 
REMARK    4  A    between atoms: C_12  and  C_13 
REMARK    5  A    between atoms: C_14  and  O_15 
ROOT
HETATM    1  N   UNL     1     -40.932  55.309 -52.572  1.00  0.00    -0.325 N 
HETATM    2  C   UNL     1     -42.163  55.846 -52.255  1.00  0.00     0.239 C 
HETATM    3  O   UNL     1     -43.210  55.244 -52.033  1.00  0.00    -0.271 OA
HETATM    4  H   UNL     1     -40.124  55.871 -52.330  1.00  0.00     0.169 HD
ENDROOT
BRANCH   2   5
HETATM    5  C   UNL     1     -42.137  57.362 -52.151  1.00  0.00     0.222 C 
BRANCH   5   6
HETATM    6  N   UNL     1     -41.946  57.891 -53.517  1.00  0.00    -0.389 N 
HETATM    7  H   UNL     1     -41.137  58.530 -53.630  1.00  0.00     0.159 HD
HETATM    8  C   UNL     1     -42.698  57.700 -54.541  1.00  0.00     0.097 C 
BRANCH   8   9
HETATM    9  C   UNL     1     -42.438  58.295 -55.865  1.00  0.00     0.012 A 
HETATM   10  C   UNL     1     -41.997  59.615 -56.031  1.00  0.00     0.077 A 
HETATM   11  C   UNL     1     -41.758  60.124 -57.306  1.00  0.00     0.037 A 
HETATM   12  C   UNL     1     -41.965  59.311 -58.422  1.00  0.00     0.003 A 
HETATM   13  C   UNL     1     -42.407  57.996 -58.263  1.00  0.00     0.001 A 
HETATM   14  C   UNL     1     -42.643  57.484 -56.986  1.00  0.00     0.016 A 
BRANCH  10  15
HETATM   15  O   UNL     1     -41.798  60.406 -54.929  1.00  0.00    -0.360 OA
HETATM   16  H   UNL     1     -40.845  60.630 -54.880  1.00  0.00     0.217 HD
ENDBRANCH  10  15
ENDBRANCH   8   9
ENDBRANCH   5   6
ENDBRANCH   2   5
BRANCH   1  17
HETATM   17  C   UNL     1     -40.624  53.962 -52.901  1.00  0.00     0.046 A 
HETATM   18  C   UNL     1     -40.689  53.428 -54.207  1.00  0.00    -0.034 A 
HETATM   19  C   UNL     1     -40.344  52.074 -54.415  1.00  0.00     0.015 A 
HETATM   20  C   UNL     1     -41.051  54.202 -55.445  1.00  0.00     0.050 C 
HETATM   21  C   UNL     1     -39.891  51.261 -53.376  1.00  0.00    -0.061 A 
HETATM   22  C   UNL     1     -39.472  49.842 -53.628  1.00  0.00     0.048 C 
HETATM   23  C   UNL     1     -39.778  51.809 -52.101  1.00  0.00     0.015 A 
HETATM   24  C   UNL     1     -40.142  53.142 -51.846  1.00  0.00    -0.034 A 
HETATM   25  C   UNL     1     -40.010  53.632 -50.425  1.00  0.00     0.050 C 
ENDBRANCH   1  17
TORSDOF 5
ENDMDL
MODEL 5
REMARK VINA RESULT:      -7.6      2.896      3.758
REMARK  5 active torsions:
REMARK  status: ('A' for Active; 'I' for Inactive)
REMARK    1  A    between atoms: C_6  and  N_7 
REMARK       I    between atoms: N_7  and  C_8 
REMARK    2  A    between atoms: C_8  and  C_9 
REMARK    3  A    between atoms: C_9  and  N_10 
REMARK    4  A    between atoms: C_12  and  C_13 
REMARK    5  A    between atoms: C_14  and  O_15 
ROOT
HETATM    1  N   UNL     1     -41.850  54.726 -52.038  1.00  0.00    -0.325 N 
HETATM    2  C   UNL     1     -43.051  54.836 -51.367  1.00  0.00     0.239 C 
HETATM    3  O   UNL     1     -43.793  53.928 -51.002  1.00  0.00    -0.271 OA
HETATM    4  H   UNL     1     -41.195  55.487 -51.907  1.00  0.00     0.169 HD
ENDROOT
BRANCH   2   5
HETATM    5  C   UNL     1     -43.418  56.275 -51.045  1.00  0.00     0.222 C 
BRANCH   5   6
HETATM    6  N   UNL     1     -43.854  56.909 -52.306  1.00  0.00    -0.389 N 
HETATM    7  H   UNL     1     -43.561  56.415 -53.169  1.00  0.00     0.159 HD
HETATM    8  C   UNL     1     -44.488  58.018 -52.444  1.00  0.00     0.097 C 
BRANCH   8   9
HETATM    9  C   UNL     1     -44.858  58.586 -53.753  1.00  0.00     0.012 A 
HETATM   10  C   UNL     1     -45.206  57.793 -54.855  1.00  0.00     0.077 A 
HETATM   11  C   UNL     1     -45.557  58.384 -56.068  1.00  0.00     0.037 A 
HETATM   12  C   UNL     1     -45.557  59.775 -56.180  1.00  0.00     0.003 A 
HETATM   13  C   UNL     1     -45.209  60.571 -55.088  1.00  0.00     0.001 A 
HETATM   14  C   UNL     1     -44.860  59.980 -53.872  1.00  0.00     0.016 A 
BRANCH  10  15
HETATM   15  O   UNL     1     -45.202  56.428 -54.734  1.00  0.00    -0.360 OA
HETATM   16  H   UNL     1     -46.120  56.106 -54.855  1.00  0.00     0.217 HD
ENDBRANCH  10  15
ENDBRANCH   8   9
ENDBRANCH   5   6
ENDBRANCH   2   5
BRANCH   1  17
HETATM   17  C   UNL     1     -41.282  53.566 -52.629  1.00  0.00     0.046 A 
HETATM   18  C   UNL     1     -41.538  53.140 -53.950  1.00  0.00    -0.034 A 
HETATM   19  C   UNL     1     -40.903  51.975 -54.434  1.00  0.00     0.015 A 
HETATM   20  C   UNL     1     -42.413  53.859 -54.941  1.00  0.00     0.050 C 
HETATM   21  C   UNL     1     -39.986  51.262 -53.662  1.00  0.00    -0.061 A 
HETATM   22  C   UNL     1     -39.275  50.061 -54.214  1.00  0.00     0.048 C 
HETATM   23  C   UNL     1     -39.697  51.717 -52.379  1.00  0.00     0.015 A 
HETATM   24  C   UNL     1     -40.333  52.853 -51.849  1.00  0.00    -0.034 A 
HETATM   25  C   UNL     1     -39.971  53.249 -50.438  1.00  0.00     0.050 C 
ENDBRANCH   1  17
TORSDOF 5
ENDMDL
MODEL 6
REMARK VINA RESULT:      -7.6      3.419      5.234
REMARK  5 active torsions:
REMARK  status: ('A' for Active; 'I' for Inactive)
REMARK    1  A    between atoms: C_6  and  N_7 
REMARK       I    between atoms: N_7  and  C_8 
REMARK    2  A    between atoms: C_8  and  C_9 
REMARK    3  A    between atoms: C_9  and  N_10 
REMARK    4  A    between atoms: C_12  and  C_13 
REMARK    5  A    between atoms: C_14  and  O_15 
ROOT
HETATM    1  N   UNL     1     -40.768  54.724 -51.631  1.00  0.00    -0.325 N 
HETATM    2  C   UNL     1     -41.990  55.284 -51.316  1.00  0.00     0.239 C 
HETATM    3  O   UNL     1     -43.106  54.812 -51.517  1.00  0.00    -0.271 OA
HETATM    4  H   UNL     1     -39.983  55.020 -51.063  1.00  0.00     0.169 HD
ENDROOT
BRANCH   2   5
HETATM    5  C   UNL     1     -41.862  56.623 -50.611  1.00  0.00     0.222 C 
BRANCH   5   6
HETATM    6  N   UNL     1     -42.999  57.459 -51.047  1.00  0.00    -0.389 N 
HETATM    7  H   UNL     1     -43.878  56.940 -51.233  1.00  0.00     0.159 HD
HETATM    8  C   UNL     1     -42.997  58.723 -51.278  1.00  0.00     0.097 C 
BRANCH   8   9
HETATM    9  C   UNL     1     -44.183  59.468 -51.738  1.00  0.00     0.012 A 
HETATM   10  C   UNL     1     -45.392  59.485 -51.030  1.00  0.00     0.077 A 
HETATM   11  C   UNL     1     -46.479  60.215 -51.507  1.00  0.00     0.037 A 
HETATM   12  C   UNL     1     -46.358  60.930 -52.700  1.00  0.00     0.003 A 
HETATM   13  C   UNL     1     -45.157  60.916 -53.411  1.00  0.00     0.001 A 
HETATM   14  C   UNL     1     -44.066  60.187 -52.932  1.00  0.00     0.016 A 
BRANCH  10  15
HETATM   15  O   UNL     1     -45.501  58.779 -49.860  1.00  0.00    -0.360 OA
HETATM   16  H   UNL     1     -44.766  58.131 -49.824  1.00  0.00     0.217 HD
ENDBRANCH  10  15
ENDBRANCH   8   9
ENDBRANCH   5   6
ENDBRANCH   2   5
BRANCH   1  17
HETATM   17  C   UNL     1     -40.512  53.572 -52.422  1.00  0.00     0.046 A 
HETATM   18  C   UNL     1     -40.441  53.576 -53.831  1.00  0.00    -0.034 A 
HETATM   19  C   UNL     1     -40.164  52.368 -54.510  1.00  0.00     0.015 A 
HETATM   20  C   UNL     1     -40.586  54.792 -54.706  1.00  0.00     0.050 C 
HETATM   21  C   UNL     1     -39.906  51.181 -53.826  1.00  0.00    -0.061 A 
HETATM   22  C   UNL     1     -39.555  49.922 -54.563  1.00  0.00     0.048 C 
HETATM   23  C   UNL     1     -39.924  51.196 -52.434  1.00  0.00     0.015 A 
HETATM   24  C   UNL     1     -40.228  52.369 -51.722  1.00  0.00    -0.034 A 
HETATM   25  C   UNL     1     -40.250  52.274 -50.216  1.00  0.00     0.050 C 
ENDBRANCH   1  17
TORSDOF 5
ENDMDL
MODEL 7
REMARK VINA RESULT:      -7.5      3.528      4.906
REMARK  5 active torsions:
REMARK  status: ('A' for Active; 'I' for Inactive)
REMARK    1  A    between atoms: C_6  and  N_7 
REMARK       I    between atoms: N_7  and  C_8 
REMARK    2  A    between atoms: C_8  and  C_9 
REMARK    3  A    between atoms: C_9  and  N_10 
REMARK    4  A    between atoms: C_12  and  C_13 
REMARK    5  A    between atoms: C_14  and  O_15 
ROOT
HETATM    1  N   UNL     1     -40.634  54.094 -51.127  1.00  0.00    -0.325 N 
HETATM    2  C   UNL     1     -41.833  54.581 -50.647  1.00  0.00     0.239 C 
HETATM    3  O   UNL     1     -42.958  54.132 -50.846  1.00  0.00    -0.271 OA
HETATM    4  H   UNL     1     -39.813  54.306 -50.573  1.00  0.00     0.169 HD
ENDROOT
BRANCH   2   5
HETATM    5  C   UNL     1     -41.660  55.793 -49.747  1.00  0.00     0.222 C 
BRANCH   5   6
HETATM    6  N   UNL     1     -42.037  56.983 -50.537  1.00  0.00    -0.389 N 
HETATM    7  H   UNL     1     -43.049  57.209 -50.533  1.00  0.00     0.159 HD
HETATM    8  C   UNL     1     -41.270  57.712 -51.266  1.00  0.00     0.097 C 
BRANCH   8   9
HETATM    9  C   UNL     1     -41.746  58.870 -52.043  1.00  0.00     0.012 A 
HETATM   10  C   UNL     1     -42.435  59.944 -51.463  1.00  0.00     0.077 A 
HETATM   11  C   UNL     1     -42.854  61.019 -52.244  1.00  0.00     0.037 A 
HETATM   12  C   UNL     1     -42.587  61.019 -53.615  1.00  0.00     0.003 A 
HETATM   13  C   UNL     1     -41.903  59.952 -54.200  1.00  0.00     0.001 A 
HETATM   14  C   UNL     1     -41.479  58.876 -53.417  1.00  0.00     0.016 A 
BRANCH  10  15
HETATM   15  O   UNL     1     -42.693  59.933 -50.117  1.00  0.00    -0.360 OA
HETATM   16  H   UNL     1     -41.930  60.340 -49.655  1.00  0.00     0.217 HD
ENDBRANCH  10  15
ENDBRANCH   8   9
ENDBRANCH   5   6
ENDBRANCH   2   5
BRANCH   1  17
HETATM   17  C   UNL     1     -40.429  53.086 -52.107  1.00  0.00     0.046 A 
HETATM   18  C   UNL     1     -40.386  53.326 -53.497  1.00  0.00    -0.034 A 
HETATM   19  C   UNL     1     -40.161  52.243 -54.376  1.00  0.00     0.015 A 
HETATM   20  C   UNL     1     -40.511  54.676 -54.151  1.00  0.00     0.050 C 
HETATM   21  C   UNL     1     -39.926  50.951 -53.908  1.00  0.00    -0.061 A 
HETATM   22  C   UNL     1     -39.628  49.825 -54.854  1.00  0.00     0.048 C 
HETATM   23  C   UNL     1     -39.916  50.731 -52.533  1.00  0.00     0.015 A 
HETATM   24  C   UNL     1     -40.168  51.775 -51.627  1.00  0.00    -0.034 A 
HETATM   25  C   UNL     1     -40.164  51.427 -50.158  1.00  0.00     0.050 C 
ENDBRANCH   1  17
TORSDOF 5
ENDMDL
MODEL 8
REMARK VINA RESULT:      -7.3      2.825      7.147
REMARK  5 active torsions:
REMARK  status: ('A' for Active; 'I' for Inactive)
REMARK    1  A    between atoms: C_6  and  N_7 
REMARK       I    between atoms: N_7  and  C_8 
REMARK    2  A    between atoms: C_8  and  C_9 
REMARK    3  A    between atoms: C_9  and  N_10 
REMARK    4  A    between atoms: C_12  and  C_13 
REMARK    5  A    between atoms: C_14  and  O_15 
ROOT
HETATM    1  N   UNL     1     -41.210  55.878 -53.697  1.00  0.00    -0.325 N 
HETATM    2  C   UNL     1     -41.279  55.478 -55.016  1.00  0.00     0.239 C 
HETATM    3  O   UNL     1     -42.084  55.841 -55.869  1.00  0.00    -0.271 OA
HETATM    4  H   UNL     1     -40.298  55.817 -53.260  1.00  0.00     0.169 HD
ENDROOT
BRANCH   2   5
HETATM    5  C   UNL     1     -40.177  54.503 -55.396  1.00  0.00     0.222 C 
BRANCH   5   6
HETATM    6  N   UNL     1     -40.031  53.550 -54.277  1.00  0.00    -0.389 N 
HETATM    7  H   UNL     1     -39.698  53.966 -53.388  1.00  0.00     0.159 HD
HETATM    8  C   UNL     1     -40.205  52.277 -54.307  1.00  0.00     0.097 C 
BRANCH   8   9
HETATM    9  C   UNL     1     -40.008  51.401 -53.139  1.00  0.00     0.012 A 
HETATM   10  C   UNL     1     -39.743  50.029 -53.253  1.00  0.00     0.077 A 
HETATM   11  C   UNL     1     -39.557  49.249 -52.113  1.00  0.00     0.037 A 
HETATM   12  C   UNL     1     -39.639  49.842 -50.852  1.00  0.00     0.003 A 
HETATM   13  C   UNL     1     -39.905  51.207 -50.731  1.00  0.00     0.001 A 
HETATM   14  C   UNL     1     -40.089  51.990 -51.872  1.00  0.00     0.016 A 
BRANCH  10  15
HETATM   15  O   UNL     1     -39.666  49.457 -54.496  1.00  0.00    -0.360 OA
HETATM   16  H   UNL     1     -39.218  50.089 -55.097  1.00  0.00     0.217 HD
ENDBRANCH  10  15
ENDBRANCH   8   9
ENDBRANCH   5   6
ENDBRANCH   2   5
BRANCH   1  17
HETATM   17  C   UNL     1     -42.155  56.647 -52.966  1.00  0.00     0.046 A 
HETATM   18  C   UNL     1     -42.242  58.055 -53.015  1.00  0.00    -0.034 A 
HETATM   19  C   UNL     1     -43.234  58.710 -52.253  1.00  0.00     0.015 A 
HETATM   20  C   UNL     1     -41.384  58.950 -53.869  1.00  0.00     0.050 C 
HETATM   21  C   UNL     1     -44.166  58.004 -51.493  1.00  0.00    -0.061 A 
HETATM   22  C   UNL     1     -45.251  58.715 -50.739  1.00  0.00     0.048 C 
HETATM   23  C   UNL     1     -44.108  56.613 -51.492  1.00  0.00     0.015 A 
HETATM   24  C   UNL     1     -43.116  55.924 -52.210  1.00  0.00    -0.034 A 
HETATM   25  C   UNL     1     -43.122  54.418 -52.120  1.00  0.00     0.050 C 
ENDBRANCH   1  17
TORSDOF 5
ENDMDL
MODEL 9
REMARK VINA RESULT:      -7.3      2.254      2.977
REMARK  5 active torsions:
REMARK  status: ('A' for Active; 'I' for Inactive)
REMARK    1  A    between atoms: C_6  and  N_7 
REMARK       I    between atoms: N_7  and  C_8 
REMARK    2  A    between atoms: C_8  and  C_9 
REMARK    3  A    between atoms: C_9  and  N_10 
REMARK    4  A    between atoms: C_12  and  C_13 
REMARK    5  A    between atoms: C_14  and  O_15 
ROOT
HETATM    1  N   UNL     1     -41.675  54.858 -52.255  1.00  0.00    -0.325 N 
HETATM    2  C   UNL     1     -42.876  55.006 -51.592  1.00  0.00     0.239 C 
HETATM    3  O   UNL     1     -43.575  54.124 -51.100  1.00  0.00    -0.271 OA
HETATM    4  H   UNL     1     -41.054  55.658 -52.236  1.00  0.00     0.169 HD
ENDROOT
BRANCH   2   5
HETATM    5  C   UNL     1     -43.305  56.458 -51.461  1.00  0.00     0.222 C 
BRANCH   5   6
HETATM    6  N   UNL     1     -43.418  57.006 -52.829  1.00  0.00    -0.389 N 
HETATM    7  H   UNL     1     -42.517  57.254 -53.278  1.00  0.00     0.159 HD
HETATM    8  C   UNL     1     -44.495  57.262 -53.481  1.00  0.00     0.097 C 
BRANCH   8   9
HETATM    9  C   UNL     1     -44.508  57.836 -54.839  1.00  0.00     0.012 A 
HETATM   10  C   UNL     1     -45.162  59.035 -55.151  1.00  0.00     0.077 A 
HETATM   11  C   UNL     1     -45.134  59.537 -56.451  1.00  0.00     0.037 A 
HETATM   12  C   UNL     1     -44.452  58.833 -57.445  1.00  0.00     0.003 A 
HETATM   13  C   UNL     1     -43.800  57.637 -57.141  1.00  0.00     0.001 A 
HETATM   14  C   UNL     1     -43.825  57.135 -55.839  1.00  0.00     0.016 A 
BRANCH  10  15
HETATM   15  O   UNL     1     -45.830  59.717 -54.168  1.00  0.00    -0.360 OA
HETATM   16  H   UNL     1     -45.217  59.846 -53.414  1.00  0.00     0.217 HD
ENDBRANCH  10  15
ENDBRANCH   8   9
ENDBRANCH   5   6
ENDBRANCH   2   5
BRANCH   1  17
HETATM   17  C   UNL     1     -41.059  53.655 -52.692  1.00  0.00     0.046 A 
HETATM   18  C   UNL     1     -40.243  52.840 -51.878  1.00  0.00    -0.034 A 
HETATM   19  C   UNL     1     -39.695  51.656 -52.419  1.00  0.00     0.015 A 
HETATM   20  C   UNL     1     -39.931  53.094 -50.428  1.00  0.00     0.050 C 
HETATM   21  C   UNL     1     -39.981  51.239 -53.719  1.00  0.00    -0.061 A 
HETATM   22  C   UNL     1     -39.439  49.947 -54.256  1.00  0.00     0.048 C 
HETATM   23  C   UNL     1     -40.830  52.020 -54.498  1.00  0.00     0.015 A 
HETATM   24  C   UNL     1     -41.369  53.222 -54.008  1.00  0.00    -0.034 A 
HETATM   25  C   UNL     1     -42.255  54.010 -54.942  1.00  0.00     0.050 C 
ENDBRANCH   1  17
TORSDOF 5
ENDMDL
MODEL 10
REMARK VINA RESULT:      -7.2      2.338      7.033
REMARK  5 active torsions:
REMARK  status: ('A' for Active; 'I' for Inactive)
REMARK    1  A    between atoms: C_6  and  N_7 
REMARK       I    between atoms: N_7  and  C_8 
REMARK    2  A    between atoms: C_8  and  C_9 
REMARK    3  A    between atoms: C_9  and  N_10 
REMARK    4  A    between atoms: C_12  and  C_13 
REMARK    5  A    between atoms: C_14  and  O_15 
ROOT
HETATM    1  N   UNL     1     -41.455  56.039 -52.565  1.00  0.00    -0.325 N 
HETATM    2  C   UNL     1     -41.617  56.172 -51.201  1.00  0.00     0.239 C 
HETATM    3  O   UNL     1     -42.310  56.992 -50.605  1.00  0.00    -0.271 OA
HETATM    4  H   UNL     1     -41.202  55.115 -52.896  1.00  0.00     0.169 HD
ENDROOT
BRANCH   2   5
HETATM    5  C   UNL     1     -40.848  55.128 -50.410  1.00  0.00     0.222 C 
BRANCH   5   6
HETATM    6  N   UNL     1     -40.751  53.921 -51.256  1.00  0.00    -0.389 N 
HETATM    7  H   UNL     1     -41.603  53.699 -51.804  1.00  0.00     0.159 HD
HETATM    8  C   UNL     1     -39.766  53.099 -51.334  1.00  0.00     0.097 C 
BRANCH   8   9
HETATM    9  C   UNL     1     -39.772  51.901 -52.193  1.00  0.00     0.012 A 
HETATM   10  C   UNL     1     -39.976  51.959 -53.578  1.00  0.00     0.077 A 
HETATM   11  C   UNL     1     -39.962  50.796 -54.344  1.00  0.00     0.037 A 
HETATM   12  C   UNL     1     -39.746  49.565 -53.722  1.00  0.00     0.003 A 
HETATM   13  C   UNL     1     -39.544  49.499 -52.342  1.00  0.00     0.001 A 
HETATM   14  C   UNL     1     -39.554  50.665 -51.574  1.00  0.00     0.016 A 
BRANCH  10  15
HETATM   15  O   UNL     1     -40.189  53.173 -54.179  1.00  0.00    -0.360 OA
HETATM   16  H   UNL     1     -40.862  53.659 -53.658  1.00  0.00     0.217 HD
ENDBRANCH  10  15
ENDBRANCH   8   9
ENDBRANCH   5   6
ENDBRANCH   2   5
BRANCH   1  17
HETATM   17  C   UNL     1     -41.891  56.922 -53.589  1.00  0.00     0.046 A 
HETATM   18  C   UNL     1     -41.353  58.208 -53.811  1.00  0.00    -0.034 A 
HETATM   19  C   UNL     1     -41.858  58.992 -54.871  1.00  0.00     0.015 A 
HETATM   20  C   UNL     1     -40.219  58.822 -53.034  1.00  0.00     0.050 C 
HETATM   21  C   UNL     1     -42.839  58.513 -55.739  1.00  0.00    -0.061 A 
HETATM   22  C   UNL     1     -43.321  59.338 -56.897  1.00  0.00     0.048 C 
HETATM   23  C   UNL     1     -43.328  57.224 -55.547  1.00  0.00     0.015 A 
HETATM   24  C   UNL     1     -42.874  56.424 -54.484  1.00  0.00    -0.034 A 
HETATM   25  C   UNL     1     -43.488  55.052 -54.345  1.00  0.00     0.050 C 
ENDBRANCH   1  17
TORSDOF 5
ENDMDL
