MODEL 1
REMARK VINA RESULT:      -7.3      0.000      0.000
REMARK  10 active torsions:
REMARK  status: ('A' for Active; 'I' for Inactive)
REMARK    1  A    between atoms: C_3  and  N_4 
REMARK       I    between atoms: N_4  and  C_5 
REMARK    2  A    between atoms: C_5  and  C_6 
REMARK    3  A    between atoms: C_13  and  C_14 
REMARK    4  A    between atoms: C_14  and  O_15 
REMARK    5  A    between atoms: O_15  and  C_16 
REMARK    6  A    between atoms: C_16  and  C_17 
REMARK       I    between atoms: C_17  and  N_18 
REMARK    7  A    between atoms: N_18  and  C_19 
REMARK    8  A    between atoms: C_19  and  C_20 
REMARK    9  A    between atoms: C_20  and  C_21 
REMARK   10  A    between atoms: C_24  and  O_25 
ROOT
HETATM    1  C   UNL     1     -41.140  59.149 -53.847  1.00  0.00     0.293 C 
HETATM    2  O   UNL     1     -40.067  59.281 -53.273  1.00  0.00    -0.259 OA
ENDROOT
BRANCH   1   3
HETATM    3  C   UNL     1     -41.738  57.835 -54.183  1.00  0.00     0.041 A 
HETATM    4  C   UNL     1     -41.200  56.636 -53.699  1.00  0.00     0.047 A 
HETATM    5  C   UNL     1     -41.766  55.400 -54.040  1.00  0.00     0.042 A 
HETATM    6  C   UNL     1     -42.900  55.377 -54.884  1.00  0.00    -0.035 A 
HETATM    7  C   UNL     1     -43.566  54.105 -55.341  1.00  0.00     0.050 C 
HETATM    8  C   UNL     1     -43.431  56.589 -55.363  1.00  0.00     0.010 A 
HETATM    9  C   UNL     1     -42.864  57.811 -55.005  1.00  0.00     0.018 A 
BRANCH   5  10
HETATM   10  N   UNL     1     -41.223  54.181 -53.579  1.00  0.00    -0.321 N 
HETATM   11  C   UNL     1     -40.374  53.312 -54.245  1.00  0.00     0.279 C 
HETATM   12  O   UNL     1     -39.908  53.494 -55.365  1.00  0.00    -0.265 OA
HETATM   13  H   UNL     1     -41.426  53.903 -52.626  1.00  0.00     0.169 HD
BRANCH  11  14
HETATM   14  C   UNL     1     -40.041  52.138 -53.460  1.00  0.00     0.142 A 
HETATM   15  O   UNL     1     -40.003  50.906 -54.064  1.00  0.00    -0.317 OA
HETATM   16  C   UNL     1     -39.658  50.005 -53.108  1.00  0.00     0.143 A 
HETATM   17  C   UNL     1     -39.483  50.627 -51.896  1.00  0.00     0.027 A 
HETATM   18  C   UNL     1     -39.730  52.001 -52.120  1.00  0.00     0.045 A 
ENDBRANCH  11  14
ENDBRANCH   5  10
ENDBRANCH   1   3
BRANCH   1  19
HETATM   19  O   UNL     1     -41.966  60.152 -54.220  1.00  0.00    -0.308 OA
BRANCH  19  20
HETATM   20  C   UNL     1     -42.420  61.007 -53.170  1.00  0.00     0.281 C 
BRANCH  20  21
HETATM   21  C   UNL     1     -42.911  60.264 -51.926  1.00  0.00     0.241 C 
HETATM   22  N   UNL     1     -44.043  59.502 -52.127  1.00  0.00    -0.359 N 
HETATM   23  H   UNL     1     -44.329  59.335 -53.092  1.00  0.00     0.162 HD
HETATM   24  O   UNL     1     -42.354  60.367 -50.836  1.00  0.00    -0.271 OA
BRANCH  22  25
HETATM   25  C   UNL     1     -44.576  58.664 -51.073  1.00  0.00     0.127 C 
BRANCH  25  26
HETATM   26  C   UNL     1     -44.706  57.208 -51.516  1.00  0.00     0.058 C 
BRANCH  26  27
HETATM   27  C   UNL     1     -43.599  56.347 -50.962  1.00  0.00    -0.057 A 
HETATM   28  C   UNL     1     -42.403  56.929 -50.529  1.00  0.00     0.010 A 
HETATM   29  C   UNL     1     -41.372  56.130 -50.028  1.00  0.00     0.037 A 
HETATM   30  C   UNL     1     -41.515  54.743 -49.956  1.00  0.00     0.068 A 
HETATM   31  C   UNL     1     -42.701  54.158 -50.397  1.00  0.00     0.037 A 
HETATM   32  C   UNL     1     -43.736  54.956 -50.899  1.00  0.00     0.010 A 
BRANCH  30  33
HETATM   33  O   UNL     1     -40.431  54.085 -49.443  1.00  0.00    -0.356 OA
HETATM   34  C   UNL     1     -40.329  54.024 -48.025  1.00  0.00     0.210 C 
ENDBRANCH  30  33
ENDBRANCH  26  27
ENDBRANCH  25  26
ENDBRANCH  22  25
ENDBRANCH  20  21
ENDBRANCH  19  20
ENDBRANCH   1  19
TORSDOF 10
ENDMDL
MODEL 2
REMARK VINA RESULT:      -7.3      3.439      6.449
REMARK  10 active torsions:
REMARK  status: ('A' for Active; 'I' for Inactive)
REMARK    1  A    between atoms: C_3  and  N_4 
REMARK       I    between atoms: N_4  and  C_5 
REMARK    2  A    between atoms: C_5  and  C_6 
REMARK    3  A    between atoms: C_13  and  C_14 
REMARK    4  A    between atoms: C_14  and  O_15 
REMARK    5  A    between atoms: O_15  and  C_16 
REMARK    6  A    between atoms: C_16  and  C_17 
REMARK       I    between atoms: C_17  and  N_18 
REMARK    7  A    between atoms: N_18  and  C_19 
REMARK    8  A    between atoms: C_19  and  C_20 
REMARK    9  A    between atoms: C_20  and  C_21 
REMARK   10  A    between atoms: C_24  and  O_25 
ROOT
HETATM    1  C   UNL     1     -40.839  58.804 -52.765  1.00  0.00     0.293 C 
HETATM    2  O   UNL     1     -40.346  59.610 -51.988  1.00  0.00    -0.259 OA
ENDROOT
BRANCH   1   3
HETATM    3  C   UNL     1     -41.516  57.557 -52.339  1.00  0.00     0.041 A 
HETATM    4  C   UNL     1     -41.060  56.296 -52.746  1.00  0.00     0.047 A 
HETATM    5  C   UNL     1     -41.721  55.126 -52.349  1.00  0.00     0.042 A 
HETATM    6  C   UNL     1     -42.862  55.232 -51.522  1.00  0.00    -0.035 A 
HETATM    7  C   UNL     1     -43.667  54.043 -51.066  1.00  0.00     0.050 C 
HETATM    8  C   UNL     1     -43.308  56.504 -51.119  1.00  0.00     0.010 A 
HETATM    9  C   UNL     1     -42.634  57.658 -51.512  1.00  0.00     0.018 A 
BRANCH   5  10
HETATM   10  N   UNL     1     -41.288  53.849 -52.769  1.00  0.00    -0.321 N 
HETATM   11  C   UNL     1     -40.291  53.058 -52.221  1.00  0.00     0.279 C 
HETATM   12  O   UNL     1     -39.634  53.333 -51.223  1.00  0.00    -0.265 OA
HETATM   13  H   UNL     1     -41.781  53.410 -53.537  1.00  0.00     0.169 HD
BRANCH  11  14
HETATM   14  C   UNL     1     -40.106  51.809 -52.937  1.00  0.00     0.142 A 
HETATM   15  O   UNL     1     -39.599  50.718 -52.278  1.00  0.00    -0.317 OA
HETATM   16  C   UNL     1     -39.546  49.700 -53.176  1.00  0.00     0.143 A 
HETATM   17  C   UNL     1     -39.998  50.114 -54.406  1.00  0.00     0.027 A 
HETATM   18  C   UNL     1     -40.359  51.473 -54.254  1.00  0.00     0.045 A 
ENDBRANCH  11  14
ENDBRANCH   5  10
ENDBRANCH   1   3
BRANCH   1  19
HETATM   19  O   UNL     1     -40.893  58.934 -54.110  1.00  0.00    -0.308 OA
BRANCH  19  20
HETATM   20  C   UNL     1     -42.045  59.604 -54.625  1.00  0.00     0.281 C 
BRANCH  20  21
HETATM   21  C   UNL     1     -42.975  58.709 -55.445  1.00  0.00     0.241 C 
HETATM   22  N   UNL     1     -42.386  57.552 -55.913  1.00  0.00    -0.359 N 
HETATM   23  H   UNL     1     -41.481  57.295 -55.518  1.00  0.00     0.162 HD
HETATM   24  O   UNL     1     -44.139  59.016 -55.688  1.00  0.00    -0.271 OA
BRANCH  22  25
HETATM   25  C   UNL     1     -43.159  56.555 -56.625  1.00  0.00     0.127 C 
BRANCH  25  26
HETATM   26  C   UNL     1     -42.763  56.475 -58.098  1.00  0.00     0.058 C 
BRANCH  26  27
HETATM   27  C   UNL     1     -43.964  56.347 -59.001  1.00  0.00    -0.057 A 
HETATM   28  C   UNL     1     -44.009  55.348 -59.978  1.00  0.00     0.010 A 
HETATM   29  C   UNL     1     -45.116  55.239 -60.823  1.00  0.00     0.037 A 
HETATM   30  C   UNL     1     -46.190  56.124 -60.711  1.00  0.00     0.068 A 
HETATM   31  C   UNL     1     -46.145  57.129 -59.745  1.00  0.00     0.037 A 
HETATM   32  C   UNL     1     -45.037  57.241 -58.896  1.00  0.00     0.010 A 
BRANCH  30  33
HETATM   33  O   UNL     1     -47.208  55.901 -61.597  1.00  0.00    -0.356 OA
HETATM   34  C   UNL     1     -48.082  56.992 -61.858  1.00  0.00     0.210 C 
ENDBRANCH  30  33
ENDBRANCH  26  27
ENDBRANCH  25  26
ENDBRANCH  22  25
ENDBRANCH  20  21
ENDBRANCH  19  20
ENDBRANCH   1  19
TORSDOF 10
ENDMDL
MODEL 3
REMARK VINA RESULT:      -7.1      2.240      5.015
REMARK  10 active torsions:
REMARK  status: ('A' for Active; 'I' for Inactive)
REMARK    1  A    between atoms: C_3  and  N_4 
REMARK       I    between atoms: N_4  and  C_5 
REMARK    2  A    between atoms: C_5  and  C_6 
REMARK    3  A    between atoms: C_13  and  C_14 
REMARK    4  A    between atoms: C_14  and  O_15 
REMARK    5  A    between atoms: O_15  and  C_16 
REMARK    6  A    between atoms: C_16  and  C_17 
REMARK       I    between atoms: C_17  and  N_18 
REMARK    7  A    between atoms: N_18  and  C_19 
REMARK    8  A    between atoms: C_19  and  C_20 
REMARK    9  A    between atoms: C_20  and  C_21 
REMARK   10  A    between atoms: C_24  and  O_25 
ROOT
HETATM    1  C   UNL     1     -43.420  57.963 -51.552  1.00  0.00     0.293 C 
HETATM    2  O   UNL     1     -44.428  58.276 -50.933  1.00  0.00    -0.259 OA
ENDROOT
BRANCH   1   3
HETATM    3  C   UNL     1     -43.389  56.925 -52.608  1.00  0.00     0.041 A 
HETATM    4  C   UNL     1     -42.665  55.736 -52.451  1.00  0.00     0.047 A 
HETATM    5  C   UNL     1     -42.632  54.771 -53.466  1.00  0.00     0.042 A 
HETATM    6  C   UNL     1     -43.346  55.011 -54.662  1.00  0.00    -0.035 A 
HETATM    7  C   UNL     1     -43.351  54.058 -55.829  1.00  0.00     0.050 C 
HETATM    8  C   UNL     1     -44.070  56.209 -54.807  1.00  0.00     0.010 A 
HETATM    9  C   UNL     1     -44.104  57.154 -53.784  1.00  0.00     0.018 A 
BRANCH   5  10
HETATM   10  N   UNL     1     -41.890  53.577 -53.333  1.00  0.00    -0.321 N 
HETATM   11  C   UNL     1     -40.677  53.249 -53.918  1.00  0.00     0.279 C 
HETATM   12  O   UNL     1     -40.013  53.988 -54.636  1.00  0.00    -0.265 OA
HETATM   13  H   UNL     1     -42.241  52.869 -52.698  1.00  0.00     0.169 HD
BRANCH  11  14
HETATM   14  C   UNL     1     -40.225  51.915 -53.568  1.00  0.00     0.142 A 
HETATM   15  O   UNL     1     -39.844  51.645 -52.278  1.00  0.00    -0.317 OA
HETATM   16  C   UNL     1     -39.485  50.336 -52.235  1.00  0.00     0.143 A 
HETATM   17  C   UNL     1     -39.615  49.757 -53.474  1.00  0.00     0.027 A 
HETATM   18  C   UNL     1     -40.092  50.772 -54.334  1.00  0.00     0.045 A 
ENDBRANCH  11  14
ENDBRANCH   5  10
ENDBRANCH   1   3
BRANCH   1  19
HETATM   19  O   UNL     1     -42.200  58.532 -51.415  1.00  0.00    -0.308 OA
BRANCH  19  20
HETATM   20  C   UNL     1     -42.089  59.882 -51.866  1.00  0.00     0.281 C 
BRANCH  20  21
HETATM   21  C   UNL     1     -41.896  60.022 -53.377  1.00  0.00     0.241 C 
HETATM   22  N   UNL     1     -42.934  60.654 -54.028  1.00  0.00    -0.359 N 
HETATM   23  H   UNL     1     -43.620  61.142 -53.452  1.00  0.00     0.162 HD
HETATM   24  O   UNL     1     -40.908  59.579 -53.958  1.00  0.00    -0.271 OA
BRANCH  22  25
HETATM   25  C   UNL     1     -42.860  60.949 -55.445  1.00  0.00     0.127 C 
BRANCH  25  26
HETATM   26  C   UNL     1     -44.082  60.428 -56.198  1.00  0.00     0.058 C 
BRANCH  26  27
HETATM   27  C   UNL     1     -43.766  59.194 -57.005  1.00  0.00    -0.057 A 
HETATM   28  C   UNL     1     -44.786  58.501 -57.664  1.00  0.00     0.010 A 
HETATM   29  C   UNL     1     -44.495  57.350 -58.400  1.00  0.00     0.037 A 
HETATM   30  C   UNL     1     -43.187  56.870 -58.486  1.00  0.00     0.068 A 
HETATM   31  C   UNL     1     -42.167  57.551 -57.821  1.00  0.00     0.037 A 
HETATM   32  C   UNL     1     -42.456  58.706 -57.083  1.00  0.00     0.010 A 
BRANCH  30  33
HETATM   33  O   UNL     1     -43.042  55.738 -59.241  1.00  0.00    -0.356 OA
HETATM   34  C   UNL     1     -44.216  54.970 -59.477  1.00  0.00     0.210 C 
ENDBRANCH  30  33
ENDBRANCH  26  27
ENDBRANCH  25  26
ENDBRANCH  22  25
ENDBRANCH  20  21
ENDBRANCH  19  20
ENDBRANCH   1  19
TORSDOF 10
ENDMDL
MODEL 4
REMARK VINA RESULT:      -6.9      3.070      6.130
REMARK  10 active torsions:
REMARK  status: ('A' for Active; 'I' for Inactive)
REMARK    1  A    between atoms: C_3  and  N_4 
REMARK       I    between atoms: N_4  and  C_5 
REMARK    2  A    between atoms: C_5  and  C_6 
REMARK    3  A    between atoms: C_13  and  C_14 
REMARK    4  A    between atoms: C_14  and  O_15 
REMARK    5  A    between atoms: O_15  and  C_16 
REMARK    6  A    between atoms: C_16  and  C_17 
REMARK       I    between atoms: C_17  and  N_18 
REMARK    7  A    between atoms: N_18  and  C_19 
REMARK    8  A    between atoms: C_19  and  C_20 
REMARK    9  A    between atoms: C_20  and  C_21 
REMARK   10  A    between atoms: C_24  and  O_25 
ROOT
HETATM    1  C   UNL     1     -44.628  57.950 -51.698  1.00  0.00     0.293 C 
HETATM    2  O   UNL     1     -45.504  57.687 -50.886  1.00  0.00    -0.259 OA
ENDROOT
BRANCH   1   3
HETATM    3  C   UNL     1     -44.888  58.566 -53.021  1.00  0.00     0.041 A 
HETATM    4  C   UNL     1     -44.841  57.817 -54.203  1.00  0.00     0.047 A 
HETATM    5  C   UNL     1     -45.071  58.418 -55.448  1.00  0.00     0.042 A 
HETATM    6  C   UNL     1     -45.359  59.800 -55.498  1.00  0.00    -0.035 A 
HETATM    7  C   UNL     1     -45.589  60.552 -56.784  1.00  0.00     0.050 C 
HETATM    8  C   UNL     1     -45.404  60.541 -54.302  1.00  0.00     0.010 A 
HETATM    9  C   UNL     1     -45.184  59.928 -53.070  1.00  0.00     0.018 A 
BRANCH   5  10
HETATM   10  N   UNL     1     -45.006  57.682 -56.652  1.00  0.00    -0.321 N 
HETATM   11  C   UNL     1     -43.881  57.300 -57.365  1.00  0.00     0.279 C 
HETATM   12  O   UNL     1     -42.721  57.512 -57.028  1.00  0.00    -0.265 OA
HETATM   13  H   UNL     1     -45.874  57.335 -57.043  1.00  0.00     0.169 HD
BRANCH  11  14
HETATM   14  C   UNL     1     -44.204  56.569 -58.577  1.00  0.00     0.142 A 
HETATM   15  O   UNL     1     -45.428  56.748 -59.171  1.00  0.00    -0.317 OA
HETATM   16  C   UNL     1     -45.452  55.959 -60.277  1.00  0.00     0.143 A 
HETATM   17  C   UNL     1     -44.272  55.266 -60.404  1.00  0.00     0.027 A 
HETATM   18  C   UNL     1     -43.467  55.657 -59.309  1.00  0.00     0.045 A 
ENDBRANCH  11  14
ENDBRANCH   5  10
ENDBRANCH   1   3
BRANCH   1  19
HETATM   19  O   UNL     1     -43.300  57.773 -51.514  1.00  0.00    -0.308 OA
BRANCH  19  20
HETATM   20  C   UNL     1     -42.897  56.462 -51.115  1.00  0.00     0.281 C 
BRANCH  20  21
HETATM   21  C   UNL     1     -42.901  55.435 -52.249  1.00  0.00     0.241 C 
HETATM   22  N   UNL     1     -42.258  55.850 -53.396  1.00  0.00    -0.359 N 
HETATM   23  H   UNL     1     -41.676  56.686 -53.330  1.00  0.00     0.162 HD
HETATM   24  O   UNL     1     -43.459  54.345 -52.147  1.00  0.00    -0.271 OA
BRANCH  22  25
HETATM   25  C   UNL     1     -42.092  54.957 -54.525  1.00  0.00     0.127 C 
BRANCH  25  26
HETATM   26  C   UNL     1     -40.634  54.542 -54.712  1.00  0.00     0.058 C 
BRANCH  26  27
HETATM   27  C   UNL     1     -40.309  53.269 -53.973  1.00  0.00    -0.057 A 
HETATM   28  C   UNL     1     -40.242  52.052 -54.659  1.00  0.00     0.010 A 
HETATM   29  C   UNL     1     -39.955  50.871 -53.972  1.00  0.00     0.037 A 
HETATM   30  C   UNL     1     -39.734  50.882 -52.593  1.00  0.00     0.068 A 
HETATM   31  C   UNL     1     -39.810  52.092 -51.903  1.00  0.00     0.037 A 
HETATM   32  C   UNL     1     -40.098  53.278 -52.589  1.00  0.00     0.010 A 
BRANCH  30  33
HETATM   33  O   UNL     1     -39.459  49.658 -52.049  1.00  0.00    -0.356 OA
HETATM   34  C   UNL     1     -39.556  49.548 -50.634  1.00  0.00     0.210 C 
ENDBRANCH  30  33
ENDBRANCH  26  27
ENDBRANCH  25  26
ENDBRANCH  22  25
ENDBRANCH  20  21
ENDBRANCH  19  20
ENDBRANCH   1  19
TORSDOF 10
ENDMDL
MODEL 5
REMARK VINA RESULT:      -6.9      2.973      5.542
REMARK  10 active torsions:
REMARK  status: ('A' for Active; 'I' for Inactive)
REMARK    1  A    between atoms: C_3  and  N_4 
REMARK       I    between atoms: N_4  and  C_5 
REMARK    2  A    between atoms: C_5  and  C_6 
REMARK    3  A    between atoms: C_13  and  C_14 
REMARK    4  A    between atoms: C_14  and  O_15 
REMARK    5  A    between atoms: O_15  and  C_16 
REMARK    6  A    between atoms: C_16  and  C_17 
REMARK       I    between atoms: C_17  and  N_18 
REMARK    7  A    between atoms: N_18  and  C_19 
REMARK    8  A    between atoms: C_19  and  C_20 
REMARK    9  A    between atoms: C_20  and  C_21 
REMARK   10  A    between atoms: C_24  and  O_25 
ROOT
HETATM    1  C   UNL     1     -42.440  59.802 -53.153  1.00  0.00     0.293 C 
HETATM    2  O   UNL     1     -42.475  60.939 -53.603  1.00  0.00    -0.259 OA
ENDROOT
BRANCH   1   3
HETATM    3  C   UNL     1     -42.376  58.584 -53.994  1.00  0.00     0.041 A 
HETATM    4  C   UNL     1     -43.260  58.380 -55.062  1.00  0.00     0.047 A 
HETATM    5  C   UNL     1     -43.198  57.214 -55.837  1.00  0.00     0.042 A 
HETATM    6  C   UNL     1     -42.222  56.239 -55.530  1.00  0.00    -0.035 A 
HETATM    7  C   UNL     1     -42.090  54.936 -56.276  1.00  0.00     0.050 C 
HETATM    8  C   UNL     1     -41.340  56.458 -54.455  1.00  0.00     0.010 A 
HETATM    9  C   UNL     1     -41.405  57.627 -53.700  1.00  0.00     0.018 A 
BRANCH   5  10
HETATM   10  N   UNL     1     -44.095  56.982 -56.903  1.00  0.00    -0.321 N 
HETATM   11  C   UNL     1     -43.999  57.416 -58.216  1.00  0.00     0.279 C 
HETATM   12  O   UNL     1     -43.064  58.055 -58.686  1.00  0.00    -0.265 OA
HETATM   13  H   UNL     1     -44.896  56.388 -56.727  1.00  0.00     0.169 HD
BRANCH  11  14
HETATM   14  C   UNL     1     -45.128  57.002 -59.029  1.00  0.00     0.142 A 
HETATM   15  O   UNL     1     -44.957  56.030 -59.982  1.00  0.00    -0.317 OA
HETATM   16  C   UNL     1     -46.165  55.838 -60.574  1.00  0.00     0.143 A 
HETATM   17  C   UNL     1     -47.110  56.674 -60.031  1.00  0.00     0.027 A 
HETATM   18  C   UNL     1     -46.444  57.425 -59.036  1.00  0.00     0.045 A 
ENDBRANCH  11  14
ENDBRANCH   5  10
ENDBRANCH   1   3
BRANCH   1  19
HETATM   19  O   UNL     1     -42.407  59.472 -51.842  1.00  0.00    -0.308 OA
BRANCH  19  20
HETATM   20  C   UNL     1     -43.676  59.261 -51.221  1.00  0.00     0.281 C 
BRANCH  20  21
HETATM   21  C   UNL     1     -44.059  57.788 -51.065  1.00  0.00     0.241 C 
HETATM   22  N   UNL     1     -42.990  56.941 -50.860  1.00  0.00    -0.359 N 
HETATM   23  H   UNL     1     -42.092  57.366 -50.629  1.00  0.00     0.162 HD
HETATM   24  O   UNL     1     -45.220  57.399 -51.147  1.00  0.00    -0.271 OA
BRANCH  22  25
HETATM   25  C   UNL     1     -43.195  55.530 -50.599  1.00  0.00     0.127 C 
BRANCH  25  26
HETATM   26  C   UNL     1     -41.954  54.879 -49.991  1.00  0.00     0.058 C 
BRANCH  26  27
HETATM   27  C   UNL     1     -41.286  53.927 -50.951  1.00  0.00    -0.057 A 
HETATM   28  C   UNL     1     -40.284  53.060 -50.503  1.00  0.00     0.010 A 
HETATM   29  C   UNL     1     -39.657  52.188 -51.396  1.00  0.00     0.037 A 
HETATM   30  C   UNL     1     -40.014  52.169 -52.745  1.00  0.00     0.068 A 
HETATM   31  C   UNL     1     -41.005  53.040 -53.199  1.00  0.00     0.037 A 
HETATM   32  C   UNL     1     -41.636  53.915 -52.307  1.00  0.00     0.010 A 
BRANCH  30  33
HETATM   33  O   UNL     1     -39.323  51.266 -53.506  1.00  0.00    -0.356 OA
HETATM   34  C   UNL     1     -40.095  50.361 -54.286  1.00  0.00     0.210 C 
ENDBRANCH  30  33
ENDBRANCH  26  27
ENDBRANCH  25  26
ENDBRANCH  22  25
ENDBRANCH  20  21
ENDBRANCH  19  20
ENDBRANCH   1  19
TORSDOF 10
ENDMDL
MODEL 6
REMARK VINA RESULT:      -6.8      4.741      5.984
REMARK  10 active torsions:
REMARK  status: ('A' for Active; 'I' for Inactive)
REMARK    1  A    between atoms: C_3  and  N_4 
REMARK       I    between atoms: N_4  and  C_5 
REMARK    2  A    between atoms: C_5  and  C_6 
REMARK    3  A    between atoms: C_13  and  C_14 
REMARK    4  A    between atoms: C_14  and  O_15 
REMARK    5  A    between atoms: O_15  and  C_16 
REMARK    6  A    between atoms: C_16  and  C_17 
REMARK       I    between atoms: C_17  and  N_18 
REMARK    7  A    between atoms: N_18  and  C_19 
REMARK    8  A    between atoms: C_19  and  C_20 
REMARK    9  A    between atoms: C_20  and  C_21 
REMARK   10  A    between atoms: C_24  and  O_25 
ROOT
HETATM    1  C   UNL     1     -44.305  57.372 -51.437  1.00  0.00     0.293 C 
HETATM    2  O   UNL     1     -44.941  56.834 -50.540  1.00  0.00    -0.259 OA
ENDROOT
BRANCH   1   3
HETATM    3  C   UNL     1     -43.294  56.673 -52.264  1.00  0.00     0.041 A 
HETATM    4  C   UNL     1     -42.811  55.404 -51.920  1.00  0.00     0.047 A 
HETATM    5  C   UNL     1     -41.841  54.764 -52.703  1.00  0.00     0.042 A 
HETATM    6  C   UNL     1     -41.353  55.417 -53.857  1.00  0.00    -0.035 A 
HETATM    7  C   UNL     1     -40.287  54.835 -54.749  1.00  0.00     0.050 C 
HETATM    8  C   UNL     1     -41.847  56.692 -54.191  1.00  0.00     0.010 A 
HETATM    9  C   UNL     1     -42.820  57.311 -53.410  1.00  0.00     0.018 A 
BRANCH   5  10
HETATM   10  N   UNL     1     -41.328  53.494 -52.358  1.00  0.00    -0.321 N 
HETATM   11  C   UNL     1     -40.403  53.179 -51.376  1.00  0.00     0.279 C 
HETATM   12  O   UNL     1     -39.899  53.977 -50.594  1.00  0.00    -0.265 OA
HETATM   13  H   UNL     1     -41.700  52.685 -52.843  1.00  0.00     0.169 HD
BRANCH  11  14
HETATM   14  C   UNL     1     -40.094  51.761 -51.326  1.00  0.00     0.142 A 
HETATM   15  O   UNL     1     -39.632  51.129 -52.453  1.00  0.00    -0.317 OA
HETATM   16  C   UNL     1     -39.418  49.829 -52.119  1.00  0.00     0.143 A 
HETATM   17  C   UNL     1     -39.745  49.607 -50.803  1.00  0.00     0.027 A 
HETATM   18  C   UNL     1     -40.181  50.850 -50.291  1.00  0.00     0.045 A 
ENDBRANCH  11  14
ENDBRANCH   5  10
ENDBRANCH   1   3
BRANCH   1  19
HETATM   19  O   UNL     1     -44.447  58.653 -51.848  1.00  0.00    -0.308 OA
BRANCH  19  20
HETATM   20  C   UNL     1     -43.931  59.650 -50.965  1.00  0.00     0.281 C 
BRANCH  20  21
HETATM   21  C   UNL     1     -44.969  60.232 -50.004  1.00  0.00     0.241 C 
HETATM   22  N   UNL     1     -44.432  60.898 -48.921  1.00  0.00    -0.359 N 
HETATM   23  H   UNL     1     -43.438  61.121 -48.955  1.00  0.00     0.162 HD
HETATM   24  O   UNL     1     -46.176  60.088 -50.174  1.00  0.00    -0.271 OA
BRANCH  22  25
HETATM   25  C   UNL     1     -45.283  61.587 -47.972  1.00  0.00     0.127 C 
BRANCH  25  26
HETATM   26  C   UNL     1     -45.330  60.867 -46.625  1.00  0.00     0.058 C 
BRANCH  26  27
HETATM   27  C   UNL     1     -44.920  61.768 -45.488  1.00  0.00    -0.057 A 
HETATM   28  C   UNL     1     -45.304  63.113 -45.479  1.00  0.00     0.010 A 
HETATM   29  C   UNL     1     -44.912  63.950 -44.432  1.00  0.00     0.037 A 
HETATM   30  C   UNL     1     -44.131  63.464 -43.383  1.00  0.00     0.068 A 
HETATM   31  C   UNL     1     -43.736  62.126 -43.392  1.00  0.00     0.037 A 
HETATM   32  C   UNL     1     -44.127  61.284 -44.440  1.00  0.00     0.010 A 
BRANCH  30  33
HETATM   33  O   UNL     1     -43.823  64.389 -42.424  1.00  0.00    -0.356 OA
HETATM   34  C   UNL     1     -43.938  63.972 -41.069  1.00  0.00     0.210 C 
ENDBRANCH  30  33
ENDBRANCH  26  27
ENDBRANCH  25  26
ENDBRANCH  22  25
ENDBRANCH  20  21
ENDBRANCH  19  20
ENDBRANCH   1  19
TORSDOF 10
ENDMDL
MODEL 7
REMARK VINA RESULT:      -6.8      1.785      4.075
REMARK  10 active torsions:
REMARK  status: ('A' for Active; 'I' for Inactive)
REMARK    1  A    between atoms: C_3  and  N_4 
REMARK       I    between atoms: N_4  and  C_5 
REMARK    2  A    between atoms: C_5  and  C_6 
REMARK    3  A    between atoms: C_13  and  C_14 
REMARK    4  A    between atoms: C_14  and  O_15 
REMARK    5  A    between atoms: O_15  and  C_16 
REMARK    6  A    between atoms: C_16  and  C_17 
REMARK       I    between atoms: C_17  and  N_18 
REMARK    7  A    between atoms: N_18  and  C_19 
REMARK    8  A    between atoms: C_19  and  C_20 
REMARK    9  A    between atoms: C_20  and  C_21 
REMARK   10  A    between atoms: C_24  and  O_25 
ROOT
HETATM    1  C   UNL     1     -41.161  59.041 -52.651  1.00  0.00     0.293 C 
HETATM    2  O   UNL     1     -40.163  59.116 -53.355  1.00  0.00    -0.259 OA
ENDROOT
BRANCH   1   3
HETATM    3  C   UNL     1     -41.782  57.762 -52.234  1.00  0.00     0.041 A 
HETATM    4  C   UNL     1     -41.272  56.526 -52.653  1.00  0.00     0.047 A 
HETATM    5  C   UNL     1     -41.881  55.325 -52.265  1.00  0.00     0.042 A 
HETATM    6  C   UNL     1     -43.025  55.374 -51.436  1.00  0.00    -0.035 A 
HETATM    7  C   UNL     1     -43.776  54.147 -50.989  1.00  0.00     0.050 C 
HETATM    8  C   UNL     1     -43.526  56.622 -51.022  1.00  0.00     0.010 A 
HETATM    9  C   UNL     1     -42.903  57.808 -51.406  1.00  0.00     0.018 A 
BRANCH   5  10
HETATM   10  N   UNL     1     -41.393  54.071 -52.696  1.00  0.00    -0.321 N 
HETATM   11  C   UNL     1     -40.379  53.307 -52.139  1.00  0.00     0.279 C 
HETATM   12  O   UNL     1     -39.754  53.589 -51.123  1.00  0.00    -0.265 OA
HETATM   13  H   UNL     1     -41.854  53.628 -53.481  1.00  0.00     0.169 HD
BRANCH  11  14
HETATM   14  C   UNL     1     -40.134  52.078 -52.871  1.00  0.00     0.142 A 
HETATM   15  O   UNL     1     -39.674  50.971 -52.203  1.00  0.00    -0.317 OA
HETATM   16  C   UNL     1     -39.547  49.978 -53.121  1.00  0.00     0.143 A 
HETATM   17  C   UNL     1     -39.906  50.423 -54.370  1.00  0.00     0.027 A 
HETATM   18  C   UNL     1     -40.284  51.776 -54.211  1.00  0.00     0.045 A 
ENDBRANCH  11  14
ENDBRANCH   5  10
ENDBRANCH   1   3
BRANCH   1  19
HETATM   19  O   UNL     1     -41.824  60.086 -52.105  1.00  0.00    -0.308 OA
BRANCH  19  20
HETATM   20  C   UNL     1     -42.368  61.029 -53.030  1.00  0.00     0.281 C 
BRANCH  20  21
HETATM   21  C   UNL     1     -43.860  60.841 -53.309  1.00  0.00     0.241 C 
HETATM   22  N   UNL     1     -44.213  60.973 -54.635  1.00  0.00    -0.359 N 
HETATM   23  H   UNL     1     -43.458  60.977 -55.322  1.00  0.00     0.162 HD
HETATM   24  O   UNL     1     -44.674  60.621 -52.415  1.00  0.00    -0.271 OA
BRANCH  22  25
HETATM   25  C   UNL     1     -45.572  60.730 -55.075  1.00  0.00     0.127 C 
BRANCH  25  26
HETATM   26  C   UNL     1     -45.616  59.847 -56.321  1.00  0.00     0.058 C 
BRANCH  26  27
HETATM   27  C   UNL     1     -44.757  58.617 -56.173  1.00  0.00    -0.057 A 
HETATM   28  C   UNL     1     -44.990  57.717 -55.127  1.00  0.00     0.010 A 
HETATM   29  C   UNL     1     -44.185  56.584 -54.982  1.00  0.00     0.037 A 
HETATM   30  C   UNL     1     -43.138  56.333 -55.870  1.00  0.00     0.068 A 
HETATM   31  C   UNL     1     -42.896  57.233 -56.907  1.00  0.00     0.037 A 
HETATM   32  C   UNL     1     -43.700  58.370 -57.056  1.00  0.00     0.010 A 
BRANCH  30  33
HETATM   33  O   UNL     1     -42.434  55.189 -55.614  1.00  0.00    -0.356 OA
HETATM   34  C   UNL     1     -43.177  53.977 -55.559  1.00  0.00     0.210 C 
ENDBRANCH  30  33
ENDBRANCH  26  27
ENDBRANCH  25  26
ENDBRANCH  22  25
ENDBRANCH  20  21
ENDBRANCH  19  20
ENDBRANCH   1  19
TORSDOF 10
ENDMDL
MODEL 8
REMARK VINA RESULT:      -6.7      2.670      5.426
REMARK  10 active torsions:
REMARK  status: ('A' for Active; 'I' for Inactive)
REMARK    1  A    between atoms: C_3  and  N_4 
REMARK       I    between atoms: N_4  and  C_5 
REMARK    2  A    between atoms: C_5  and  C_6 
REMARK    3  A    between atoms: C_13  and  C_14 
REMARK    4  A    between atoms: C_14  and  O_15 
REMARK    5  A    between atoms: O_15  and  C_16 
REMARK    6  A    between atoms: C_16  and  C_17 
REMARK       I    between atoms: C_17  and  N_18 
REMARK    7  A    between atoms: N_18  and  C_19 
REMARK    8  A    between atoms: C_19  and  C_20 
REMARK    9  A    between atoms: C_20  and  C_21 
REMARK   10  A    between atoms: C_24  and  O_25 
ROOT
HETATM    1  C   UNL     1     -41.339  58.907 -53.296  1.00  0.00     0.293 C 
HETATM    2  O   UNL     1     -40.156  59.214 -53.240  1.00  0.00    -0.259 OA
ENDROOT
BRANCH   1   3
HETATM    3  C   UNL     1     -41.830  57.609 -53.814  1.00  0.00     0.041 A 
HETATM    4  C   UNL     1     -41.303  56.391 -53.366  1.00  0.00     0.047 A 
HETATM    5  C   UNL     1     -41.765  55.171 -53.880  1.00  0.00     0.042 A 
HETATM    6  C   UNL     1     -42.782  55.184 -54.862  1.00  0.00    -0.035 A 
HETATM    7  C   UNL     1     -43.327  53.935 -55.504  1.00  0.00     0.050 C 
HETATM    8  C   UNL     1     -43.303  56.414 -55.302  1.00  0.00     0.010 A 
HETATM    9  C   UNL     1     -42.842  57.619 -54.774  1.00  0.00     0.018 A 
BRANCH   5  10
HETATM   10  N   UNL     1     -41.230  53.936 -53.455  1.00  0.00    -0.321 N 
HETATM   11  C   UNL     1     -40.295  53.139 -54.097  1.00  0.00     0.279 C 
HETATM   12  O   UNL     1     -39.733  53.413 -55.152  1.00  0.00    -0.265 OA
HETATM   13  H   UNL     1     -41.511  53.584 -52.548  1.00  0.00     0.169 HD
BRANCH  11  14
HETATM   14  C   UNL     1     -40.000  51.919 -53.368  1.00  0.00     0.142 A 
HETATM   15  O   UNL     1     -40.041  50.712 -54.020  1.00  0.00    -0.317 OA
HETATM   16  C   UNL     1     -39.715  49.758 -53.110  1.00  0.00     0.143 A 
HETATM   17  C   UNL     1     -39.476  50.322 -51.880  1.00  0.00     0.027 A 
HETATM   18  C   UNL     1     -39.659  51.714 -52.044  1.00  0.00     0.045 A 
ENDBRANCH  11  14
ENDBRANCH   5  10
ENDBRANCH   1   3
BRANCH   1  19
HETATM   19  O   UNL     1     -42.374  59.662 -52.861  1.00  0.00    -0.308 OA
BRANCH  19  20
HETATM   20  C   UNL     1     -42.476  60.967 -53.433  1.00  0.00     0.281 C 
BRANCH  20  21
HETATM   21  C   UNL     1     -43.057  60.985 -54.848  1.00  0.00     0.241 C 
HETATM   22  N   UNL     1     -42.116  61.100 -55.850  1.00  0.00    -0.359 N 
HETATM   23  H   UNL     1     -41.139  60.959 -55.592  1.00  0.00     0.162 HD
HETATM   24  O   UNL     1     -44.265  60.931 -55.063  1.00  0.00    -0.271 OA
BRANCH  22  25
HETATM   25  C   UNL     1     -42.499  61.036 -57.246  1.00  0.00     0.127 C 
BRANCH  25  26
HETATM   26  C   UNL     1     -41.709  59.969 -58.002  1.00  0.00     0.058 C 
BRANCH  26  27
HETATM   27  C   UNL     1     -42.570  58.790 -58.380  1.00  0.00    -0.057 A 
HETATM   28  C   UNL     1     -42.003  57.675 -59.008  1.00  0.00     0.010 A 
HETATM   29  C   UNL     1     -42.803  56.589 -59.370  1.00  0.00     0.037 A 
HETATM   30  C   UNL     1     -44.177  56.598 -59.118  1.00  0.00     0.068 A 
HETATM   31  C   UNL     1     -44.748  57.712 -58.503  1.00  0.00     0.037 A 
HETATM   32  C   UNL     1     -43.948  58.802 -58.138  1.00  0.00     0.010 A 
BRANCH  30  33
HETATM   33  O   UNL     1     -44.838  55.471 -59.520  1.00  0.00    -0.356 OA
HETATM   34  C   UNL     1     -45.842  55.636 -60.514  1.00  0.00     0.210 C 
ENDBRANCH  30  33
ENDBRANCH  26  27
ENDBRANCH  25  26
ENDBRANCH  22  25
ENDBRANCH  20  21
ENDBRANCH  19  20
ENDBRANCH   1  19
TORSDOF 10
ENDMDL
MODEL 9
REMARK VINA RESULT:      -6.5      3.099      6.612
REMARK  10 active torsions:
REMARK  status: ('A' for Active; 'I' for Inactive)
REMARK    1  A    between atoms: C_3  and  N_4 
REMARK       I    between atoms: N_4  and  C_5 
REMARK    2  A    between atoms: C_5  and  C_6 
REMARK    3  A    between atoms: C_13  and  C_14 
REMARK    4  A    between atoms: C_14  and  O_15 
REMARK    5  A    between atoms: O_15  and  C_16 
REMARK    6  A    between atoms: C_16  and  C_17 
REMARK       I    between atoms: C_17  and  N_18 
REMARK    7  A    between atoms: N_18  and  C_19 
REMARK    8  A    between atoms: C_19  and  C_20 
REMARK    9  A    between atoms: C_20  and  C_21 
REMARK   10  A    between atoms: C_24  and  O_25 
ROOT
HETATM    1  C   UNL     1     -40.724  53.814 -54.579  1.00  0.00     0.293 C 
HETATM    2  O   UNL     1     -39.688  53.445 -55.116  1.00  0.00    -0.259 OA
ENDROOT
BRANCH   1   3
HETATM    3  C   UNL     1     -41.457  55.044 -54.961  1.00  0.00     0.041 A 
HETATM    4  C   UNL     1     -42.403  55.046 -55.994  1.00  0.00     0.047 A 
HETATM    5  C   UNL     1     -43.075  56.221 -56.356  1.00  0.00     0.042 A 
HETATM    6  C   UNL     1     -42.789  57.416 -55.657  1.00  0.00    -0.035 A 
HETATM    7  C   UNL     1     -43.428  58.740 -55.985  1.00  0.00     0.050 C 
HETATM    8  C   UNL     1     -41.838  57.399 -54.620  1.00  0.00     0.010 A 
HETATM    9  C   UNL     1     -41.185  56.221 -54.264  1.00  0.00     0.018 A 
BRANCH   5  10
HETATM   10  N   UNL     1     -44.015  56.245 -57.409  1.00  0.00    -0.321 N 
HETATM   11  C   UNL     1     -43.779  56.175 -58.773  1.00  0.00     0.279 C 
HETATM   12  O   UNL     1     -42.680  56.031 -59.296  1.00  0.00    -0.265 OA
HETATM   13  H   UNL     1     -44.999  56.270 -57.166  1.00  0.00     0.169 HD
BRANCH  11  14
HETATM   14  C   UNL     1     -44.996  56.254 -59.560  1.00  0.00     0.142 A 
HETATM   15  O   UNL     1     -45.998  57.108 -59.174  1.00  0.00    -0.317 OA
HETATM   16  C   UNL     1     -46.997  56.986 -60.087  1.00  0.00     0.143 A 
HETATM   17  C   UNL     1     -46.666  56.062 -61.048  1.00  0.00     0.027 A 
HETATM   18  C   UNL     1     -45.377  55.589 -60.710  1.00  0.00     0.045 A 
ENDBRANCH  11  14
ENDBRANCH   5  10
ENDBRANCH   1   3
BRANCH   1  19
HETATM   19  O   UNL     1     -41.386  53.155 -53.602  1.00  0.00    -0.308 OA
BRANCH  19  20
HETATM   20  C   UNL     1     -40.591  52.713 -52.501  1.00  0.00     0.281 C 
BRANCH  20  21
HETATM   21  C   UNL     1     -40.575  53.678 -51.314  1.00  0.00     0.241 C 
HETATM   22  N   UNL     1     -41.713  54.447 -51.190  1.00  0.00    -0.359 N 
HETATM   23  H   UNL     1     -42.524  54.177 -51.747  1.00  0.00     0.162 HD
HETATM   24  O   UNL     1     -39.611  53.775 -50.558  1.00  0.00    -0.271 OA
BRANCH  22  25
HETATM   25  C   UNL     1     -41.891  55.341 -50.063  1.00  0.00     0.127 C 
BRANCH  25  26
HETATM   26  C   UNL     1     -41.425  56.760 -50.385  1.00  0.00     0.058 C 
BRANCH  26  27
HETATM   27  C   UNL     1     -42.502  57.569 -51.063  1.00  0.00    -0.057 A 
HETATM   28  C   UNL     1     -43.706  56.965 -51.439  1.00  0.00     0.010 A 
HETATM   29  C   UNL     1     -44.698  57.712 -52.079  1.00  0.00     0.037 A 
HETATM   30  C   UNL     1     -44.505  59.066 -52.357  1.00  0.00     0.068 A 
HETATM   31  C   UNL     1     -43.301  59.670 -51.994  1.00  0.00     0.037 A 
HETATM   32  C   UNL     1     -42.305  58.924 -51.351  1.00  0.00     0.010 A 
BRANCH  30  33
HETATM   33  O   UNL     1     -45.557  59.676 -52.983  1.00  0.00    -0.356 OA
HETATM   34  C   UNL     1     -46.343  60.565 -52.198  1.00  0.00     0.210 C 
ENDBRANCH  30  33
ENDBRANCH  26  27
ENDBRANCH  25  26
ENDBRANCH  22  25
ENDBRANCH  20  21
ENDBRANCH  19  20
ENDBRANCH   1  19
TORSDOF 10
ENDMDL
MODEL 10
REMARK VINA RESULT:      -6.5      2.605      6.800
REMARK  10 active torsions:
REMARK  status: ('A' for Active; 'I' for Inactive)
REMARK    1  A    between atoms: C_3  and  N_4 
REMARK       I    between atoms: N_4  and  C_5 
REMARK    2  A    between atoms: C_5  and  C_6 
REMARK    3  A    between atoms: C_13  and  C_14 
REMARK    4  A    between atoms: C_14  and  O_15 
REMARK    5  A    between atoms: O_15  and  C_16 
REMARK    6  A    between atoms: C_16  and  C_17 
REMARK       I    between atoms: C_17  and  N_18 
REMARK    7  A    between atoms: N_18  and  C_19 
REMARK    8  A    between atoms: C_19  and  C_20 
REMARK    9  A    between atoms: C_20  and  C_21 
REMARK   10  A    between atoms: C_24  and  O_25 
ROOT
HETATM    1  C   UNL     1     -42.235  60.178 -55.888  1.00  0.00     0.293 C 
HETATM    2  O   UNL     1     -42.825  61.219 -56.143  1.00  0.00    -0.259 OA
ENDROOT
BRANCH   1   3
HETATM    3  C   UNL     1     -42.114  59.612 -54.524  1.00  0.00     0.041 A 
HETATM    4  C   UNL     1     -42.771  60.186 -53.428  1.00  0.00     0.047 A 
HETATM    5  C   UNL     1     -42.632  59.650 -52.140  1.00  0.00     0.042 A 
HETATM    6  C   UNL     1     -41.815  58.511 -51.958  1.00  0.00    -0.035 A 
HETATM    7  C   UNL     1     -41.568  57.876 -50.614  1.00  0.00     0.050 C 
HETATM    8  C   UNL     1     -41.160  57.944 -53.068  1.00  0.00     0.010 A 
HETATM    9  C   UNL     1     -41.318  58.481 -54.344  1.00  0.00     0.018 A 
BRANCH   5  10
HETATM   10  N   UNL     1     -43.270  60.228 -51.022  1.00  0.00    -0.321 N 
HETATM   11  C   UNL     1     -44.584  60.074 -50.608  1.00  0.00     0.279 C 
HETATM   12  O   UNL     1     -45.417  59.351 -51.143  1.00  0.00    -0.265 OA
HETATM   13  H   UNL     1     -42.710  60.796 -50.397  1.00  0.00     0.169 HD
BRANCH  11  14
HETATM   14  C   UNL     1     -44.894  60.847 -49.419  1.00  0.00     0.142 A 
HETATM   15  O   UNL     1     -45.862  60.401 -48.554  1.00  0.00    -0.317 OA
HETATM   16  C   UNL     1     -45.932  61.301 -47.539  1.00  0.00     0.143 A 
HETATM   17  C   UNL     1     -45.038  62.325 -47.736  1.00  0.00     0.027 A 
HETATM   18  C   UNL     1     -44.368  62.035 -48.946  1.00  0.00     0.045 A 
ENDBRANCH  11  14
ENDBRANCH   5  10
ENDBRANCH   1   3
BRANCH   1  19
HETATM   19  O   UNL     1     -41.649  59.359 -56.791  1.00  0.00    -0.308 OA
BRANCH  19  20
HETATM   20  C   UNL     1     -42.489  58.897 -57.849  1.00  0.00     0.281 C 
BRANCH  20  21
HETATM   21  C   UNL     1     -43.125  57.530 -57.591  1.00  0.00     0.241 C 
HETATM   22  N   UNL     1     -42.277  56.608 -57.014  1.00  0.00    -0.359 N 
HETATM   23  H   UNL     1     -41.398  56.956 -56.630  1.00  0.00     0.162 HD
HETATM   24  O   UNL     1     -44.285  57.274 -57.903  1.00  0.00    -0.271 OA
BRANCH  22  25
HETATM   25  C   UNL     1     -42.754  55.298 -56.620  1.00  0.00     0.127 C 
BRANCH  25  26
HETATM   26  C   UNL     1     -43.221  55.278 -55.165  1.00  0.00     0.058 C 
BRANCH  26  27
HETATM   27  C   UNL     1     -42.258  54.537 -54.272  1.00  0.00    -0.057 A 
HETATM   28  C   UNL     1     -42.439  54.538 -52.885  1.00  0.00     0.010 A 
HETATM   29  C   UNL     1     -41.538  53.863 -52.057  1.00  0.00     0.037 A 
HETATM   30  C   UNL     1     -40.444  53.184 -52.596  1.00  0.00     0.068 A 
HETATM   31  C   UNL     1     -40.253  53.190 -53.978  1.00  0.00     0.037 A 
HETATM   32  C   UNL     1     -41.154  53.865 -54.811  1.00  0.00     0.010 A 
BRANCH  30  33
HETATM   33  O   UNL     1     -39.646  52.565 -51.674  1.00  0.00    -0.356 OA
HETATM   34  C   UNL     1     -40.292  52.011 -50.534  1.00  0.00     0.210 C 
ENDBRANCH  30  33
ENDBRANCH  26  27
ENDBRANCH  25  26
ENDBRANCH  22  25
ENDBRANCH  20  21
ENDBRANCH  19  20
ENDBRANCH   1  19
TORSDOF 10
ENDMDL
