MODEL 1
REMARK VINA RESULT:      -8.8      0.000      0.000
REMARK  5 active torsions:
REMARK  status: ('A' for Active; 'I' for Inactive)
REMARK    1  A    between atoms: C_6  and  N_7 
REMARK       I    between atoms: N_7  and  C_8 
REMARK       I    between atoms: C_8  and  N_9 
REMARK    2  A    between atoms: N_9  and  N_10 
REMARK       I    between atoms: N_10  and  C_11 
REMARK    3  A    between atoms: C_11  and  C_12 
REMARK    4  A    between atoms: C_12  and  N_13 
REMARK       I    between atoms: N_13  and  C_14 
REMARK       I    between atoms: C_14  and  N_15 
REMARK    5  A    between atoms: N_15  and  C_16 
ROOT
HETATM    1  N   UNL     1     -43.889  56.134 -57.117  1.00  0.00    -0.265 N 
HETATM    2  C   UNL     1     -43.011  57.097 -56.646  1.00  0.00     0.253 C 
HETATM    3  O   UNL     1     -42.198  57.668 -57.377  1.00  0.00    -0.270 OA
HETATM    4  H   UNL     1     -44.177  55.421 -56.436  1.00  0.00     0.190 HD
ENDROOT
BRANCH   2   5
HETATM    5  C   UNL     1     -42.949  57.270 -55.121  1.00  0.00     0.228 C 
BRANCH   5   6
HETATM    6  N   UNL     1     -41.838  56.695 -54.373  1.00  0.00    -0.334 N 
HETATM    7  C   UNL     1     -41.871  55.381 -53.972  1.00  0.00     0.321 C 
HETATM    8  N   UNL     1     -40.617  54.881 -53.714  1.00  0.00    -0.309 N 
HETATM    9  O   UNL     1     -42.936  54.786 -53.857  1.00  0.00    -0.247 OA
HETATM   10  H   UNL     1     -39.841  55.400 -54.097  1.00  0.00     0.170 HD
HETATM   11  H   UNL     1     -40.932  57.092 -54.570  1.00  0.00     0.164 HD
BRANCH   8  12
HETATM   12  C   UNL     1     -40.313  53.605 -53.194  1.00  0.00     0.038 A 
HETATM   13  C   UNL     1     -40.084  52.479 -53.989  1.00  0.00     0.055 A 
HETATM   14  C   UNL     1     -39.799  51.238 -53.404  1.00  0.00     0.058 A 
HETATM   15 CL   UNL     1     -39.550  49.891 -54.457  1.00  0.00    -0.082 Cl
HETATM   16  C   UNL     1     -39.736  51.118 -52.013  1.00  0.00     0.055 A 
HETATM   17 CL   UNL     1     -39.382  49.625 -51.221  1.00  0.00    -0.083 Cl
HETATM   18  C   UNL     1     -39.970  52.238 -51.213  1.00  0.00     0.028 A 
HETATM   19  C   UNL     1     -40.266  53.472 -51.800  1.00  0.00     0.031 A 
ENDBRANCH   8  12
ENDBRANCH   5   6
ENDBRANCH   2   5
BRANCH   1  20
HETATM   20  N   UNL     1     -43.614  55.630 -58.407  1.00  0.00    -0.249 N 
HETATM   21  C   UNL     1     -44.335  55.980 -59.527  1.00  0.00     0.339 C 
HETATM   22  N   UNL     1     -45.461  56.715 -59.254  1.00  0.00    -0.308 N 
HETATM   23  O   UNL     1     -43.939  55.624 -60.632  1.00  0.00    -0.245 OA
HETATM   24  H   UNL     1     -45.523  56.999 -58.287  1.00  0.00     0.170 HD
HETATM   25  H   UNL     1     -42.674  55.282 -58.582  1.00  0.00     0.192 HD
BRANCH  22  26
HETATM   26  C   UNL     1     -46.422  57.197 -60.161  1.00  0.00     0.038 A 
HETATM   27  C   UNL     1     -46.712  58.554 -60.334  1.00  0.00     0.053 A 
HETATM   28  C   UNL     1     -47.683  58.949 -61.258  1.00  0.00     0.036 A 
HETATM   29  C   UNL     1     -48.374  58.005 -62.013  1.00  0.00     0.024 A 
HETATM   30 CL   UNL     1     -48.031  60.623 -61.470  1.00  0.00    -0.084 Cl
HETATM   31  C   UNL     1     -48.088  56.652 -61.849  1.00  0.00     0.004 A 
HETATM   32  C   UNL     1     -47.113  56.252 -60.930  1.00  0.00     0.029 A 
ENDBRANCH  22  26
ENDBRANCH   1  20
TORSDOF 5
ENDMDL
MODEL 2
REMARK VINA RESULT:      -8.5      2.036      3.133
REMARK  5 active torsions:
REMARK  status: ('A' for Active; 'I' for Inactive)
REMARK    1  A    between atoms: C_6  and  N_7 
REMARK       I    between atoms: N_7  and  C_8 
REMARK       I    between atoms: C_8  and  N_9 
REMARK    2  A    between atoms: N_9  and  N_10 
REMARK       I    between atoms: N_10  and  C_11 
REMARK    3  A    between atoms: C_11  and  C_12 
REMARK    4  A    between atoms: C_12  and  N_13 
REMARK       I    between atoms: N_13  and  C_14 
REMARK       I    between atoms: C_14  and  N_15 
REMARK    5  A    between atoms: N_15  and  C_16 
ROOT
HETATM    1  N   UNL     1     -42.793  58.630 -55.009  1.00  0.00    -0.265 N 
HETATM    2  C   UNL     1     -42.127  58.977 -53.844  1.00  0.00     0.253 C 
HETATM    3  O   UNL     1     -41.094  59.649 -53.846  1.00  0.00    -0.270 OA
HETATM    4  H   UNL     1     -43.323  57.751 -54.975  1.00  0.00     0.190 HD
ENDROOT
BRANCH   2   5
HETATM    5  C   UNL     1     -42.620  58.302 -52.555  1.00  0.00     0.228 C 
BRANCH   5   6
HETATM    6  N   UNL     1     -41.885  57.167 -52.007  1.00  0.00    -0.334 N 
HETATM    7  C   UNL     1     -41.835  55.973 -52.687  1.00  0.00     0.321 C 
HETATM    8  N   UNL     1     -40.767  55.198 -52.302  1.00  0.00    -0.309 N 
HETATM    9  O   UNL     1     -42.691  55.686 -53.514  1.00  0.00    -0.247 OA
HETATM   10  H   UNL     1     -40.024  55.673 -51.812  1.00  0.00     0.170 HD
HETATM   11  H   UNL     1     -41.090  57.403 -51.434  1.00  0.00     0.164 HD
BRANCH   8  12
HETATM   12  C   UNL     1     -40.487  53.884 -52.732  1.00  0.00     0.038 A 
HETATM   13  C   UNL     1     -40.190  52.832 -51.862  1.00  0.00     0.055 A 
HETATM   14  C   UNL     1     -39.907  51.552 -52.360  1.00  0.00     0.058 A 
HETATM   15 CL   UNL     1     -39.528  50.311 -51.218  1.00  0.00    -0.082 Cl
HETATM   16  C   UNL     1     -39.928  51.316 -53.737  1.00  0.00     0.055 A 
HETATM   17 CL   UNL     1     -39.599  49.766 -54.423  1.00  0.00    -0.083 Cl
HETATM   18  C   UNL     1     -40.219  52.365 -54.612  1.00  0.00     0.028 A 
HETATM   19  C   UNL     1     -40.487  53.644 -54.112  1.00  0.00     0.031 A 
ENDBRANCH   8  12
ENDBRANCH   5   6
ENDBRANCH   2   5
BRANCH   1  20
HETATM   20  N   UNL     1     -42.080  58.835 -56.209  1.00  0.00    -0.249 N 
HETATM   21  C   UNL     1     -42.482  58.331 -57.427  1.00  0.00     0.339 C 
HETATM   22  N   UNL     1     -43.535  57.455 -57.342  1.00  0.00    -0.308 N 
HETATM   23  O   UNL     1     -41.897  58.682 -58.445  1.00  0.00    -0.245 OA
HETATM   24  H   UNL     1     -43.941  57.411 -56.418  1.00  0.00     0.170 HD
HETATM   25  H   UNL     1     -41.460  59.640 -56.252  1.00  0.00     0.192 HD
BRANCH  22  26
HETATM   26  C   UNL     1     -44.158  56.746 -58.385  1.00  0.00     0.038 A 
HETATM   27  C   UNL     1     -45.330  57.171 -59.019  1.00  0.00     0.053 A 
HETATM   28  C   UNL     1     -45.885  56.407 -60.048  1.00  0.00     0.036 A 
HETATM   29  C   UNL     1     -45.285  55.217 -60.455  1.00  0.00     0.024 A 
HETATM   30 CL   UNL     1     -47.326  56.938 -60.828  1.00  0.00    -0.084 Cl
HETATM   31  C   UNL     1     -44.115  54.790 -59.832  1.00  0.00     0.004 A 
HETATM   32  C   UNL     1     -43.554  55.554 -58.805  1.00  0.00     0.029 A 
ENDBRANCH  22  26
ENDBRANCH   1  20
TORSDOF 5
ENDMDL
MODEL 3
REMARK VINA RESULT:      -8.4      4.189      6.541
REMARK  5 active torsions:
REMARK  status: ('A' for Active; 'I' for Inactive)
REMARK    1  A    between atoms: C_6  and  N_7 
REMARK       I    between atoms: N_7  and  C_8 
REMARK       I    between atoms: C_8  and  N_9 
REMARK    2  A    between atoms: N_9  and  N_10 
REMARK       I    between atoms: N_10  and  C_11 
REMARK    3  A    between atoms: C_11  and  C_12 
REMARK    4  A    between atoms: C_12  and  N_13 
REMARK       I    between atoms: N_13  and  C_14 
REMARK       I    between atoms: C_14  and  N_15 
REMARK    5  A    between atoms: N_15  and  C_16 
ROOT
HETATM    1  N   UNL     1     -42.137  57.486 -57.537  1.00  0.00    -0.265 N 
HETATM    2  C   UNL     1     -43.270  56.810 -57.964  1.00  0.00     0.253 C 
HETATM    3  O   UNL     1     -44.286  57.395 -58.344  1.00  0.00    -0.270 OA
HETATM    4  H   UNL     1     -41.558  56.994 -56.846  1.00  0.00     0.190 HD
ENDROOT
BRANCH   2   5
HETATM    5  C   UNL     1     -43.277  55.291 -57.740  1.00  0.00     0.228 C 
BRANCH   5   6
HETATM    6  N   UNL     1     -43.479  54.759 -56.397  1.00  0.00    -0.334 N 
HETATM    7  C   UNL     1     -42.437  54.708 -55.502  1.00  0.00     0.321 C 
HETATM    8  N   UNL     1     -42.871  54.636 -54.200  1.00  0.00    -0.309 N 
HETATM    9  O   UNL     1     -41.275  54.708 -55.891  1.00  0.00    -0.247 OA
HETATM   10  H   UNL     1     -43.830  54.903 -54.032  1.00  0.00     0.170 HD
HETATM   11  H   UNL     1     -44.405  54.883 -56.018  1.00  0.00     0.164 HD
BRANCH   8  12
HETATM   12  C   UNL     1     -42.063  54.473 -53.055  1.00  0.00     0.038 A 
HETATM   13  C   UNL     1     -41.270  53.346 -52.821  1.00  0.00     0.055 A 
HETATM   14  C   UNL     1     -40.502  53.244 -51.653  1.00  0.00     0.058 A 
HETATM   15 CL   UNL     1     -39.566  51.809 -51.428  1.00  0.00    -0.082 Cl
HETATM   16  C   UNL     1     -40.518  54.278 -50.712  1.00  0.00     0.055 A 
HETATM   17 CL   UNL     1     -39.592  54.227 -49.256  1.00  0.00    -0.083 Cl
HETATM   18  C   UNL     1     -41.312  55.403 -50.938  1.00  0.00     0.028 A 
HETATM   19  C   UNL     1     -42.088  55.496 -52.098  1.00  0.00     0.031 A 
ENDBRANCH   8  12
ENDBRANCH   5   6
ENDBRANCH   2   5
BRANCH   1  20
HETATM   20  N   UNL     1     -42.302  58.864 -57.283  1.00  0.00    -0.249 N 
HETATM   21  C   UNL     1     -42.137  59.432 -56.039  1.00  0.00     0.339 C 
HETATM   22  N   UNL     1     -41.982  58.516 -55.029  1.00  0.00    -0.308 N 
HETATM   23  O   UNL     1     -42.144  60.654 -55.930  1.00  0.00    -0.245 OA
HETATM   24  H   UNL     1     -41.882  57.568 -55.366  1.00  0.00     0.170 HD
HETATM   25  H   UNL     1     -42.201  59.500 -58.071  1.00  0.00     0.192 HD
BRANCH  22  26
HETATM   26  C   UNL     1     -41.826  58.762 -53.653  1.00  0.00     0.038 A 
HETATM   27  C   UNL     1     -40.584  58.882 -53.023  1.00  0.00     0.053 A 
HETATM   28  C   UNL     1     -40.516  59.126 -51.649  1.00  0.00     0.036 A 
HETATM   29  C   UNL     1     -41.678  59.251 -50.891  1.00  0.00     0.024 A 
HETATM   30 CL   UNL     1     -38.982  59.278 -50.881  1.00  0.00    -0.084 Cl
HETATM   31  C   UNL     1     -42.919  59.137 -51.512  1.00  0.00     0.004 A 
HETATM   32  C   UNL     1     -42.991  58.898 -52.887  1.00  0.00     0.029 A 
ENDBRANCH  22  26
ENDBRANCH   1  20
TORSDOF 5
ENDMDL
MODEL 4
REMARK VINA RESULT:      -8.4      6.731     10.615
REMARK  5 active torsions:
REMARK  status: ('A' for Active; 'I' for Inactive)
REMARK    1  A    between atoms: C_6  and  N_7 
REMARK       I    between atoms: N_7  and  C_8 
REMARK       I    between atoms: C_8  and  N_9 
REMARK    2  A    between atoms: N_9  and  N_10 
REMARK       I    between atoms: N_10  and  C_11 
REMARK    3  A    between atoms: C_11  and  C_12 
REMARK    4  A    between atoms: C_12  and  N_13 
REMARK       I    between atoms: N_13  and  C_14 
REMARK       I    between atoms: C_14  and  N_15 
REMARK    5  A    between atoms: N_15  and  C_16 
ROOT
HETATM    1  N   UNL     1     -44.546  56.177 -53.570  1.00  0.00    -0.265 N 
HETATM    2  C   UNL     1     -44.146  57.396 -53.044  1.00  0.00     0.253 C 
HETATM    3  O   UNL     1     -43.461  58.199 -53.681  1.00  0.00    -0.270 OA
HETATM    4  H   UNL     1     -44.690  55.422 -52.889  1.00  0.00     0.190 HD
ENDROOT
BRANCH   2   5
HETATM    5  C   UNL     1     -44.417  57.609 -51.547  1.00  0.00     0.228 C 
BRANCH   5   6
HETATM    6  N   UNL     1     -44.285  58.943 -50.973  1.00  0.00    -0.334 N 
HETATM    7  C   UNL     1     -45.250  59.440 -50.129  1.00  0.00     0.321 C 
HETATM    8  N   UNL     1     -44.777  60.456 -49.335  1.00  0.00    -0.309 N 
HETATM    9  O   UNL     1     -46.391  58.994 -50.150  1.00  0.00    -0.247 OA
HETATM   10  H   UNL     1     -43.773  60.530 -49.253  1.00  0.00     0.170 HD
HETATM   11  H   UNL     1     -43.339  59.260 -50.825  1.00  0.00     0.164 HD
BRANCH   8  12
HETATM   12  C   UNL     1     -45.531  61.239 -48.437  1.00  0.00     0.038 A 
HETATM   13  C   UNL     1     -46.408  62.250 -48.839  1.00  0.00     0.055 A 
HETATM   14  C   UNL     1     -47.117  62.999 -47.890  1.00  0.00     0.058 A 
HETATM   15 CL   UNL     1     -48.165  64.246 -48.469  1.00  0.00    -0.082 Cl
HETATM   16  C   UNL     1     -46.956  62.735 -46.527  1.00  0.00     0.055 A 
HETATM   17 CL   UNL     1     -47.801  63.609 -45.302  1.00  0.00    -0.083 Cl
HETATM   18  C   UNL     1     -46.077  61.730 -46.119  1.00  0.00     0.028 A 
HETATM   19  C   UNL     1     -45.361  60.993 -47.068  1.00  0.00     0.031 A 
ENDBRANCH   8  12
ENDBRANCH   5   6
ENDBRANCH   2   5
BRANCH   1  20
HETATM   20  N   UNL     1     -43.894  55.775 -54.756  1.00  0.00    -0.249 N 
HETATM   21  C   UNL     1     -42.918  54.804 -54.793  1.00  0.00     0.339 C 
HETATM   22  N   UNL     1     -42.500  54.392 -53.553  1.00  0.00    -0.308 N 
HETATM   23  O   UNL     1     -42.512  54.401 -55.878  1.00  0.00    -0.245 OA
HETATM   24  H   UNL     1     -43.060  54.768 -52.801  1.00  0.00     0.170 HD
HETATM   25  H   UNL     1     -44.377  55.944 -55.635  1.00  0.00     0.192 HD
BRANCH  22  26
HETATM   26  C   UNL     1     -41.504  53.448 -53.244  1.00  0.00     0.038 A 
HETATM   27  C   UNL     1     -41.164  52.378 -54.078  1.00  0.00     0.053 A 
HETATM   28  C   UNL     1     -40.162  51.484 -53.696  1.00  0.00     0.036 A 
HETATM   29  C   UNL     1     -39.491  51.641 -52.485  1.00  0.00     0.024 A 
HETATM   30 CL   UNL     1     -39.745  50.172 -54.731  1.00  0.00    -0.084 Cl
HETATM   31  C   UNL     1     -39.820  52.706 -51.651  1.00  0.00     0.004 A 
HETATM   32  C   UNL     1     -40.819  53.607 -52.032  1.00  0.00     0.029 A 
ENDBRANCH  22  26
ENDBRANCH   1  20
TORSDOF 5
ENDMDL
MODEL 5
REMARK VINA RESULT:      -8.4      3.895      9.041
REMARK  5 active torsions:
REMARK  status: ('A' for Active; 'I' for Inactive)
REMARK    1  A    between atoms: C_6  and  N_7 
REMARK       I    between atoms: N_7  and  C_8 
REMARK       I    between atoms: C_8  and  N_9 
REMARK    2  A    between atoms: N_9  and  N_10 
REMARK       I    between atoms: N_10  and  C_11 
REMARK    3  A    between atoms: C_11  and  C_12 
REMARK    4  A    between atoms: C_12  and  N_13 
REMARK       I    between atoms: N_13  and  C_14 
REMARK       I    between atoms: C_14  and  N_15 
REMARK    5  A    between atoms: N_15  and  C_16 
ROOT
HETATM    1  N   UNL     1     -41.990  57.815 -50.714  1.00  0.00    -0.265 N 
HETATM    2  C   UNL     1     -42.602  58.973 -51.170  1.00  0.00     0.253 C 
HETATM    3  O   UNL     1     -43.825  59.124 -51.160  1.00  0.00    -0.270 OA
HETATM    4  H   UNL     1     -41.092  57.582 -51.154  1.00  0.00     0.190 HD
ENDROOT
BRANCH   2   5
HETATM    5  C   UNL     1     -41.693  59.981 -51.890  1.00  0.00     0.228 C 
BRANCH   5   6
HETATM    6  N   UNL     1     -41.805  60.150 -53.334  1.00  0.00    -0.334 N 
HETATM    7  C   UNL     1     -41.874  59.057 -54.163  1.00  0.00     0.321 C 
HETATM    8  N   UNL     1     -42.431  59.360 -55.382  1.00  0.00    -0.309 N 
HETATM    9  O   UNL     1     -41.449  57.966 -53.800  1.00  0.00    -0.247 OA
HETATM   10  H   UNL     1     -42.958  60.219 -55.432  1.00  0.00     0.170 HD
HETATM   11  H   UNL     1     -42.282  60.986 -53.636  1.00  0.00     0.164 HD
BRANCH   8  12
HETATM   12  C   UNL     1     -42.556  58.491 -56.487  1.00  0.00     0.038 A 
HETATM   13  C   UNL     1     -42.147  58.822 -57.782  1.00  0.00     0.055 A 
HETATM   14  C   UNL     1     -42.314  57.914 -58.836  1.00  0.00     0.058 A 
HETATM   15 CL   UNL     1     -41.803  58.408 -60.411  1.00  0.00    -0.082 Cl
HETATM   16  C   UNL     1     -42.887  56.661 -58.598  1.00  0.00     0.055 A 
HETATM   17 CL   UNL     1     -43.115  55.488 -59.844  1.00  0.00    -0.083 Cl
HETATM   18  C   UNL     1     -43.302  56.327 -57.307  1.00  0.00     0.028 A 
HETATM   19  C   UNL     1     -43.146  57.241 -56.260  1.00  0.00     0.031 A 
ENDBRANCH   8  12
ENDBRANCH   5   6
ENDBRANCH   2   5
BRANCH   1  20
HETATM   20  N   UNL     1     -42.843  56.709 -50.509  1.00  0.00    -0.249 N 
HETATM   21  C   UNL     1     -42.566  55.442 -50.972  1.00  0.00     0.339 C 
HETATM   22  N   UNL     1     -41.483  55.384 -51.811  1.00  0.00    -0.308 N 
HETATM   23  O   UNL     1     -43.276  54.505 -50.620  1.00  0.00    -0.245 OA
HETATM   24  H   UNL     1     -40.973  56.254 -51.861  1.00  0.00     0.170 HD
HETATM   25  H   UNL     1     -43.490  56.757 -49.725  1.00  0.00     0.192 HD
BRANCH  22  26
HETATM   26  C   UNL     1     -40.961  54.259 -52.475  1.00  0.00     0.038 A 
HETATM   27  C   UNL     1     -40.467  53.129 -51.815  1.00  0.00     0.053 A 
HETATM   28  C   UNL     1     -39.965  52.053 -52.550  1.00  0.00     0.036 A 
HETATM   29  C   UNL     1     -39.946  52.088 -53.942  1.00  0.00     0.024 A 
HETATM   30 CL   UNL     1     -39.364  50.662 -51.730  1.00  0.00    -0.084 Cl
HETATM   31  C   UNL     1     -40.439  53.208 -54.607  1.00  0.00     0.004 A 
HETATM   32  C   UNL     1     -40.948  54.285 -53.876  1.00  0.00     0.029 A 
ENDBRANCH  22  26
ENDBRANCH   1  20
TORSDOF 5
ENDMDL
MODEL 6
REMARK VINA RESULT:      -8.4      3.656      6.241
REMARK  5 active torsions:
REMARK  status: ('A' for Active; 'I' for Inactive)
REMARK    1  A    between atoms: C_6  and  N_7 
REMARK       I    between atoms: N_7  and  C_8 
REMARK       I    between atoms: C_8  and  N_9 
REMARK    2  A    between atoms: N_9  and  N_10 
REMARK       I    between atoms: N_10  and  C_11 
REMARK    3  A    between atoms: C_11  and  C_12 
REMARK    4  A    between atoms: C_12  and  N_13 
REMARK       I    between atoms: N_13  and  C_14 
REMARK       I    between atoms: C_14  and  N_15 
REMARK    5  A    between atoms: N_15  and  C_16 
ROOT
HETATM    1  N   UNL     1     -44.183  58.791 -58.406  1.00  0.00    -0.265 N 
HETATM    2  C   UNL     1     -44.963  57.745 -58.871  1.00  0.00     0.253 C 
HETATM    3  O   UNL     1     -46.182  57.697 -58.694  1.00  0.00    -0.270 OA
HETATM    4  H   UNL     1     -43.208  58.557 -58.185  1.00  0.00     0.190 HD
ENDROOT
BRANCH   2   5
HETATM    5  C   UNL     1     -44.205  56.534 -59.437  1.00  0.00     0.228 C 
BRANCH   5   6
HETATM    6  N   UNL     1     -43.904  55.401 -58.569  1.00  0.00    -0.334 N 
HETATM    7  C   UNL     1     -43.164  55.576 -57.424  1.00  0.00     0.321 C 
HETATM    8  N   UNL     1     -43.362  54.564 -56.515  1.00  0.00    -0.309 N 
HETATM    9  O   UNL     1     -42.415  56.538 -57.301  1.00  0.00    -0.247 OA
HETATM   10  H   UNL     1     -44.186  53.997 -56.650  1.00  0.00     0.170 HD
HETATM   11  H   UNL     1     -44.593  54.665 -58.563  1.00  0.00     0.164 HD
BRANCH   8  12
HETATM   12  C   UNL     1     -42.685  54.393 -55.289  1.00  0.00     0.038 A 
HETATM   13  C   UNL     1     -43.333  54.288 -54.055  1.00  0.00     0.055 A 
HETATM   14  C   UNL     1     -42.596  54.133 -52.874  1.00  0.00     0.058 A 
HETATM   15 CL   UNL     1     -43.471  54.032 -51.387  1.00  0.00    -0.082 Cl
HETATM   16  C   UNL     1     -41.200  54.075 -52.921  1.00  0.00     0.055 A 
HETATM   17 CL   UNL     1     -40.226  53.877 -51.510  1.00  0.00    -0.083 Cl
HETATM   18  C   UNL     1     -40.547  54.185 -54.151  1.00  0.00     0.028 A 
HETATM   19  C   UNL     1     -41.285  54.354 -55.327  1.00  0.00     0.031 A 
ENDBRANCH   8  12
ENDBRANCH   5   6
ENDBRANCH   2   5
BRANCH   1  20
HETATM   20  N   UNL     1     -44.801  59.651 -57.472  1.00  0.00    -0.249 N 
HETATM   21  C   UNL     1     -44.539  59.618 -56.120  1.00  0.00     0.339 C 
HETATM   22  N   UNL     1     -43.765  58.553 -55.733  1.00  0.00    -0.308 N 
HETATM   23  O   UNL     1     -44.996  60.497 -55.398  1.00  0.00    -0.245 OA
HETATM   24  H   UNL     1     -43.397  58.026 -56.513  1.00  0.00     0.170 HD
HETATM   25  H   UNL     1     -45.178  60.528 -57.824  1.00  0.00     0.192 HD
BRANCH  22  26
HETATM   26  C   UNL     1     -43.349  58.213 -54.433  1.00  0.00     0.038 A 
HETATM   27  C   UNL     1     -44.230  57.933 -53.385  1.00  0.00     0.053 A 
HETATM   28  C   UNL     1     -43.734  57.603 -52.122  1.00  0.00     0.036 A 
HETATM   29  C   UNL     1     -42.361  57.550 -51.888  1.00  0.00     0.024 A 
HETATM   30 CL   UNL     1     -44.826  57.255 -50.836  1.00  0.00    -0.084 Cl
HETATM   31  C   UNL     1     -41.477  57.824 -52.928  1.00  0.00     0.004 A 
HETATM   32  C   UNL     1     -41.970  58.148 -54.195  1.00  0.00     0.029 A 
ENDBRANCH  22  26
ENDBRANCH   1  20
TORSDOF 5
ENDMDL
MODEL 7
REMARK VINA RESULT:      -8.2      3.327      4.357
REMARK  5 active torsions:
REMARK  status: ('A' for Active; 'I' for Inactive)
REMARK    1  A    between atoms: C_6  and  N_7 
REMARK       I    between atoms: N_7  and  C_8 
REMARK       I    between atoms: C_8  and  N_9 
REMARK    2  A    between atoms: N_9  and  N_10 
REMARK       I    between atoms: N_10  and  C_11 
REMARK    3  A    between atoms: C_11  and  C_12 
REMARK    4  A    between atoms: C_12  and  N_13 
REMARK       I    between atoms: N_13  and  C_14 
REMARK       I    between atoms: C_14  and  N_15 
REMARK    5  A    between atoms: N_15  and  C_16 
ROOT
HETATM    1  N   UNL     1     -43.494  58.163 -53.495  1.00  0.00    -0.265 N 
HETATM    2  C   UNL     1     -44.273  58.151 -52.349  1.00  0.00     0.253 C 
HETATM    3  O   UNL     1     -45.267  58.867 -52.215  1.00  0.00    -0.270 OA
HETATM    4  H   UNL     1     -42.504  57.924 -53.365  1.00  0.00     0.190 HD
ENDROOT
BRANCH   2   5
HETATM    5  C   UNL     1     -43.716  57.354 -51.160  1.00  0.00     0.228 C 
BRANCH   5   6
HETATM    6  N   UNL     1     -42.424  56.687 -51.279  1.00  0.00    -0.334 N 
HETATM    7  C   UNL     1     -42.348  55.382 -51.705  1.00  0.00     0.321 C 
HETATM    8  N   UNL     1     -41.106  55.066 -52.199  1.00  0.00    -0.309 N 
HETATM    9  O   UNL     1     -43.312  54.632 -51.605  1.00  0.00    -0.247 OA
HETATM   10  H   UNL     1     -40.513  55.843 -52.451  1.00  0.00     0.170 HD
HETATM   11  H   UNL     1     -41.645  57.288 -51.500  1.00  0.00     0.164 HD
BRANCH   8  12
HETATM   12  C   UNL     1     -40.671  53.792 -52.623  1.00  0.00     0.038 A 
HETATM   13  C   UNL     1     -40.281  52.776 -51.747  1.00  0.00     0.055 A 
HETATM   14  C   UNL     1     -39.846  51.538 -52.238  1.00  0.00     0.058 A 
HETATM   15 CL   UNL     1     -39.360  50.342 -51.089  1.00  0.00    -0.082 Cl
HETATM   16  C   UNL     1     -39.805  51.306 -53.616  1.00  0.00     0.055 A 
HETATM   17 CL   UNL     1     -39.289  49.805 -54.294  1.00  0.00    -0.083 Cl
HETATM   18  C   UNL     1     -40.188  52.320 -54.497  1.00  0.00     0.028 A 
HETATM   19  C   UNL     1     -40.609  53.559 -54.003  1.00  0.00     0.031 A 
ENDBRANCH   8  12
ENDBRANCH   5   6
ENDBRANCH   2   5
BRANCH   1  20
HETATM   20  N   UNL     1     -43.722  59.238 -54.381  1.00  0.00    -0.249 N 
HETATM   21  C   UNL     1     -43.667  59.116 -55.752  1.00  0.00     0.339 C 
HETATM   22  N   UNL     1     -43.187  57.904 -56.181  1.00  0.00    -0.308 N 
HETATM   23  O   UNL     1     -44.029  60.055 -56.454  1.00  0.00    -0.245 OA
HETATM   24  H   UNL     1     -43.069  57.237 -55.431  1.00  0.00     0.170 HD
HETATM   25  H   UNL     1     -44.268  60.023 -54.033  1.00  0.00     0.192 HD
BRANCH  22  26
HETATM   26  C   UNL     1     -42.976  57.475 -57.504  1.00  0.00     0.038 A 
HETATM   27  C   UNL     1     -43.631  56.382 -58.078  1.00  0.00     0.053 A 
HETATM   28  C   UNL     1     -43.364  56.021 -59.401  1.00  0.00     0.036 A 
HETATM   29  C   UNL     1     -42.444  56.739 -60.162  1.00  0.00     0.024 A 
HETATM   30 CL   UNL     1     -44.180  54.677 -60.104  1.00  0.00    -0.084 Cl
HETATM   31  C   UNL     1     -41.790  57.831 -59.599  1.00  0.00     0.004 A 
HETATM   32  C   UNL     1     -42.059  58.199 -58.277  1.00  0.00     0.029 A 
ENDBRANCH  22  26
ENDBRANCH   1  20
TORSDOF 5
ENDMDL
MODEL 8
REMARK VINA RESULT:      -8.1      4.239      5.163
REMARK  5 active torsions:
REMARK  status: ('A' for Active; 'I' for Inactive)
REMARK    1  A    between atoms: C_6  and  N_7 
REMARK       I    between atoms: N_7  and  C_8 
REMARK       I    between atoms: C_8  and  N_9 
REMARK    2  A    between atoms: N_9  and  N_10 
REMARK       I    between atoms: N_10  and  C_11 
REMARK    3  A    between atoms: C_11  and  C_12 
REMARK    4  A    between atoms: C_12  and  N_13 
REMARK       I    between atoms: N_13  and  C_14 
REMARK       I    between atoms: C_14  and  N_15 
REMARK    5  A    between atoms: N_15  and  C_16 
ROOT
HETATM    1  N   UNL     1     -41.959  57.595 -59.386  1.00  0.00    -0.265 N 
HETATM    2  C   UNL     1     -42.790  56.485 -59.383  1.00  0.00     0.253 C 
HETATM    3  O   UNL     1     -43.363  56.084 -60.398  1.00  0.00    -0.270 OA
HETATM    4  H   UNL     1     -41.902  58.112 -58.500  1.00  0.00     0.190 HD
ENDROOT
BRANCH   2   5
HETATM    5  C   UNL     1     -43.133  55.899 -58.005  1.00  0.00     0.228 C 
BRANCH   5   6
HETATM    6  N   UNL     1     -42.101  55.816 -56.978  1.00  0.00    -0.334 N 
HETATM    7  C   UNL     1     -42.128  54.813 -56.038  1.00  0.00     0.321 C 
HETATM    8  N   UNL     1     -40.897  54.597 -55.469  1.00  0.00    -0.309 N 
HETATM    9  O   UNL     1     -43.174  54.233 -55.771  1.00  0.00    -0.247 OA
HETATM   10  H   UNL     1     -40.102  54.967 -55.968  1.00  0.00     0.170 HD
HETATM   11  H   UNL     1     -41.195  56.170 -57.245  1.00  0.00     0.164 HD
BRANCH   8  12
HETATM   12  C   UNL     1     -40.607  53.713 -54.408  1.00  0.00     0.038 A 
HETATM   13  C   UNL     1     -40.226  52.381 -54.593  1.00  0.00     0.055 A 
HETATM   14  C   UNL     1     -39.965  51.554 -53.492  1.00  0.00     0.058 A 
HETATM   15 CL   UNL     1     -39.520  49.914 -53.806  1.00  0.00    -0.082 Cl
HETATM   16  C   UNL     1     -40.079  52.059 -52.194  1.00  0.00     0.055 A 
HETATM   17 CL   UNL     1     -39.766  51.104 -50.791  1.00  0.00    -0.083 Cl
HETATM   18  C   UNL     1     -40.465  53.387 -52.003  1.00  0.00     0.028 A 
HETATM   19  C   UNL     1     -40.737  54.206 -53.104  1.00  0.00     0.031 A 
ENDBRANCH   8  12
ENDBRANCH   5   6
ENDBRANCH   2   5
BRANCH   1  20
HETATM   20  N   UNL     1     -42.030  58.413 -60.534  1.00  0.00    -0.249 N 
HETATM   21  C   UNL     1     -41.823  59.775 -60.510  1.00  0.00     0.339 C 
HETATM   22  N   UNL     1     -41.729  60.297 -59.244  1.00  0.00    -0.308 N 
HETATM   23  O   UNL     1     -41.747  60.390 -61.568  1.00  0.00    -0.245 OA
HETATM   24  H   UNL     1     -41.694  59.589 -58.525  1.00  0.00     0.170 HD
HETATM   25  H   UNL     1     -41.887  57.965 -61.436  1.00  0.00     0.192 HD
BRANCH  22  26
HETATM   26  C   UNL     1     -41.554  61.643 -58.874  1.00  0.00     0.038 A 
HETATM   27  C   UNL     1     -40.369  62.356 -59.082  1.00  0.00     0.053 A 
HETATM   28  C   UNL     1     -40.277  63.692 -58.684  1.00  0.00     0.036 A 
HETATM   29  C   UNL     1     -41.356  64.329 -58.075  1.00  0.00     0.024 A 
HETATM   30 CL   UNL     1     -38.817  64.566 -58.948  1.00  0.00    -0.084 Cl
HETATM   31  C   UNL     1     -42.540  63.627 -57.867  1.00  0.00     0.004 A 
HETATM   32  C   UNL     1     -42.638  62.292 -58.270  1.00  0.00     0.029 A 
ENDBRANCH  22  26
ENDBRANCH   1  20
TORSDOF 5
ENDMDL
MODEL 9
REMARK VINA RESULT:      -7.9     16.145     18.928
REMARK  5 active torsions:
REMARK  status: ('A' for Active; 'I' for Inactive)
REMARK    1  A    between atoms: C_6  and  N_7 
REMARK       I    between atoms: N_7  and  C_8 
REMARK       I    between atoms: C_8  and  N_9 
REMARK    2  A    between atoms: N_9  and  N_10 
REMARK       I    between atoms: N_10  and  C_11 
REMARK    3  A    between atoms: C_11  and  C_12 
REMARK    4  A    between atoms: C_12  and  N_13 
REMARK       I    between atoms: N_13  and  C_14 
REMARK       I    between atoms: C_14  and  N_15 
REMARK    5  A    between atoms: N_15  and  C_16 
ROOT
HETATM    1  N   UNL     1     -34.948  41.634 -51.041  1.00  0.00    -0.265 N 
HETATM    2  C   UNL     1     -35.964  40.692 -50.980  1.00  0.00     0.253 C 
HETATM    3  O   UNL     1     -35.790  39.559 -50.526  1.00  0.00    -0.270 OA
HETATM    4  H   UNL     1     -35.025  42.324 -51.797  1.00  0.00     0.190 HD
ENDROOT
BRANCH   2   5
HETATM    5  C   UNL     1     -37.269  41.055 -51.703  1.00  0.00     0.228 C 
BRANCH   5   6
HETATM    6  N   UNL     1     -37.216  41.708 -53.005  1.00  0.00    -0.334 N 
HETATM    7  C   UNL     1     -37.175  40.964 -54.160  1.00  0.00     0.321 C 
HETATM    8  N   UNL     1     -37.590  41.679 -55.257  1.00  0.00    -0.309 N 
HETATM    9  O   UNL     1     -36.781  39.804 -54.145  1.00  0.00    -0.247 OA
HETATM   10  H   UNL     1     -38.119  42.518 -55.071  1.00  0.00     0.170 HD
HETATM   11  H   UNL     1     -37.664  42.610 -53.056  1.00  0.00     0.164 HD
BRANCH   8  12
HETATM   12  C   UNL     1     -37.575  41.241 -56.598  1.00  0.00     0.038 A 
HETATM   13  C   UNL     1     -38.069  40.002 -57.014  1.00  0.00     0.055 A 
HETATM   14  C   UNL     1     -38.010  39.625 -58.363  1.00  0.00     0.058 A 
HETATM   15 CL   UNL     1     -38.623  38.067 -58.791  1.00  0.00    -0.082 Cl
HETATM   16  C   UNL     1     -37.459  40.495 -59.309  1.00  0.00     0.055 A 
HETATM   17 CL   UNL     1     -37.360  40.104 -60.987  1.00  0.00    -0.083 Cl
HETATM   18  C   UNL     1     -36.959  41.732 -58.898  1.00  0.00     0.028 A 
HETATM   19  C   UNL     1     -37.007  42.098 -57.549  1.00  0.00     0.031 A 
ENDBRANCH   8  12
ENDBRANCH   5   6
ENDBRANCH   2   5
BRANCH   1  20
HETATM   20  N   UNL     1     -33.642  41.144 -50.829  1.00  0.00    -0.249 N 
HETATM   21  C   UNL     1     -32.797  40.771 -51.851  1.00  0.00     0.339 C 
HETATM   22  N   UNL     1     -33.400  40.737 -53.083  1.00  0.00    -0.308 N 
HETATM   23  O   UNL     1     -31.627  40.505 -51.597  1.00  0.00    -0.245 OA
HETATM   24  H   UNL     1     -34.336  41.116 -53.077  1.00  0.00     0.170 HD
HETATM   25  H   UNL     1     -33.187  41.390 -49.953  1.00  0.00     0.192 HD
BRANCH  22  26
HETATM   26  C   UNL     1     -32.831  40.369 -54.316  1.00  0.00     0.038 A 
HETATM   27  C   UNL     1     -31.639  39.647 -54.435  1.00  0.00     0.053 A 
HETATM   28  C   UNL     1     -31.142  39.322 -55.699  1.00  0.00     0.036 A 
HETATM   29  C   UNL     1     -31.819  39.710 -56.853  1.00  0.00     0.024 A 
HETATM   30 CL   UNL     1     -29.676  38.427 -55.838  1.00  0.00    -0.084 Cl
HETATM   31  C   UNL     1     -33.009  40.425 -56.743  1.00  0.00     0.004 A 
HETATM   32  C   UNL     1     -33.513  40.748 -55.479  1.00  0.00     0.029 A 
ENDBRANCH  22  26
ENDBRANCH   1  20
TORSDOF 5
ENDMDL
MODEL 10
REMARK VINA RESULT:      -7.9      3.353      9.817
REMARK  5 active torsions:
REMARK  status: ('A' for Active; 'I' for Inactive)
REMARK    1  A    between atoms: C_6  and  N_7 
REMARK       I    between atoms: N_7  and  C_8 
REMARK       I    between atoms: C_8  and  N_9 
REMARK    2  A    between atoms: N_9  and  N_10 
REMARK       I    between atoms: N_10  and  C_11 
REMARK    3  A    between atoms: C_11  and  C_12 
REMARK    4  A    between atoms: C_12  and  N_13 
REMARK       I    between atoms: N_13  and  C_14 
REMARK       I    between atoms: C_14  and  N_15 
REMARK    5  A    between atoms: N_15  and  C_16 
ROOT
HETATM    1  N   UNL     1     -42.032  57.133 -50.781  1.00  0.00    -0.265 N 
HETATM    2  C   UNL     1     -41.407  58.334 -51.078  1.00  0.00     0.253 C 
HETATM    3  O   UNL     1     -40.260  58.593 -50.708  1.00  0.00    -0.270 OA
HETATM    4  H   UNL     1     -43.056  57.169 -50.709  1.00  0.00     0.190 HD
ENDROOT
BRANCH   2   5
HETATM    5  C   UNL     1     -42.290  59.420 -51.711  1.00  0.00     0.228 C 
BRANCH   5   6
HETATM    6  N   UNL     1     -42.203  59.675 -53.144  1.00  0.00    -0.334 N 
HETATM    7  C   UNL     1     -42.693  58.763 -54.048  1.00  0.00     0.321 C 
HETATM    8  N   UNL     1     -42.959  59.329 -55.271  1.00  0.00    -0.309 N 
HETATM    9  O   UNL     1     -42.831  57.585 -53.738  1.00  0.00    -0.247 OA
HETATM   10  H   UNL     1     -43.039  60.336 -55.290  1.00  0.00     0.170 HD
HETATM   11  H   UNL     1     -42.230  60.647 -53.413  1.00  0.00     0.164 HD
BRANCH   8  12
HETATM   12  C   UNL     1     -43.376  58.653 -56.436  1.00  0.00     0.038 A 
HETATM   13  C   UNL     1     -44.709  58.564 -56.845  1.00  0.00     0.055 A 
HETATM   14  C   UNL     1     -45.054  57.863 -58.009  1.00  0.00     0.058 A 
HETATM   15 CL   UNL     1     -46.727  57.782 -58.434  1.00  0.00    -0.082 Cl
HETATM   16  C   UNL     1     -44.060  57.249 -58.777  1.00  0.00     0.055 A 
HETATM   17 CL   UNL     1     -44.406  56.377 -60.226  1.00  0.00    -0.083 Cl
HETATM   18  C   UNL     1     -42.727  57.330 -58.370  1.00  0.00     0.028 A 
HETATM   19  C   UNL     1     -42.388  58.019 -57.201  1.00  0.00     0.031 A 
ENDBRANCH   8  12
ENDBRANCH   5   6
ENDBRANCH   2   5
BRANCH   1  20
HETATM   20  N   UNL     1     -41.407  56.342 -49.794  1.00  0.00    -0.249 N 
HETATM   21  C   UNL     1     -40.788  55.141 -50.064  1.00  0.00     0.339 C 
HETATM   22  N   UNL     1     -40.995  54.688 -51.342  1.00  0.00    -0.308 N 
HETATM   23  O   UNL     1     -40.134  54.591 -49.184  1.00  0.00    -0.245 OA
HETATM   24  H   UNL     1     -41.459  55.363 -51.932  1.00  0.00     0.170 HD
HETATM   25  H   UNL     1     -41.101  56.810 -48.944  1.00  0.00     0.192 HD
BRANCH  22  26
HETATM   26  C   UNL     1     -40.534  53.491 -51.922  1.00  0.00     0.038 A 
HETATM   27  C   UNL     1     -40.140  52.373 -51.181  1.00  0.00     0.053 A 
HETATM   28  C   UNL     1     -39.694  51.222 -51.835  1.00  0.00     0.036 A 
HETATM   29  C   UNL     1     -39.633  51.172 -53.226  1.00  0.00     0.024 A 
HETATM   30 CL   UNL     1     -39.214  49.846 -50.917  1.00  0.00    -0.084 Cl
HETATM   31  C   UNL     1     -40.028  52.280 -53.971  1.00  0.00     0.004 A 
HETATM   32  C   UNL     1     -40.480  53.432 -53.320  1.00  0.00     0.029 A 
ENDBRANCH  22  26
ENDBRANCH   1  20
TORSDOF 5
ENDMDL
