MODEL 1
REMARK VINA RESULT:      -8.5      0.000      0.000
REMARK  3 active torsions:
REMARK  status: ('A' for Active; 'I' for Inactive)
REMARK    1  A    between atoms: C_12  and  C_13 
REMARK       I    between atoms: C_13  and  N_14 
REMARK    2  A    between atoms: N_14  and  C_15 
REMARK    3  A    between atoms: C_15  and  C_16 
ROOT
HETATM    1  C   UNL     1     -39.674  50.505 -51.428  1.00  0.00     0.001 A 
HETATM    2  C   UNL     1     -40.066  51.839 -51.294  1.00  0.00     0.016 A 
HETATM    3  C   UNL     1     -40.246  52.626 -52.434  1.00  0.00     0.026 A 
HETATM    4  C   UNL     1     -40.034  52.073 -53.713  1.00  0.00     0.081 A 
HETATM    5  O   UNL     1     -40.186  52.757 -54.900  1.00  0.00    -0.346 OA
HETATM    6  C   UNL     1     -40.587  54.158 -54.885  1.00  0.00     0.219 A 
HETATM    7  C   UNL     1     -40.818  54.740 -53.546  1.00  0.00     0.031 A 
HETATM    8  C   UNL     1     -40.651  54.008 -52.402  1.00  0.00     0.074 A 
HETATM    9  N   UNL     1     -40.937  54.840 -51.368  1.00  0.00    -0.276 N 
HETATM   10  H   UNL     1     -40.918  54.639 -50.375  1.00  0.00     0.189 HD
HETATM   11  N   UNL     1     -41.292  56.081 -51.768  1.00  0.00    -0.168 NA
HETATM   12  C   UNL     1     -41.218  56.027 -53.119  1.00  0.00     0.155 A 
HETATM   13  C   UNL     1     -39.643  50.740 -53.835  1.00  0.00     0.038 A 
HETATM   14  C   UNL     1     -39.464  49.957 -52.695  1.00  0.00     0.003 A 
ENDROOT
BRANCH  12  15
HETATM   15  C   UNL     1     -41.531  57.186 -53.970  1.00  0.00     0.272 C 
HETATM   16  N   UNL     1     -42.549  56.947 -54.861  1.00  0.00    -0.351 N 
HETATM   17  H   UNL     1     -42.969  56.023 -54.818  1.00  0.00     0.163 HD
HETATM   18  O   UNL     1     -40.934  58.253 -53.879  1.00  0.00    -0.266 OA
BRANCH  16  19
HETATM   19  C   UNL     1     -43.026  57.927 -55.800  1.00  0.00     0.161 C 
BRANCH  19  20
HETATM   20  C   UNL     1     -42.846  57.459 -57.221  1.00  0.00    -0.039 A 
HETATM   21  C   UNL     1     -43.531  56.326 -57.687  1.00  0.00     0.032 A 
HETATM   22  C   UNL     1     -43.376  55.905 -59.007  1.00  0.00     0.034 A 
HETATM   23 CL   UNL     1     -44.216  54.509 -59.564  1.00  0.00    -0.084 Cl
HETATM   24  C   UNL     1     -42.548  56.606 -59.881  1.00  0.00     0.024 A 
HETATM   25  C   UNL     1     -41.867  57.737 -59.430  1.00  0.00     0.002 A 
HETATM   26  C   UNL     1     -42.016  58.162 -58.107  1.00  0.00     0.009 A 
ENDBRANCH  19  20
ENDBRANCH  16  19
ENDBRANCH  12  15
TORSDOF 3
ENDMDL
MODEL 2
REMARK VINA RESULT:      -8.3      3.004      8.071
REMARK  3 active torsions:
REMARK  status: ('A' for Active; 'I' for Inactive)
REMARK    1  A    between atoms: C_12  and  C_13 
REMARK       I    between atoms: C_13  and  N_14 
REMARK    2  A    between atoms: N_14  and  C_15 
REMARK    3  A    between atoms: C_15  and  C_16 
ROOT
HETATM    1  C   UNL     1     -42.125  60.035 -60.408  1.00  0.00     0.001 A 
HETATM    2  C   UNL     1     -42.318  58.797 -59.789  1.00  0.00     0.016 A 
HETATM    3  C   UNL     1     -42.192  58.689 -58.403  1.00  0.00     0.026 A 
HETATM    4  C   UNL     1     -41.871  59.825 -57.633  1.00  0.00     0.081 A 
HETATM    5  O   UNL     1     -41.724  59.831 -56.263  1.00  0.00    -0.346 OA
HETATM    6  C   UNL     1     -41.898  58.596 -55.508  1.00  0.00     0.219 A 
HETATM    7  C   UNL     1     -42.241  57.403 -56.311  1.00  0.00     0.031 A 
HETATM    8  C   UNL     1     -42.373  57.461 -57.671  1.00  0.00     0.074 A 
HETATM    9  N   UNL     1     -42.684  56.205 -58.081  1.00  0.00    -0.276 N 
HETATM   10  H   UNL     1     -42.853  55.874 -59.025  1.00  0.00     0.189 HD
HETATM   11  N   UNL     1     -42.772  55.320 -57.064  1.00  0.00    -0.168 NA
HETATM   12  C   UNL     1     -42.496  56.057 -55.961  1.00  0.00     0.155 A 
HETATM   13  C   UNL     1     -41.680  61.056 -58.262  1.00  0.00     0.038 A 
HETATM   14  C   UNL     1     -41.808  61.160 -59.647  1.00  0.00     0.003 A 
ENDROOT
BRANCH  12  15
HETATM   15  C   UNL     1     -42.485  55.475 -54.610  1.00  0.00     0.272 C 
HETATM   16  N   UNL     1     -41.226  55.147 -54.169  1.00  0.00    -0.351 N 
HETATM   17  H   UNL     1     -40.464  55.356 -54.807  1.00  0.00     0.163 HD
HETATM   18  O   UNL     1     -43.508  55.306 -53.955  1.00  0.00    -0.266 OA
BRANCH  16  19
HETATM   19  C   UNL     1     -40.966  54.557 -52.883  1.00  0.00     0.161 C 
BRANCH  19  20
HETATM   20  C   UNL     1     -40.523  53.123 -53.016  1.00  0.00    -0.039 A 
HETATM   21  C   UNL     1     -40.237  52.359 -51.873  1.00  0.00     0.032 A 
HETATM   22  C   UNL     1     -39.844  51.027 -51.998  1.00  0.00     0.034 A 
HETATM   23 CL   UNL     1     -39.491  50.104 -50.589  1.00  0.00    -0.084 Cl
HETATM   24  C   UNL     1     -39.737  50.436 -53.256  1.00  0.00     0.024 A 
HETATM   25  C   UNL     1     -40.024  51.184 -54.397  1.00  0.00     0.002 A 
HETATM   26  C   UNL     1     -40.415  52.520 -54.279  1.00  0.00     0.009 A 
ENDBRANCH  19  20
ENDBRANCH  16  19
ENDBRANCH  12  15
TORSDOF 3
ENDMDL
MODEL 3
REMARK VINA RESULT:      -8.2      4.583      5.409
REMARK  3 active torsions:
REMARK  status: ('A' for Active; 'I' for Inactive)
REMARK    1  A    between atoms: C_12  and  C_13 
REMARK       I    between atoms: C_13  and  N_14 
REMARK    2  A    between atoms: N_14  and  C_15 
REMARK    3  A    between atoms: C_15  and  C_16 
ROOT
HETATM    1  C   UNL     1     -39.735  50.074 -54.393  1.00  0.00     0.001 A 
HETATM    2  C   UNL     1     -40.159  51.405 -54.367  1.00  0.00     0.016 A 
HETATM    3  C   UNL     1     -40.260  52.075 -53.146  1.00  0.00     0.026 A 
HETATM    4  C   UNL     1     -39.936  51.409 -51.946  1.00  0.00     0.081 A 
HETATM    5  O   UNL     1     -39.998  51.975 -50.691  1.00  0.00    -0.346 OA
HETATM    6  C   UNL     1     -40.431  53.358 -50.539  1.00  0.00     0.219 A 
HETATM    7  C   UNL     1     -40.766  54.063 -51.794  1.00  0.00     0.031 A 
HETATM    8  C   UNL     1     -40.683  53.445 -53.012  1.00  0.00     0.074 A 
HETATM    9  N   UNL     1     -41.060  54.366 -53.936  1.00  0.00    -0.276 N 
HETATM   10  H   UNL     1     -41.122  54.260 -54.942  1.00  0.00     0.189 HD
HETATM   11  N   UNL     1     -41.381  55.562 -53.394  1.00  0.00    -0.168 NA
HETATM   12  C   UNL     1     -41.202  55.380 -52.064  1.00  0.00     0.155 A 
HETATM   13  C   UNL     1     -39.514  50.080 -51.985  1.00  0.00     0.038 A 
HETATM   14  C   UNL     1     -39.413  49.414 -53.206  1.00  0.00     0.003 A 
ENDROOT
BRANCH  12  15
HETATM   15  C   UNL     1     -41.441  56.452 -51.085  1.00  0.00     0.272 C 
HETATM   16  N   UNL     1     -40.784  57.620 -51.386  1.00  0.00    -0.351 N 
HETATM   17  H   UNL     1     -40.234  57.613 -52.240  1.00  0.00     0.163 HD
HETATM   18  O   UNL     1     -42.161  56.303 -50.104  1.00  0.00    -0.266 OA
BRANCH  16  19
HETATM   19  C   UNL     1     -40.860  58.805 -50.573  1.00  0.00     0.161 C 
BRANCH  19  20
HETATM   20  C   UNL     1     -41.716  59.861 -51.222  1.00  0.00    -0.039 A 
HETATM   21  C   UNL     1     -42.353  60.838 -50.440  1.00  0.00     0.032 A 
HETATM   22  C   UNL     1     -43.130  61.826 -51.043  1.00  0.00     0.034 A 
HETATM   23 CL   UNL     1     -43.911  63.013 -50.072  1.00  0.00    -0.084 Cl
HETATM   24  C   UNL     1     -43.279  61.860 -52.428  1.00  0.00     0.024 A 
HETATM   25  C   UNL     1     -42.646  60.899 -53.216  1.00  0.00     0.002 A 
HETATM   26  C   UNL     1     -41.868  59.905 -52.616  1.00  0.00     0.009 A 
ENDBRANCH  19  20
ENDBRANCH  16  19
ENDBRANCH  12  15
TORSDOF 3
ENDMDL
MODEL 4
REMARK VINA RESULT:      -8.2      1.295      1.519
REMARK  3 active torsions:
REMARK  status: ('A' for Active; 'I' for Inactive)
REMARK    1  A    between atoms: C_12  and  C_13 
REMARK       I    between atoms: C_13  and  N_14 
REMARK    2  A    between atoms: N_14  and  C_15 
REMARK    3  A    between atoms: C_15  and  C_16 
ROOT
HETATM    1  C   UNL     1     -39.826  51.539 -51.345  1.00  0.00     0.001 A 
HETATM    2  C   UNL     1     -40.352  52.832 -51.397  1.00  0.00     0.016 A 
HETATM    3  C   UNL     1     -40.549  53.451 -52.633  1.00  0.00     0.026 A 
HETATM    4  C   UNL     1     -40.220  52.770 -53.823  1.00  0.00     0.081 A 
HETATM    5  O   UNL     1     -40.376  53.284 -55.092  1.00  0.00    -0.346 OA
HETATM    6  C   UNL     1     -40.911  54.628 -55.271  1.00  0.00     0.219 A 
HETATM    7  C   UNL     1     -41.265  55.343 -54.027  1.00  0.00     0.031 A 
HETATM    8  C   UNL     1     -41.087  54.777 -52.794  1.00  0.00     0.074 A 
HETATM    9  N   UNL     1     -41.505  55.696 -51.886  1.00  0.00    -0.276 N 
HETATM   10  H   UNL     1     -41.517  55.622 -50.875  1.00  0.00     0.189 HD
HETATM   11  N   UNL     1     -41.958  56.836 -52.453  1.00  0.00    -0.168 NA
HETATM   12  C   UNL     1     -41.810  56.624 -53.783  1.00  0.00     0.155 A 
HETATM   13  C   UNL     1     -39.695  51.479 -53.759  1.00  0.00     0.038 A 
HETATM   14  C   UNL     1     -39.500  50.864 -52.522  1.00  0.00     0.003 A 
ENDROOT
BRANCH  12  15
HETATM   15  C   UNL     1     -42.190  57.632 -54.785  1.00  0.00     0.272 C 
HETATM   16  N   UNL     1     -43.180  57.206 -55.636  1.00  0.00    -0.351 N 
HETATM   17  H   UNL     1     -43.539  56.271 -55.467  1.00  0.00     0.163 HD
HETATM   18  O   UNL     1     -41.664  58.739 -54.842  1.00  0.00    -0.266 OA
BRANCH  16  19
HETATM   19  C   UNL     1     -43.711  58.014 -56.701  1.00  0.00     0.161 C 
BRANCH  19  20
HETATM   20  C   UNL     1     -43.954  57.194 -57.943  1.00  0.00    -0.039 A 
HETATM   21  C   UNL     1     -45.194  57.249 -58.598  1.00  0.00     0.032 A 
HETATM   22  C   UNL     1     -45.410  56.503 -59.756  1.00  0.00     0.034 A 
HETATM   23 CL   UNL     1     -46.938  56.573 -60.546  1.00  0.00    -0.084 Cl
HETATM   24  C   UNL     1     -44.398  55.703 -60.282  1.00  0.00     0.024 A 
HETATM   25  C   UNL     1     -43.160  55.646 -59.642  1.00  0.00     0.002 A 
HETATM   26  C   UNL     1     -42.938  56.388 -58.480  1.00  0.00     0.009 A 
ENDBRANCH  19  20
ENDBRANCH  16  19
ENDBRANCH  12  15
TORSDOF 3
ENDMDL
MODEL 5
REMARK VINA RESULT:      -8.1      2.511      3.274
REMARK  3 active torsions:
REMARK  status: ('A' for Active; 'I' for Inactive)
REMARK    1  A    between atoms: C_12  and  C_13 
REMARK       I    between atoms: C_13  and  N_14 
REMARK    2  A    between atoms: N_14  and  C_15 
REMARK    3  A    between atoms: C_15  and  C_16 
ROOT
HETATM    1  C   UNL     1     -39.362  49.650 -52.373  1.00  0.00     0.001 A 
HETATM    2  C   UNL     1     -39.600  50.737 -51.528  1.00  0.00     0.016 A 
HETATM    3  C   UNL     1     -40.061  51.942 -52.063  1.00  0.00     0.026 A 
HETATM    4  C   UNL     1     -40.284  52.058 -53.451  1.00  0.00     0.081 A 
HETATM    5  O   UNL     1     -40.739  53.196 -54.081  1.00  0.00    -0.346 OA
HETATM    6  C   UNL     1     -41.017  54.396 -53.303  1.00  0.00     0.219 A 
HETATM    7  C   UNL     1     -40.791  54.277 -51.847  1.00  0.00     0.031 A 
HETATM    8  C   UNL     1     -40.338  53.118 -51.279  1.00  0.00     0.074 A 
HETATM    9  N   UNL     1     -40.240  53.356 -49.946  1.00  0.00    -0.276 N 
HETATM   10  H   UNL     1     -39.935  52.724 -49.215  1.00  0.00     0.189 HD
HETATM   11  N   UNL     1     -40.610  54.609 -49.602  1.00  0.00    -0.168 NA
HETATM   12  C   UNL     1     -40.952  55.188 -50.778  1.00  0.00     0.155 A 
HETATM   13  C   UNL     1     -40.044  50.965 -54.284  1.00  0.00     0.038 A 
HETATM   14  C   UNL     1     -39.584  49.763 -53.746  1.00  0.00     0.003 A 
ENDROOT
BRANCH  12  15
HETATM   15  C   UNL     1     -41.425  56.578 -50.861  1.00  0.00     0.272 C 
HETATM   16  N   UNL     1     -42.747  56.683 -51.218  1.00  0.00    -0.351 N 
HETATM   17  H   UNL     1     -43.238  55.805 -51.364  1.00  0.00     0.163 HD
HETATM   18  O   UNL     1     -40.697  57.539 -50.629  1.00  0.00    -0.266 OA
BRANCH  16  19
HETATM   19  C   UNL     1     -43.430  57.940 -51.369  1.00  0.00     0.161 C 
BRANCH  19  20
HETATM   20  C   UNL     1     -43.876  58.154 -52.793  1.00  0.00    -0.039 A 
HETATM   21  C   UNL     1     -43.432  57.296 -53.812  1.00  0.00     0.032 A 
HETATM   22  C   UNL     1     -43.860  57.485 -55.126  1.00  0.00     0.034 A 
HETATM   23 CL   UNL     1     -43.302  56.432 -56.367  1.00  0.00    -0.084 Cl
HETATM   24  C   UNL     1     -44.738  58.520 -55.442  1.00  0.00     0.024 A 
HETATM   25  C   UNL     1     -45.190  59.374 -54.436  1.00  0.00     0.002 A 
HETATM   26  C   UNL     1     -44.762  59.192 -53.118  1.00  0.00     0.009 A 
ENDBRANCH  19  20
ENDBRANCH  16  19
ENDBRANCH  12  15
TORSDOF 3
ENDMDL
MODEL 6
REMARK VINA RESULT:      -7.9      2.531      3.476
REMARK  3 active torsions:
REMARK  status: ('A' for Active; 'I' for Inactive)
REMARK    1  A    between atoms: C_12  and  C_13 
REMARK       I    between atoms: C_13  and  N_14 
REMARK    2  A    between atoms: N_14  and  C_15 
REMARK    3  A    between atoms: C_15  and  C_16 
ROOT
HETATM    1  C   UNL     1     -40.303  52.816 -49.869  1.00  0.00     0.001 A 
HETATM    2  C   UNL     1     -40.758  52.890 -51.188  1.00  0.00     0.016 A 
HETATM    3  C   UNL     1     -41.218  54.108 -51.693  1.00  0.00     0.026 A 
HETATM    4  C   UNL     1     -41.221  55.256 -50.875  1.00  0.00     0.081 A 
HETATM    5  O   UNL     1     -41.650  56.504 -51.273  1.00  0.00    -0.346 OA
HETATM    6  C   UNL     1     -42.152  56.702 -52.627  1.00  0.00     0.219 A 
HETATM    7  C   UNL     1     -42.144  55.503 -53.491  1.00  0.00     0.031 A 
HETATM    8  C   UNL     1     -41.705  54.289 -53.037  1.00  0.00     0.074 A 
HETATM    9  N   UNL     1     -41.837  53.422 -54.072  1.00  0.00    -0.276 N 
HETATM   10  H   UNL     1     -41.612  52.434 -54.099  1.00  0.00     0.189 HD
HETATM   11  N   UNL     1     -42.334  53.998 -55.189  1.00  0.00    -0.168 NA
HETATM   12  C   UNL     1     -42.529  55.291 -54.834  1.00  0.00     0.155 A 
HETATM   13  C   UNL     1     -40.764  55.170 -49.560  1.00  0.00     0.038 A 
HETATM   14  C   UNL     1     -40.305  53.952 -49.058  1.00  0.00     0.003 A 
ENDROOT
BRANCH  12  15
HETATM   15  C   UNL     1     -43.066  56.290 -55.771  1.00  0.00     0.272 C 
HETATM   16  N   UNL     1     -42.361  56.367 -56.948  1.00  0.00    -0.351 N 
HETATM   17  H   UNL     1     -41.578  55.726 -57.038  1.00  0.00     0.163 HD
HETATM   18  O   UNL     1     -44.048  56.978 -55.512  1.00  0.00    -0.266 OA
BRANCH  16  19
HETATM   19  C   UNL     1     -42.694  57.275 -58.013  1.00  0.00     0.161 C 
BRANCH  19  20
HETATM   20  C   UNL     1     -43.721  56.679 -58.940  1.00  0.00    -0.039 A 
HETATM   21  C   UNL     1     -44.873  57.406 -59.284  1.00  0.00     0.032 A 
HETATM   22  C   UNL     1     -45.814  56.860 -60.156  1.00  0.00     0.034 A 
HETATM   23 CL   UNL     1     -47.225  57.758 -60.562  1.00  0.00    -0.084 Cl
HETATM   24  C   UNL     1     -45.620  55.593 -60.703  1.00  0.00     0.024 A 
HETATM   25  C   UNL     1     -44.477  54.866 -60.374  1.00  0.00     0.002 A 
HETATM   26  C   UNL     1     -43.532  55.406 -59.498  1.00  0.00     0.009 A 
ENDBRANCH  19  20
ENDBRANCH  16  19
ENDBRANCH  12  15
TORSDOF 3
ENDMDL
MODEL 7
REMARK VINA RESULT:      -7.9     14.207     15.798
REMARK  3 active torsions:
REMARK  status: ('A' for Active; 'I' for Inactive)
REMARK    1  A    between atoms: C_12  and  C_13 
REMARK       I    between atoms: C_13  and  N_14 
REMARK    2  A    between atoms: N_14  and  C_15 
REMARK    3  A    between atoms: C_15  and  C_16 
ROOT
HETATM    1  C   UNL     1     -31.757  39.630 -48.657  1.00  0.00     0.001 A 
HETATM    2  C   UNL     1     -32.432  40.393 -49.613  1.00  0.00     0.016 A 
HETATM    3  C   UNL     1     -33.708  40.011 -50.030  1.00  0.00     0.026 A 
HETATM    4  C   UNL     1     -34.312  38.858 -49.487  1.00  0.00     0.081 A 
HETATM    5  O   UNL     1     -35.565  38.394 -49.826  1.00  0.00    -0.346 OA
HETATM    6  C   UNL     1     -36.361  39.106 -50.816  1.00  0.00     0.219 A 
HETATM    7  C   UNL     1     -35.735  40.319 -51.384  1.00  0.00     0.031 A 
HETATM    8  C   UNL     1     -34.485  40.730 -51.006  1.00  0.00     0.074 A 
HETATM    9  N   UNL     1     -34.222  41.858 -51.715  1.00  0.00    -0.276 N 
HETATM   10  H   UNL     1     -33.389  42.434 -51.694  1.00  0.00     0.189 HD
HETATM   11  N   UNL     1     -35.234  42.218 -52.535  1.00  0.00    -0.168 NA
HETATM   12  C   UNL     1     -36.176  41.266 -52.336  1.00  0.00     0.155 A 
HETATM   13  C   UNL     1     -33.629  38.104 -48.533  1.00  0.00     0.038 A 
HETATM   14  C   UNL     1     -32.354  38.489 -48.118  1.00  0.00     0.003 A 
ENDROOT
BRANCH  12  15
HETATM   15  C   UNL     1     -37.465  41.277 -53.044  1.00  0.00     0.272 C 
HETATM   16  N   UNL     1     -37.344  41.081 -54.398  1.00  0.00    -0.351 N 
HETATM   17  H   UNL     1     -36.400  40.937 -54.743  1.00  0.00     0.163 HD
HETATM   18  O   UNL     1     -38.535  41.445 -52.467  1.00  0.00    -0.266 OA
BRANCH  16  19
HETATM   19  C   UNL     1     -38.466  41.058 -55.299  1.00  0.00     0.161 C 
BRANCH  19  20
HETATM   20  C   UNL     1     -38.016  41.103 -56.736  1.00  0.00    -0.039 A 
HETATM   21  C   UNL     1     -38.395  40.090 -57.631  1.00  0.00     0.032 A 
HETATM   22  C   UNL     1     -37.992  40.143 -58.965  1.00  0.00     0.034 A 
HETATM   23 CL   UNL     1     -38.457  38.890 -60.049  1.00  0.00    -0.084 Cl
HETATM   24  C   UNL     1     -37.217  41.204 -59.428  1.00  0.00     0.024 A 
HETATM   25  C   UNL     1     -36.840  42.219 -58.549  1.00  0.00     0.002 A 
HETATM   26  C   UNL     1     -37.238  42.170 -57.211  1.00  0.00     0.009 A 
ENDBRANCH  19  20
ENDBRANCH  16  19
ENDBRANCH  12  15
TORSDOF 3
ENDMDL
MODEL 8
REMARK VINA RESULT:      -7.7      2.635      3.674
REMARK  3 active torsions:
REMARK  status: ('A' for Active; 'I' for Inactive)
REMARK    1  A    between atoms: C_12  and  C_13 
REMARK       I    between atoms: C_13  and  N_14 
REMARK    2  A    between atoms: N_14  and  C_15 
REMARK    3  A    between atoms: C_15  and  C_16 
ROOT
HETATM    1  C   UNL     1     -41.769  53.663 -50.265  1.00  0.00     0.001 A 
HETATM    2  C   UNL     1     -42.472  54.390 -51.229  1.00  0.00     0.016 A 
HETATM    3  C   UNL     1     -41.982  54.465 -52.534  1.00  0.00     0.026 A 
HETATM    4  C   UNL     1     -40.782  53.809 -52.876  1.00  0.00     0.081 A 
HETATM    5  O   UNL     1     -40.212  53.815 -54.131  1.00  0.00    -0.346 OA
HETATM    6  C   UNL     1     -40.853  54.545 -55.216  1.00  0.00     0.219 A 
HETATM    7  C   UNL     1     -42.115  55.230 -54.865  1.00  0.00     0.031 A 
HETATM    8  C   UNL     1     -42.632  55.185 -53.599  1.00  0.00     0.074 A 
HETATM    9  N   UNL     1     -43.778  55.912 -53.626  1.00  0.00    -0.276 N 
HETATM   10  H   UNL     1     -44.424  56.099 -52.867  1.00  0.00     0.189 HD
HETATM   11  N   UNL     1     -44.051  56.429 -54.845  1.00  0.00    -0.168 NA
HETATM   12  C   UNL     1     -43.021  56.011 -55.619  1.00  0.00     0.155 A 
HETATM   13  C   UNL     1     -40.088  53.085 -51.906  1.00  0.00     0.038 A 
HETATM   14  C   UNL     1     -40.582  53.012 -50.603  1.00  0.00     0.003 A 
ENDROOT
BRANCH  12  15
HETATM   15  C   UNL     1     -42.922  56.353 -57.046  1.00  0.00     0.272 C 
HETATM   16  N   UNL     1     -43.567  55.460 -57.866  1.00  0.00    -0.351 N 
HETATM   17  H   UNL     1     -44.041  54.692 -57.400  1.00  0.00     0.163 HD
HETATM   18  O   UNL     1     -42.319  57.344 -57.447  1.00  0.00    -0.266 OA
BRANCH  16  19
HETATM   19  C   UNL     1     -43.601  55.583 -59.299  1.00  0.00     0.161 C 
BRANCH  19  20
HETATM   20  C   UNL     1     -44.829  56.328 -59.756  1.00  0.00    -0.039 A 
HETATM   21  C   UNL     1     -44.804  57.726 -59.884  1.00  0.00     0.032 A 
HETATM   22  C   UNL     1     -45.935  58.412 -60.325  1.00  0.00     0.034 A 
HETATM   23 CL   UNL     1     -45.893  60.126 -60.470  1.00  0.00    -0.084 Cl
HETATM   24  C   UNL     1     -47.100  57.720 -60.650  1.00  0.00     0.024 A 
HETATM   25  C   UNL     1     -47.134  56.331 -60.532  1.00  0.00     0.002 A 
HETATM   26  C   UNL     1     -46.005  55.638 -60.088  1.00  0.00     0.009 A 
ENDBRANCH  19  20
ENDBRANCH  16  19
ENDBRANCH  12  15
TORSDOF 3
ENDMDL
MODEL 9
REMARK VINA RESULT:      -7.6     14.622     15.950
REMARK  3 active torsions:
REMARK  status: ('A' for Active; 'I' for Inactive)
REMARK    1  A    between atoms: C_12  and  C_13 
REMARK       I    between atoms: C_13  and  N_14 
REMARK    2  A    between atoms: N_14  and  C_15 
REMARK    3  A    between atoms: C_15  and  C_16 
ROOT
HETATM    1  C   UNL     1     -33.355  40.211 -49.776  1.00  0.00     0.001 A 
HETATM    2  C   UNL     1     -34.239  40.693 -50.745  1.00  0.00     0.016 A 
HETATM    3  C   UNL     1     -33.880  40.648 -52.093  1.00  0.00     0.026 A 
HETATM    4  C   UNL     1     -32.630  40.117 -52.473  1.00  0.00     0.081 A 
HETATM    5  O   UNL     1     -32.178  40.023 -53.772  1.00  0.00    -0.346 OA
HETATM    6  C   UNL     1     -33.012  40.499 -54.868  1.00  0.00     0.219 A 
HETATM    7  C   UNL     1     -34.326  41.049 -54.475  1.00  0.00     0.031 A 
HETATM    8  C   UNL     1     -34.719  41.115 -53.166  1.00  0.00     0.074 A 
HETATM    9  N   UNL     1     -35.959  41.670 -53.165  1.00  0.00    -0.276 N 
HETATM   10  H   UNL     1     -36.557  41.873 -52.372  1.00  0.00     0.189 HD
HETATM   11  N   UNL     1     -36.409  41.967 -54.404  1.00  0.00    -0.168 NA
HETATM   12  C   UNL     1     -35.399  41.586 -55.223  1.00  0.00     0.155 A 
HETATM   13  C   UNL     1     -31.756  39.639 -51.497  1.00  0.00     0.038 A 
HETATM   14  C   UNL     1     -32.118  39.686 -50.151  1.00  0.00     0.003 A 
ENDROOT
BRANCH  12  15
HETATM   15  C   UNL     1     -35.476  41.733 -56.684  1.00  0.00     0.272 C 
HETATM   16  N   UNL     1     -36.759  41.882 -57.150  1.00  0.00    -0.351 N 
HETATM   17  H   UNL     1     -37.490  41.890 -56.444  1.00  0.00     0.163 HD
HETATM   18  O   UNL     1     -34.481  41.723 -57.403  1.00  0.00    -0.266 OA
BRANCH  16  19
HETATM   19  C   UNL     1     -37.084  42.036 -58.543  1.00  0.00     0.161 C 
BRANCH  19  20
HETATM   20  C   UNL     1     -37.551  40.736 -59.144  1.00  0.00    -0.039 A 
HETATM   21  C   UNL     1     -37.336  40.465 -60.505  1.00  0.00     0.032 A 
HETATM   22  C   UNL     1     -37.753  39.254 -61.056  1.00  0.00     0.034 A 
HETATM   23 CL   UNL     1     -37.490  38.938 -62.727  1.00  0.00    -0.084 Cl
HETATM   24  C   UNL     1     -38.381  38.295 -60.263  1.00  0.00     0.024 A 
HETATM   25  C   UNL     1     -38.594  38.551 -58.908  1.00  0.00     0.002 A 
HETATM   26  C   UNL     1     -38.181  39.764 -58.352  1.00  0.00     0.009 A 
ENDBRANCH  19  20
ENDBRANCH  16  19
ENDBRANCH  12  15
TORSDOF 3
ENDMDL
MODEL 10
REMARK VINA RESULT:      -7.6      1.992      2.662
REMARK  3 active torsions:
REMARK  status: ('A' for Active; 'I' for Inactive)
REMARK    1  A    between atoms: C_12  and  C_13 
REMARK       I    between atoms: C_13  and  N_14 
REMARK    2  A    between atoms: N_14  and  C_15 
REMARK    3  A    between atoms: C_15  and  C_16 
ROOT
HETATM    1  C   UNL     1     -40.608  53.320 -49.015  1.00  0.00     0.001 A 
HETATM    2  C   UNL     1     -40.908  54.643 -49.347  1.00  0.00     0.016 A 
HETATM    3  C   UNL     1     -40.957  55.027 -50.689  1.00  0.00     0.026 A 
HETATM    4  C   UNL     1     -40.705  54.080 -51.703  1.00  0.00     0.081 A 
HETATM    5  O   UNL     1     -40.730  54.350 -53.054  1.00  0.00    -0.346 OA
HETATM    6  C   UNL     1     -41.027  55.698 -53.521  1.00  0.00     0.219 A 
HETATM    7  C   UNL     1     -41.299  56.693 -52.462  1.00  0.00     0.031 A 
HETATM    8  C   UNL     1     -41.260  56.363 -51.134  1.00  0.00     0.074 A 
HETATM    9  N   UNL     1     -41.550  57.498 -50.448  1.00  0.00    -0.276 N 
HETATM   10  H   UNL     1     -41.609  57.629 -49.444  1.00  0.00     0.189 HD
HETATM   11  N   UNL     1     -41.786  58.559 -51.251  1.00  0.00    -0.168 NA
HETATM   12  C   UNL     1     -41.630  58.066 -52.503  1.00  0.00     0.155 A 
HETATM   13  C   UNL     1     -40.406  52.762 -51.360  1.00  0.00     0.038 A 
HETATM   14  C   UNL     1     -40.358  52.382 -50.018  1.00  0.00     0.003 A 
ENDROOT
BRANCH  12  15
HETATM   15  C   UNL     1     -41.802  58.901 -53.702  1.00  0.00     0.272 C 
HETATM   16  N   UNL     1     -42.819  58.475 -54.520  1.00  0.00    -0.351 N 
HETATM   17  H   UNL     1     -43.334  57.659 -54.201  1.00  0.00     0.163 HD
HETATM   18  O   UNL     1     -41.099  59.880 -53.932  1.00  0.00    -0.266 OA
BRANCH  16  19
HETATM   19  C   UNL     1     -43.171  59.127 -55.753  1.00  0.00     0.161 C 
BRANCH  19  20
HETATM   20  C   UNL     1     -42.997  58.205 -56.932  1.00  0.00    -0.039 A 
HETATM   21  C   UNL     1     -42.536  58.702 -58.161  1.00  0.00     0.032 A 
HETATM   22  C   UNL     1     -42.359  57.844 -59.245  1.00  0.00     0.034 A 
HETATM   23 CL   UNL     1     -41.801  58.468 -60.749  1.00  0.00    -0.084 Cl
HETATM   24  C   UNL     1     -42.629  56.482 -59.121  1.00  0.00     0.024 A 
HETATM   25  C   UNL     1     -43.081  55.976 -57.903  1.00  0.00     0.002 A 
HETATM   26  C   UNL     1     -43.264  56.832 -56.814  1.00  0.00     0.009 A 
ENDBRANCH  19  20
ENDBRANCH  16  19
ENDBRANCH  12  15
TORSDOF 3
ENDMDL
