MODEL 1
REMARK VINA RESULT:      -9.2      0.000      0.000
REMARK  6 active torsions:
REMARK  status: ('A' for Active; 'I' for Inactive)
REMARK    1  A    between atoms: C_3  and  C_4 
REMARK    2  A    between atoms: C_4  and  N_5 
REMARK    3  A    between atoms: C_4  and  C_9 
REMARK       I    between atoms: N_5  and  C_6 
REMARK       I    between atoms: C_6  and  N_7 
REMARK    4  A    between atoms: C_9  and  C_10 
REMARK       I    between atoms: C_10  and  N_11 
REMARK    5  A    between atoms: N_11  and  C_12 
REMARK    6  A    between atoms: C_14  and  C_15 
ROOT
HETATM    1  C   UNL     1     -40.332  54.350 -54.690  1.00  0.00     0.133 C 
ENDROOT
BRANCH   1   2
HETATM    2  C   UNL     1     -40.653  53.883 -53.266  1.00  0.00     0.128 C 
BRANCH   2   3
HETATM    3  C   UNL     1     -40.284  52.409 -53.086  1.00  0.00    -0.029 A 
HETATM    4  C   UNL     1     -39.903  51.894 -51.822  1.00  0.00    -0.054 A 
HETATM    5  C   UNL     1     -39.854  52.753 -50.584  1.00  0.00     0.049 C 
HETATM    6  C   UNL     1     -39.556  50.537 -51.704  1.00  0.00     0.007 A 
HETATM    7  C   UNL     1     -39.568  49.693 -52.813  1.00  0.00     0.001 A 
HETATM    8  C   UNL     1     -39.919  50.197 -54.059  1.00  0.00     0.001 A 
HETATM    9  C   UNL     1     -40.265  51.541 -54.195  1.00  0.00     0.010 A 
ENDBRANCH   2   3
BRANCH   2  10
HETATM   10  N   UNL     1     -42.010  54.170 -52.790  1.00  0.00    -0.334 N 
HETATM   11  C   UNL     1     -42.380  55.156 -51.934  1.00  0.00     0.314 C 
HETATM   12  N   UNL     1     -43.720  55.177 -51.718  1.00  0.00    -0.352 N 
HETATM   13  O   UNL     1     -41.639  55.955 -51.383  1.00  0.00    -0.248 OA
HETATM   14  H   UNL     1     -44.324  54.936 -52.490  1.00  0.00     0.160 HD
HETATM   15  H   UNL     1     -44.030  55.965 -51.163  1.00  0.00     0.160 HD
HETATM   16  H   UNL     1     -42.719  53.496 -53.035  1.00  0.00     0.165 HD
ENDBRANCH   2  10
ENDBRANCH   1   2
BRANCH   1  17
HETATM   17  C   UNL     1     -41.610  54.675 -55.437  1.00  0.00     0.224 C 
HETATM   18  N   UNL     1     -41.609  55.944 -55.983  1.00  0.00    -0.327 N 
HETATM   19  H   UNL     1     -40.741  56.466 -55.906  1.00  0.00     0.169 HD
HETATM   20  O   UNL     1     -42.535  53.869 -55.464  1.00  0.00    -0.273 OA
BRANCH  18  21
HETATM   21  C   UNL     1     -42.654  56.583 -56.680  1.00  0.00     0.035 A 
HETATM   22  C   UNL     1     -43.234  56.084 -57.851  1.00  0.00     0.042 A 
HETATM   23  C   UNL     1     -44.277  56.770 -58.501  1.00  0.00    -0.021 A 
HETATM   24  C   UNL     1     -44.744  57.965 -57.939  1.00  0.00     0.012 A 
HETATM   25  C   UNL     1     -44.172  58.473 -56.774  1.00  0.00     0.003 A 
HETATM   26  C   UNL     1     -43.126  57.791 -56.153  1.00  0.00     0.029 A 
BRANCH  23  27
HETATM   27  C   UNL     1     -44.844  56.236 -59.733  1.00  0.00     0.010 A 
HETATM   28  C   UNL     1     -44.367  55.235 -60.616  1.00  0.00     0.152 A 
HETATM   29  N   UNL     1     -45.172  55.037 -61.664  1.00  0.00    -0.187 NA
HETATM   30  N   UNL     1     -46.166  55.914 -61.463  1.00  0.00    -0.289 N 
HETATM   31  H   UNL     1     -46.913  55.958 -62.147  1.00  0.00     0.188 HD
HETATM   32  C   UNL     1     -46.018  56.655 -60.326  1.00  0.00     0.123 A 
ENDBRANCH  23  27
ENDBRANCH  18  21
ENDBRANCH   1  17
TORSDOF 6
ENDMDL
MODEL 2
REMARK VINA RESULT:      -8.6      2.122      3.089
REMARK  6 active torsions:
REMARK  status: ('A' for Active; 'I' for Inactive)
REMARK    1  A    between atoms: C_3  and  C_4 
REMARK    2  A    between atoms: C_4  and  N_5 
REMARK    3  A    between atoms: C_4  and  C_9 
REMARK       I    between atoms: N_5  and  C_6 
REMARK       I    between atoms: C_6  and  N_7 
REMARK    4  A    between atoms: C_9  and  C_10 
REMARK       I    between atoms: C_10  and  N_11 
REMARK    5  A    between atoms: N_11  and  C_12 
REMARK    6  A    between atoms: C_14  and  C_15 
ROOT
HETATM    1  C   UNL     1     -42.098  53.718 -51.489  1.00  0.00     0.133 C 
ENDROOT
BRANCH   1   2
HETATM    2  C   UNL     1     -40.626  53.418 -51.187  1.00  0.00     0.128 C 
BRANCH   2   3
HETATM    3  C   UNL     1     -40.186  52.125 -51.876  1.00  0.00    -0.029 A 
HETATM    4  C   UNL     1     -39.993  52.066 -53.279  1.00  0.00    -0.054 A 
HETATM    5  C   UNL     1     -40.190  53.266 -54.170  1.00  0.00     0.049 C 
HETATM    6  C   UNL     1     -39.605  50.853 -53.874  1.00  0.00     0.007 A 
HETATM    7  C   UNL     1     -39.419  49.704 -53.107  1.00  0.00     0.001 A 
HETATM    8  C   UNL     1     -39.629  49.750 -51.735  1.00  0.00     0.001 A 
HETATM    9  C   UNL     1     -40.015  50.944 -51.127  1.00  0.00     0.010 A 
ENDBRANCH   2   3
BRANCH   2  10
HETATM   10  N   UNL     1     -40.247  53.440 -49.771  1.00  0.00    -0.334 N 
HETATM   11  C   UNL     1     -40.597  54.372 -48.849  1.00  0.00     0.314 C 
HETATM   12  N   UNL     1     -40.111  54.087 -47.615  1.00  0.00    -0.352 N 
HETATM   13  O   UNL     1     -41.262  55.377 -49.049  1.00  0.00    -0.248 OA
HETATM   14  H   UNL     1     -40.056  53.115 -47.344  1.00  0.00     0.160 HD
HETATM   15  H   UNL     1     -40.442  54.713 -46.892  1.00  0.00     0.160 HD
HETATM   16  H   UNL     1     -39.565  52.755 -49.483  1.00  0.00     0.165 HD
ENDBRANCH   2  10
ENDBRANCH   1   2
BRANCH   1  17
HETATM   17  C   UNL     1     -42.217  54.972 -52.330  1.00  0.00     0.224 C 
HETATM   18  N   UNL     1     -43.218  54.893 -53.280  1.00  0.00    -0.327 N 
HETATM   19  H   UNL     1     -43.806  54.066 -53.246  1.00  0.00     0.169 HD
HETATM   20  O   UNL     1     -41.434  55.903 -52.170  1.00  0.00    -0.273 OA
BRANCH  18  21
HETATM   21  C   UNL     1     -43.554  55.850 -54.260  1.00  0.00     0.035 A 
HETATM   22  C   UNL     1     -43.077  55.825 -55.574  1.00  0.00     0.042 A 
HETATM   23  C   UNL     1     -43.450  56.810 -56.507  1.00  0.00    -0.021 A 
HETATM   24  C   UNL     1     -44.335  57.818 -56.099  1.00  0.00     0.012 A 
HETATM   25  C   UNL     1     -44.815  57.853 -54.790  1.00  0.00     0.003 A 
HETATM   26  C   UNL     1     -44.418  56.880 -53.873  1.00  0.00     0.029 A 
BRANCH  23  27
HETATM   27  C   UNL     1     -42.918  56.770 -57.863  1.00  0.00     0.010 A 
HETATM   28  C   UNL     1     -43.092  55.820 -58.900  1.00  0.00     0.152 A 
HETATM   29  N   UNL     1     -42.414  56.127 -60.009  1.00  0.00    -0.187 NA
HETATM   30  N   UNL     1     -41.795  57.272 -59.688  1.00  0.00    -0.289 N 
HETATM   31  H   UNL     1     -41.199  57.708 -60.383  1.00  0.00     0.188 HD
HETATM   32  C   UNL     1     -42.060  57.698 -58.418  1.00  0.00     0.123 A 
ENDBRANCH  23  27
ENDBRANCH  18  21
ENDBRANCH   1  17
TORSDOF 6
ENDMDL
MODEL 3
REMARK VINA RESULT:      -8.4      1.519      2.258
REMARK  6 active torsions:
REMARK  status: ('A' for Active; 'I' for Inactive)
REMARK    1  A    between atoms: C_3  and  C_4 
REMARK    2  A    between atoms: C_4  and  N_5 
REMARK    3  A    between atoms: C_4  and  C_9 
REMARK       I    between atoms: N_5  and  C_6 
REMARK       I    between atoms: C_6  and  N_7 
REMARK    4  A    between atoms: C_9  and  C_10 
REMARK       I    between atoms: C_10  and  N_11 
REMARK    5  A    between atoms: N_11  and  C_12 
REMARK    6  A    between atoms: C_14  and  C_15 
ROOT
HETATM    1  C   UNL     1     -43.026  54.647 -52.733  1.00  0.00     0.133 C 
ENDROOT
BRANCH   1   2
HETATM    2  C   UNL     1     -41.550  54.894 -52.407  1.00  0.00     0.128 C 
BRANCH   2   3
HETATM    3  C   UNL     1     -40.824  53.570 -52.158  1.00  0.00    -0.029 A 
HETATM    4  C   UNL     1     -40.210  52.855 -53.216  1.00  0.00    -0.054 A 
HETATM    5  C   UNL     1     -40.217  53.358 -54.637  1.00  0.00     0.049 C 
HETATM    6  C   UNL     1     -39.568  51.634 -52.947  1.00  0.00     0.007 A 
HETATM    7  C   UNL     1     -39.537  51.109 -51.656  1.00  0.00     0.001 A 
HETATM    8  C   UNL     1     -40.157  51.793 -50.618  1.00  0.00     0.001 A 
HETATM    9  C   UNL     1     -40.800  53.006 -50.868  1.00  0.00     0.010 A 
ENDBRANCH   2   3
BRANCH   2  10
HETATM   10  N   UNL     1     -41.283  55.872 -51.347  1.00  0.00    -0.334 N 
HETATM   11  C   UNL     1     -41.637  57.182 -51.342  1.00  0.00     0.314 C 
HETATM   12  N   UNL     1     -41.273  57.811 -50.195  1.00  0.00    -0.352 N 
HETATM   13  O   UNL     1     -42.210  57.783 -52.237  1.00  0.00    -0.248 OA
HETATM   14  H   UNL     1     -41.311  57.281 -49.336  1.00  0.00     0.160 HD
HETATM   15  H   UNL     1     -41.614  58.761 -50.126  1.00  0.00     0.160 HD
HETATM   16  H   UNL     1     -40.678  55.564 -50.601  1.00  0.00     0.165 HD
ENDBRANCH   2  10
ENDBRANCH   1   2
BRANCH   1  17
HETATM   17  C   UNL     1     -43.278  54.848 -54.214  1.00  0.00     0.224 C 
HETATM   18  N   UNL     1     -42.686  55.994 -54.712  1.00  0.00    -0.327 N 
HETATM   19  H   UNL     1     -42.088  56.506 -54.071  1.00  0.00     0.169 HD
HETATM   20  O   UNL     1     -43.992  54.066 -54.834  1.00  0.00    -0.273 OA
BRANCH  18  21
HETATM   21  C   UNL     1     -42.772  56.509 -56.021  1.00  0.00     0.035 A 
HETATM   22  C   UNL     1     -43.366  55.831 -57.091  1.00  0.00     0.042 A 
HETATM   23  C   UNL     1     -43.421  56.400 -58.377  1.00  0.00    -0.021 A 
HETATM   24  C   UNL     1     -42.883  57.680 -58.566  1.00  0.00     0.012 A 
HETATM   25  C   UNL     1     -42.287  58.364 -57.507  1.00  0.00     0.003 A 
HETATM   26  C   UNL     1     -42.223  57.776 -56.244  1.00  0.00     0.029 A 
BRANCH  23  27
HETATM   27  C   UNL     1     -44.025  55.660 -59.477  1.00  0.00     0.010 A 
HETATM   28  C   UNL     1     -44.486  56.094 -60.745  1.00  0.00     0.152 A 
HETATM   29  N   UNL     1     -45.004  55.106 -61.479  1.00  0.00    -0.187 NA
HETATM   30  N   UNL     1     -44.886  54.033 -60.684  1.00  0.00    -0.289 N 
HETATM   31  H   UNL     1     -45.225  53.141 -61.027  1.00  0.00     0.188 HD
HETATM   32  C   UNL     1     -44.309  54.309 -59.478  1.00  0.00     0.123 A 
ENDBRANCH  23  27
ENDBRANCH  18  21
ENDBRANCH   1  17
TORSDOF 6
ENDMDL
MODEL 4
REMARK VINA RESULT:      -8.4      2.106      3.479
REMARK  6 active torsions:
REMARK  status: ('A' for Active; 'I' for Inactive)
REMARK    1  A    between atoms: C_3  and  C_4 
REMARK    2  A    between atoms: C_4  and  N_5 
REMARK    3  A    between atoms: C_4  and  C_9 
REMARK       I    between atoms: N_5  and  C_6 
REMARK       I    between atoms: C_6  and  N_7 
REMARK    4  A    between atoms: C_9  and  C_10 
REMARK       I    between atoms: C_10  and  N_11 
REMARK    5  A    between atoms: N_11  and  C_12 
REMARK    6  A    between atoms: C_14  and  C_15 
ROOT
HETATM    1  C   UNL     1     -40.594  54.155 -55.098  1.00  0.00     0.133 C 
ENDROOT
BRANCH   1   2
HETATM    2  C   UNL     1     -40.766  53.823 -53.611  1.00  0.00     0.128 C 
BRANCH   2   3
HETATM    3  C   UNL     1     -40.366  52.373 -53.333  1.00  0.00    -0.029 A 
HETATM    4  C   UNL     1     -39.863  51.977 -52.069  1.00  0.00    -0.054 A 
HETATM    5  C   UNL     1     -39.709  52.945 -50.925  1.00  0.00     0.049 C 
HETATM    6  C   UNL     1     -39.492  50.637 -51.861  1.00  0.00     0.007 A 
HETATM    7  C   UNL     1     -39.598  49.695 -52.883  1.00  0.00     0.001 A 
HETATM    8  C   UNL     1     -40.069  50.082 -54.131  1.00  0.00     0.001 A 
HETATM    9  C   UNL     1     -40.441  51.408 -54.356  1.00  0.00     0.010 A 
ENDBRANCH   2   3
BRANCH   2  10
HETATM   10  N   UNL     1     -42.071  54.153 -53.029  1.00  0.00    -0.334 N 
HETATM   11  C   UNL     1     -42.361  55.209 -52.227  1.00  0.00     0.314 C 
HETATM   12  N   UNL     1     -43.673  55.251 -51.883  1.00  0.00    -0.352 N 
HETATM   13  O   UNL     1     -41.574  56.050 -51.823  1.00  0.00    -0.248 OA
HETATM   14  H   UNL     1     -44.349  54.946 -52.568  1.00  0.00     0.160 HD
HETATM   15  H   UNL     1     -43.932  56.084 -51.369  1.00  0.00     0.160 HD
HETATM   16  H   UNL     1     -42.796  53.462 -53.145  1.00  0.00     0.165 HD
ENDBRANCH   2  10
ENDBRANCH   1   2
BRANCH   1  17
HETATM   17  C   UNL     1     -41.889  54.698 -55.667  1.00  0.00     0.224 C 
HETATM   18  N   UNL     1     -41.795  56.021 -56.056  1.00  0.00    -0.327 N 
HETATM   19  H   UNL     1     -40.872  56.440 -56.007  1.00  0.00     0.169 HD
HETATM   20  O   UNL     1     -42.896  53.998 -55.696  1.00  0.00    -0.273 OA
BRANCH  18  21
HETATM   21  C   UNL     1     -42.821  56.845 -56.564  1.00  0.00     0.035 A 
HETATM   22  C   UNL     1     -43.470  57.835 -55.819  1.00  0.00     0.042 A 
HETATM   23  C   UNL     1     -44.487  58.626 -56.385  1.00  0.00    -0.021 A 
HETATM   24  C   UNL     1     -44.829  58.418 -57.728  1.00  0.00     0.012 A 
HETATM   25  C   UNL     1     -44.189  57.433 -58.479  1.00  0.00     0.003 A 
HETATM   26  C   UNL     1     -43.197  56.644 -57.896  1.00  0.00     0.029 A 
BRANCH  23  27
HETATM   27  C   UNL     1     -45.162  59.633 -55.576  1.00  0.00     0.010 A 
HETATM   28  C   UNL     1     -45.763  60.864 -55.940  1.00  0.00     0.152 A 
HETATM   29  N   UNL     1     -46.268  61.528 -54.896  1.00  0.00    -0.187 NA
HETATM   30  N   UNL     1     -45.986  60.731 -53.855  1.00  0.00    -0.289 N 
HETATM   31  H   UNL     1     -46.269  61.032 -52.929  1.00  0.00     0.188 HD
HETATM   32  C   UNL     1     -45.326  59.589 -54.206  1.00  0.00     0.123 A 
ENDBRANCH  23  27
ENDBRANCH  18  21
ENDBRANCH   1  17
TORSDOF 6
ENDMDL
MODEL 5
REMARK VINA RESULT:      -8.4      2.449      2.725
REMARK  6 active torsions:
REMARK  status: ('A' for Active; 'I' for Inactive)
REMARK    1  A    between atoms: C_3  and  C_4 
REMARK    2  A    between atoms: C_4  and  N_5 
REMARK    3  A    between atoms: C_4  and  C_9 
REMARK       I    between atoms: N_5  and  C_6 
REMARK       I    between atoms: C_6  and  N_7 
REMARK    4  A    between atoms: C_9  and  C_10 
REMARK       I    between atoms: C_10  and  N_11 
REMARK    5  A    between atoms: N_11  and  C_12 
REMARK    6  A    between atoms: C_14  and  C_15 
ROOT
HETATM    1  C   UNL     1     -40.564  54.439 -54.931  1.00  0.00     0.133 C 
ENDROOT
BRANCH   1   2
HETATM    2  C   UNL     1     -40.869  53.942 -53.514  1.00  0.00     0.128 C 
BRANCH   2   3
HETATM    3  C   UNL     1     -40.432  52.485 -53.348  1.00  0.00    -0.029 A 
HETATM    4  C   UNL     1     -39.861  52.020 -52.138  1.00  0.00    -0.054 A 
HETATM    5  C   UNL     1     -39.665  52.918 -50.943  1.00  0.00     0.049 C 
HETATM    6  C   UNL     1     -39.458  50.677 -52.033  1.00  0.00     0.007 A 
HETATM    7  C   UNL     1     -39.599  49.799 -53.106  1.00  0.00     0.001 A 
HETATM    8  C   UNL     1     -40.138  50.255 -54.303  1.00  0.00     0.001 A 
HETATM    9  C   UNL     1     -40.543  51.584 -54.425  1.00  0.00     0.010 A 
ENDBRANCH   2   3
BRANCH   2  10
HETATM   10  N   UNL     1     -42.240  54.159 -53.041  1.00  0.00    -0.334 N 
HETATM   11  C   UNL     1     -42.627  54.931 -51.993  1.00  0.00     0.314 C 
HETATM   12  N   UNL     1     -43.975  54.951 -51.836  1.00  0.00    -0.352 N 
HETATM   13  O   UNL     1     -41.894  55.552 -51.240  1.00  0.00    -0.248 OA
HETATM   14  H   UNL     1     -44.546  54.919 -52.668  1.00  0.00     0.160 HD
HETATM   15  H   UNL     1     -44.292  55.598 -51.125  1.00  0.00     0.160 HD
HETATM   16  H   UNL     1     -42.953  53.588 -53.468  1.00  0.00     0.165 HD
ENDBRANCH   2  10
ENDBRANCH   1   2
BRANCH   1  17
HETATM   17  C   UNL     1     -41.236  55.775 -55.174  1.00  0.00     0.224 C 
HETATM   18  N   UNL     1     -41.935  55.820 -56.365  1.00  0.00    -0.327 N 
HETATM   19  H   UNL     1     -41.998  54.948 -56.883  1.00  0.00     0.169 HD
HETATM   20  O   UNL     1     -41.085  56.700 -54.381  1.00  0.00    -0.273 OA
BRANCH  18  21
HETATM   21  C   UNL     1     -42.617  56.920 -56.924  1.00  0.00     0.035 A 
HETATM   22  C   UNL     1     -42.121  57.696 -57.976  1.00  0.00     0.042 A 
HETATM   23  C   UNL     1     -42.852  58.783 -58.491  1.00  0.00    -0.021 A 
HETATM   24  C   UNL     1     -44.109  59.066 -57.940  1.00  0.00     0.012 A 
HETATM   25  C   UNL     1     -44.612  58.300 -56.889  1.00  0.00     0.003 A 
HETATM   26  C   UNL     1     -43.865  57.238 -56.378  1.00  0.00     0.029 A 
BRANCH  23  27
HETATM   27  C   UNL     1     -42.298  59.588 -59.572  1.00  0.00     0.010 A 
HETATM   28  C   UNL     1     -41.796  60.913 -59.578  1.00  0.00     0.152 A 
HETATM   29  N   UNL     1     -41.389  61.312 -60.786  1.00  0.00    -0.187 NA
HETATM   30  N   UNL     1     -41.635  60.248 -61.564  1.00  0.00    -0.289 N 
HETATM   31  H   UNL     1     -41.412  60.313 -62.552  1.00  0.00     0.188 HD
HETATM   32  C   UNL     1     -42.179  59.193 -60.889  1.00  0.00     0.123 A 
ENDBRANCH  23  27
ENDBRANCH  18  21
ENDBRANCH   1  17
TORSDOF 6
ENDMDL
MODEL 6
REMARK VINA RESULT:      -8.2      4.532      5.976
REMARK  6 active torsions:
REMARK  status: ('A' for Active; 'I' for Inactive)
REMARK    1  A    between atoms: C_3  and  C_4 
REMARK    2  A    between atoms: C_4  and  N_5 
REMARK    3  A    between atoms: C_4  and  C_9 
REMARK       I    between atoms: N_5  and  C_6 
REMARK       I    between atoms: C_6  and  N_7 
REMARK    4  A    between atoms: C_9  and  C_10 
REMARK       I    between atoms: C_10  and  N_11 
REMARK    5  A    between atoms: N_11  and  C_12 
REMARK    6  A    between atoms: C_14  and  C_15 
ROOT
HETATM    1  C   UNL     1     -40.772  54.813 -53.914  1.00  0.00     0.133 C 
ENDROOT
BRANCH   1   2
HETATM    2  C   UNL     1     -41.107  53.912 -52.721  1.00  0.00     0.128 C 
BRANCH   2   3
HETATM    3  C   UNL     1     -40.549  52.504 -52.935  1.00  0.00    -0.029 A 
HETATM    4  C   UNL     1     -40.009  51.753 -51.861  1.00  0.00    -0.054 A 
HETATM    5  C   UNL     1     -39.967  52.283 -50.450  1.00  0.00     0.049 C 
HETATM    6  C   UNL     1     -39.491  50.469 -52.104  1.00  0.00     0.007 A 
HETATM    7  C   UNL     1     -39.488  49.928 -53.389  1.00  0.00     0.001 A 
HETATM    8  C   UNL     1     -39.995  50.668 -54.450  1.00  0.00     0.001 A 
HETATM    9  C   UNL     1     -40.512  51.944 -54.227  1.00  0.00     0.010 A 
ENDBRANCH   2   3
BRANCH   2  10
HETATM   10  N   UNL     1     -42.516  53.886 -52.315  1.00  0.00    -0.334 N 
HETATM   11  C   UNL     1     -43.023  54.255 -51.112  1.00  0.00     0.314 C 
HETATM   12  N   UNL     1     -44.375  54.146 -51.064  1.00  0.00    -0.352 N 
HETATM   13  O   UNL     1     -42.387  54.642 -50.144  1.00  0.00    -0.248 OA
HETATM   14  H   UNL     1     -44.893  54.350 -51.907  1.00  0.00     0.160 HD
HETATM   15  H   UNL     1     -44.784  54.510 -50.213  1.00  0.00     0.160 HD
HETATM   16  H   UNL     1     -43.155  53.442 -52.957  1.00  0.00     0.165 HD
ENDBRANCH   2  10
ENDBRANCH   1   2
BRANCH   1  17
HETATM   17  C   UNL     1     -41.153  56.248 -53.611  1.00  0.00     0.224 C 
HETATM   18  N   UNL     1     -41.005  56.577 -52.277  1.00  0.00    -0.327 N 
HETATM   19  H   UNL     1     -40.580  55.870 -51.685  1.00  0.00     0.169 HD
HETATM   20  O   UNL     1     -41.596  56.972 -54.498  1.00  0.00    -0.273 OA
BRANCH  18  21
HETATM   21  C   UNL     1     -41.326  57.798 -51.650  1.00  0.00     0.035 A 
HETATM   22  C   UNL     1     -42.626  58.302 -51.538  1.00  0.00     0.042 A 
HETATM   23  C   UNL     1     -42.881  59.529 -50.898  1.00  0.00    -0.021 A 
HETATM   24  C   UNL     1     -41.803  60.236 -50.350  1.00  0.00     0.012 A 
HETATM   25  C   UNL     1     -40.503  59.743 -50.458  1.00  0.00     0.003 A 
HETATM   26  C   UNL     1     -40.265  58.535 -51.113  1.00  0.00     0.029 A 
BRANCH  23  27
HETATM   27  C   UNL     1     -44.244  60.040 -50.818  1.00  0.00     0.010 A 
HETATM   28  C   UNL     1     -45.441  59.586 -51.425  1.00  0.00     0.152 A 
HETATM   29  N   UNL     1     -46.500  60.342 -51.121  1.00  0.00    -0.187 NA
HETATM   30  N   UNL     1     -45.987  61.289 -50.323  1.00  0.00    -0.289 N 
HETATM   31  H   UNL     1     -46.611  62.002 -49.961  1.00  0.00     0.188 HD
HETATM   32  C   UNL     1     -44.645  61.155 -50.111  1.00  0.00     0.123 A 
ENDBRANCH  23  27
ENDBRANCH  18  21
ENDBRANCH   1  17
TORSDOF 6
ENDMDL
MODEL 7
REMARK VINA RESULT:      -8.1      2.771      3.825
REMARK  6 active torsions:
REMARK  status: ('A' for Active; 'I' for Inactive)
REMARK    1  A    between atoms: C_3  and  C_4 
REMARK    2  A    between atoms: C_4  and  N_5 
REMARK    3  A    between atoms: C_4  and  C_9 
REMARK       I    between atoms: N_5  and  C_6 
REMARK       I    between atoms: C_6  and  N_7 
REMARK    4  A    between atoms: C_9  and  C_10 
REMARK       I    between atoms: C_10  and  N_11 
REMARK    5  A    between atoms: N_11  and  C_12 
REMARK    6  A    between atoms: C_14  and  C_15 
ROOT
HETATM    1  C   UNL     1     -43.139  55.136 -53.217  1.00  0.00     0.133 C 
ENDROOT
BRANCH   1   2
HETATM    2  C   UNL     1     -41.635  55.333 -52.999  1.00  0.00     0.128 C 
BRANCH   2   3
HETATM    3  C   UNL     1     -41.002  54.061 -52.432  1.00  0.00    -0.029 A 
HETATM    4  C   UNL     1     -40.357  53.121 -53.273  1.00  0.00    -0.054 A 
HETATM    5  C   UNL     1     -40.241  53.320 -54.763  1.00  0.00     0.049 C 
HETATM    6  C   UNL     1     -39.802  51.957 -52.713  1.00  0.00     0.007 A 
HETATM    7  C   UNL     1     -39.887  51.707 -51.345  1.00  0.00     0.001 A 
HETATM    8  C   UNL     1     -40.537  52.615 -50.518  1.00  0.00     0.001 A 
HETATM    9  C   UNL     1     -41.095  53.774 -51.056  1.00  0.00     0.010 A 
ENDBRANCH   2   3
BRANCH   2  10
HETATM   10  N   UNL     1     -41.251  56.524 -52.235  1.00  0.00    -0.334 N 
HETATM   11  C   UNL     1     -41.010  57.765 -52.729  1.00  0.00     0.314 C 
HETATM   12  N   UNL     1     -40.708  58.660 -51.754  1.00  0.00    -0.352 N 
HETATM   13  O   UNL     1     -41.039  58.097 -53.903  1.00  0.00    -0.248 OA
HETATM   14  H   UNL     1     -41.173  58.560 -50.864  1.00  0.00     0.160 HD
HETATM   15  H   UNL     1     -40.623  59.612 -52.087  1.00  0.00     0.160 HD
HETATM   16  H   UNL     1     -41.033  56.376 -51.261  1.00  0.00     0.165 HD
ENDBRANCH   2  10
ENDBRANCH   1   2
BRANCH   1  17
HETATM   17  C   UNL     1     -43.577  55.814 -54.499  1.00  0.00     0.224 C 
HETATM   18  N   UNL     1     -42.660  55.677 -55.523  1.00  0.00    -0.327 N 
HETATM   19  H   UNL     1     -41.864  55.075 -55.336  1.00  0.00     0.169 HD
HETATM   20  O   UNL     1     -44.625  56.452 -54.537  1.00  0.00    -0.273 OA
BRANCH  18  21
HETATM   21  C   UNL     1     -42.724  56.232 -56.818  1.00  0.00     0.035 A 
HETATM   22  C   UNL     1     -42.351  57.545 -57.126  1.00  0.00     0.042 A 
HETATM   23  C   UNL     1     -42.437  58.040 -58.440  1.00  0.00    -0.021 A 
HETATM   24  C   UNL     1     -42.889  57.182 -59.451  1.00  0.00     0.012 A 
HETATM   25  C   UNL     1     -43.266  55.872 -59.155  1.00  0.00     0.003 A 
HETATM   26  C   UNL     1     -43.193  55.404 -57.843  1.00  0.00     0.029 A 
BRANCH  23  27
HETATM   27  C   UNL     1     -42.063  59.419 -58.725  1.00  0.00     0.010 A 
HETATM   28  C   UNL     1     -42.022  60.135 -59.948  1.00  0.00     0.152 A 
HETATM   29  N   UNL     1     -41.600  61.394 -59.802  1.00  0.00    -0.187 NA
HETATM   30  N   UNL     1     -41.360  61.491 -58.487  1.00  0.00    -0.289 N 
HETATM   31  H   UNL     1     -41.014  62.374 -58.126  1.00  0.00     0.188 HD
HETATM   32  C   UNL     1     -41.618  60.341 -57.799  1.00  0.00     0.123 A 
ENDBRANCH  23  27
ENDBRANCH  18  21
ENDBRANCH   1  17
TORSDOF 6
ENDMDL
MODEL 8
REMARK VINA RESULT:      -8.1      2.041      2.762
REMARK  6 active torsions:
REMARK  status: ('A' for Active; 'I' for Inactive)
REMARK    1  A    between atoms: C_3  and  C_4 
REMARK    2  A    between atoms: C_4  and  N_5 
REMARK    3  A    between atoms: C_4  and  C_9 
REMARK       I    between atoms: N_5  and  C_6 
REMARK       I    between atoms: C_6  and  N_7 
REMARK    4  A    between atoms: C_9  and  C_10 
REMARK       I    between atoms: C_10  and  N_11 
REMARK    5  A    between atoms: N_11  and  C_12 
REMARK    6  A    between atoms: C_14  and  C_15 
ROOT
HETATM    1  C   UNL     1     -43.152  54.464 -52.427  1.00  0.00     0.133 C 
ENDROOT
BRANCH   1   2
HETATM    2  C   UNL     1     -41.677  54.749 -52.123  1.00  0.00     0.128 C 
BRANCH   2   3
HETATM    3  C   UNL     1     -40.903  53.442 -51.937  1.00  0.00    -0.029 A 
HETATM    4  C   UNL     1     -40.271  52.797 -53.028  1.00  0.00    -0.054 A 
HETATM    5  C   UNL     1     -40.306  53.360 -54.426  1.00  0.00     0.049 C 
HETATM    6  C   UNL     1     -39.583  51.590 -52.816  1.00  0.00     0.007 A 
HETATM    7  C   UNL     1     -39.525  51.010 -51.550  1.00  0.00     0.001 A 
HETATM    8  C   UNL     1     -40.161  51.626 -50.479  1.00  0.00     0.001 A 
HETATM    9  C   UNL     1     -40.849  52.824 -50.672  1.00  0.00     0.010 A 
ENDBRANCH   2   3
BRANCH   2  10
HETATM   10  N   UNL     1     -41.420  55.698 -51.036  1.00  0.00    -0.334 N 
HETATM   11  C   UNL     1     -41.499  57.051 -51.101  1.00  0.00     0.314 C 
HETATM   12  N   UNL     1     -41.233  57.643 -49.909  1.00  0.00    -0.352 N 
HETATM   13  O   UNL     1     -41.765  57.716 -52.091  1.00  0.00    -0.248 OA
HETATM   14  H   UNL     1     -41.533  57.167 -49.071  1.00  0.00     0.160 HD
HETATM   15  H   UNL     1     -41.384  58.644 -49.909  1.00  0.00     0.160 HD
HETATM   16  H   UNL     1     -41.036  55.309 -50.188  1.00  0.00     0.165 HD
ENDBRANCH   2  10
ENDBRANCH   1   2
BRANCH   1  17
HETATM   17  C   UNL     1     -43.500  54.930 -53.826  1.00  0.00     0.224 C 
HETATM   18  N   UNL     1     -43.593  56.305 -53.930  1.00  0.00    -0.327 N 
HETATM   19  H   UNL     1     -43.333  56.837 -53.105  1.00  0.00     0.169 HD
HETATM   20  O   UNL     1     -43.721  54.113 -54.715  1.00  0.00    -0.273 OA
BRANCH  18  21
HETATM   21  C   UNL     1     -43.958  57.061 -55.062  1.00  0.00     0.035 A 
HETATM   22  C   UNL     1     -43.326  56.962 -56.306  1.00  0.00     0.042 A 
HETATM   23  C   UNL     1     -43.738  57.745 -57.400  1.00  0.00    -0.021 A 
HETATM   24  C   UNL     1     -44.818  58.621 -57.228  1.00  0.00     0.012 A 
HETATM   25  C   UNL     1     -45.454  58.729 -55.992  1.00  0.00     0.003 A 
HETATM   26  C   UNL     1     -45.019  57.960 -54.912  1.00  0.00     0.029 A 
BRANCH  23  27
HETATM   27  C   UNL     1     -43.043  57.637 -58.677  1.00  0.00     0.010 A 
HETATM   28  C   UNL     1     -43.091  56.632 -59.676  1.00  0.00     0.152 A 
HETATM   29  N   UNL     1     -42.282  56.884 -60.708  1.00  0.00    -0.187 NA
HETATM   30  N   UNL     1     -41.705  58.048 -60.375  1.00  0.00    -0.289 N 
HETATM   31  H   UNL     1     -41.028  58.449 -61.015  1.00  0.00     0.188 HD
HETATM   32  C   UNL     1     -42.124  58.539 -59.172  1.00  0.00     0.123 A 
ENDBRANCH  23  27
ENDBRANCH  18  21
ENDBRANCH   1  17
TORSDOF 6
ENDMDL
MODEL 9
REMARK VINA RESULT:      -7.8      2.568      9.198
REMARK  6 active torsions:
REMARK  status: ('A' for Active; 'I' for Inactive)
REMARK    1  A    between atoms: C_3  and  C_4 
REMARK    2  A    between atoms: C_4  and  N_5 
REMARK    3  A    between atoms: C_4  and  C_9 
REMARK       I    between atoms: N_5  and  C_6 
REMARK       I    between atoms: C_6  and  N_7 
REMARK    4  A    between atoms: C_9  and  C_10 
REMARK       I    between atoms: C_10  and  N_11 
REMARK    5  A    between atoms: N_11  and  C_12 
REMARK    6  A    between atoms: C_14  and  C_15 
ROOT
HETATM    1  C   UNL     1     -42.877  57.243 -57.040  1.00  0.00     0.133 C 
ENDROOT
BRANCH   1   2
HETATM    2  C   UNL     1     -43.210  57.033 -58.521  1.00  0.00     0.128 C 
BRANCH   2   3
HETATM    3  C   UNL     1     -42.930  58.306 -59.322  1.00  0.00    -0.029 A 
HETATM    4  C   UNL     1     -43.664  59.497 -59.095  1.00  0.00    -0.054 A 
HETATM    5  C   UNL     1     -44.743  59.589 -58.047  1.00  0.00     0.049 C 
HETATM    6  C   UNL     1     -43.386  60.640 -59.865  1.00  0.00     0.007 A 
HETATM    7  C   UNL     1     -42.408  60.616 -60.858  1.00  0.00     0.001 A 
HETATM    8  C   UNL     1     -41.701  59.445 -61.102  1.00  0.00     0.001 A 
HETATM    9  C   UNL     1     -41.964  58.301 -60.348  1.00  0.00     0.010 A 
ENDBRANCH   2   3
BRANCH   2  10
HETATM   10  N   UNL     1     -44.541  56.488 -58.807  1.00  0.00    -0.334 N 
HETATM   11  C   UNL     1     -44.903  55.746 -59.884  1.00  0.00     0.314 C 
HETATM   12  N   UNL     1     -46.205  55.365 -59.835  1.00  0.00    -0.352 N 
HETATM   13  O   UNL     1     -44.188  55.432 -60.822  1.00  0.00    -0.248 OA
HETATM   14  H   UNL     1     -46.599  55.155 -58.930  1.00  0.00     0.160 HD
HETATM   15  H   UNL     1     -46.470  54.729 -60.576  1.00  0.00     0.160 HD
HETATM   16  H   UNL     1     -45.285  56.793 -58.198  1.00  0.00     0.165 HD
ENDBRANCH   2  10
ENDBRANCH   1   2
BRANCH   1  17
HETATM   17  C   UNL     1     -42.606  55.912 -56.370  1.00  0.00     0.224 C 
HETATM   18  N   UNL     1     -41.740  56.013 -55.298  1.00  0.00    -0.327 N 
HETATM   19  H   UNL     1     -41.465  56.953 -55.029  1.00  0.00     0.169 HD
HETATM   20  O   UNL     1     -43.093  54.879 -56.820  1.00  0.00    -0.273 OA
BRANCH  18  21
HETATM   21  C   UNL     1     -41.232  54.969 -54.499  1.00  0.00     0.035 A 
HETATM   22  C   UNL     1     -41.320  54.937 -53.103  1.00  0.00     0.042 A 
HETATM   23  C   UNL     1     -40.793  53.864 -52.361  1.00  0.00    -0.021 A 
HETATM   24  C   UNL     1     -40.189  52.805 -53.052  1.00  0.00     0.012 A 
HETATM   25  C   UNL     1     -40.093  52.827 -54.442  1.00  0.00     0.003 A 
HETATM   26  C   UNL     1     -40.603  53.909 -55.161  1.00  0.00     0.029 A 
BRANCH  23  27
HETATM   27  C   UNL     1     -40.880  53.871 -50.906  1.00  0.00     0.010 A 
HETATM   28  C   UNL     1     -41.496  54.788 -50.019  1.00  0.00     0.152 A 
HETATM   29  N   UNL     1     -41.340  54.457 -48.734  1.00  0.00    -0.187 NA
HETATM   30  N   UNL     1     -40.615  53.330 -48.789  1.00  0.00    -0.289 N 
HETATM   31  H   UNL     1     -40.357  52.882 -47.917  1.00  0.00     0.188 HD
HETATM   32  C   UNL     1     -40.314  52.938 -50.062  1.00  0.00     0.123 A 
ENDBRANCH  23  27
ENDBRANCH  18  21
ENDBRANCH   1  17
TORSDOF 6
ENDMDL
MODEL 10
REMARK VINA RESULT:      -7.7      2.252      3.245
REMARK  6 active torsions:
REMARK  status: ('A' for Active; 'I' for Inactive)
REMARK    1  A    between atoms: C_3  and  C_4 
REMARK    2  A    between atoms: C_4  and  N_5 
REMARK    3  A    between atoms: C_4  and  C_9 
REMARK       I    between atoms: N_5  and  C_6 
REMARK       I    between atoms: C_6  and  N_7 
REMARK    4  A    between atoms: C_9  and  C_10 
REMARK       I    between atoms: C_10  and  N_11 
REMARK    5  A    between atoms: N_11  and  C_12 
REMARK    6  A    between atoms: C_14  and  C_15 
ROOT
HETATM    1  C   UNL     1     -40.984  55.053 -54.730  1.00  0.00     0.133 C 
ENDROOT
BRANCH   1   2
HETATM    2  C   UNL     1     -41.474  55.594 -53.383  1.00  0.00     0.128 C 
BRANCH   2   3
HETATM    3  C   UNL     1     -41.011  54.690 -52.238  1.00  0.00    -0.029 A 
HETATM    4  C   UNL     1     -40.819  55.198 -50.930  1.00  0.00    -0.054 A 
HETATM    5  C   UNL     1     -41.071  56.643 -50.582  1.00  0.00     0.049 C 
HETATM    6  C   UNL     1     -40.377  54.337 -49.910  1.00  0.00     0.007 A 
HETATM    7  C   UNL     1     -40.113  52.993 -50.170  1.00  0.00     0.001 A 
HETATM    8  C   UNL     1     -40.278  52.494 -51.456  1.00  0.00     0.001 A 
HETATM    9  C   UNL     1     -40.715  53.335 -52.480  1.00  0.00     0.010 A 
ENDBRANCH   2   3
BRANCH   2  10
HETATM   10  N   UNL     1     -42.906  55.896 -53.298  1.00  0.00    -0.334 N 
HETATM   11  C   UNL     1     -43.479  57.126 -53.283  1.00  0.00     0.314 C 
HETATM   12  N   UNL     1     -44.834  57.065 -53.232  1.00  0.00    -0.352 N 
HETATM   13  O   UNL     1     -42.896  58.198 -53.302  1.00  0.00    -0.248 OA
HETATM   14  H   UNL     1     -45.289  56.309 -53.724  1.00  0.00     0.160 HD
HETATM   15  H   UNL     1     -45.286  57.966 -53.321  1.00  0.00     0.160 HD
HETATM   16  H   UNL     1     -43.515  55.112 -53.119  1.00  0.00     0.165 HD
ENDBRANCH   2  10
ENDBRANCH   1   2
BRANCH   1  17
HETATM   17  C   UNL     1     -42.115  55.048 -55.738  1.00  0.00     0.224 C 
HETATM   18  N   UNL     1     -42.060  56.113 -56.617  1.00  0.00    -0.327 N 
HETATM   19  H   UNL     1     -41.239  56.707 -56.553  1.00  0.00     0.169 HD
HETATM   20  O   UNL     1     -42.991  54.190 -55.684  1.00  0.00    -0.273 OA
BRANCH  18  21
HETATM   21  C   UNL     1     -42.983  56.442 -57.631  1.00  0.00     0.035 A 
HETATM   22  C   UNL     1     -44.063  57.313 -57.452  1.00  0.00     0.042 A 
HETATM   23  C   UNL     1     -44.951  57.602 -58.506  1.00  0.00    -0.021 A 
HETATM   24  C   UNL     1     -44.720  57.014 -59.756  1.00  0.00     0.012 A 
HETATM   25  C   UNL     1     -43.648  56.143 -59.944  1.00  0.00     0.003 A 
HETATM   26  C   UNL     1     -42.790  55.851 -58.884  1.00  0.00     0.029 A 
BRANCH  23  27
HETATM   27  C   UNL     1     -46.081  58.495 -58.282  1.00  0.00     0.010 A 
HETATM   28  C   UNL     1     -46.259  59.864 -58.604  1.00  0.00     0.152 A 
HETATM   29  N   UNL     1     -47.443  60.342 -58.213  1.00  0.00    -0.187 NA
HETATM   30  N   UNL     1     -48.029  59.286 -57.631  1.00  0.00    -0.289 N 
HETATM   31  H   UNL     1     -48.957  59.406 -57.239  1.00  0.00     0.188 HD
HETATM   32  C   UNL     1     -47.258  58.159 -57.644  1.00  0.00     0.123 A 
ENDBRANCH  23  27
ENDBRANCH  18  21
ENDBRANCH   1  17
TORSDOF 6
ENDMDL
