MODEL 1
REMARK VINA RESULT:      -8.5      0.000      0.000
REMARK  1 active torsions:
REMARK  status: ('A' for Active; 'I' for Inactive)
REMARK    1  A    between atoms: C_8  and  C_9 
ROOT
HETATM    1  C   UNL     1     -43.173  55.902 -55.873  1.00  0.00     0.073 C 
HETATM    2  C   UNL     1     -43.620  56.617 -54.651  1.00  0.00     0.062 C 
HETATM    3  N   UNL     1     -44.933  56.719 -54.414  1.00  0.00    -0.178 NA
HETATM    4  N   UNL     1     -45.001  57.374 -53.252  1.00  0.00    -0.262 N 
HETATM    5  H   UNL     1     -45.918  57.559 -52.862  1.00  0.00     0.191 HD
HETATM    6  C   UNL     1     -43.790  57.828 -52.813  1.00  0.00     0.134 C 
HETATM    7  C   UNL     1     -42.835  57.239 -53.621  1.00  0.00     0.032 C 
HETATM    8  C   UNL     1     -41.346  57.178 -53.467  1.00  0.00     0.120 C 
HETATM    9  S   UNL     1     -40.430  58.679 -52.997  1.00  0.00    -0.141 SA
HETATM   10  C   UNL     1     -41.704  59.921 -52.642  1.00  0.00     0.136 C 
HETATM   11  C   UNL     1     -42.369  60.507 -53.883  1.00  0.00     0.031 C 
HETATM   12  C   UNL     1     -42.668  59.543 -51.520  1.00  0.00     0.236 C 
HETATM   13  O   UNL     1     -42.606  60.094 -50.415  1.00  0.00    -0.272 OA
HETATM   14  N   UNL     1     -43.697  58.672 -51.740  1.00  0.00    -0.311 N 
HETATM   15  H   UNL     1     -44.430  58.702 -51.040  1.00  0.00     0.170 HD
ENDROOT
BRANCH   8  16
HETATM   16  C   UNL     1     -41.072  56.001 -52.514  1.00  0.00    -0.029 A 
HETATM   17  C   UNL     1     -40.698  54.695 -52.979  1.00  0.00    -0.018 A 
HETATM   18  C   UNL     1     -40.535  53.650 -52.025  1.00  0.00    -0.025 A 
HETATM   19  C   UNL     1     -40.466  54.346 -54.333  1.00  0.00     0.013 A 
HETATM   20  C   UNL     1     -40.201  52.349 -52.436  1.00  0.00     0.012 A 
HETATM   21  C   UNL     1     -40.700  53.903 -50.659  1.00  0.00     0.012 A 
HETATM   22  C   UNL     1     -40.012  52.044 -53.779  1.00  0.00     0.001 A 
HETATM   23  C   UNL     1     -40.137  53.045 -54.728  1.00  0.00     0.001 A 
HETATM   24  C   UNL     1     -41.029  55.171 -50.206  1.00  0.00     0.002 A 
HETATM   25  C   UNL     1     -41.217  56.201 -51.119  1.00  0.00     0.009 A 
ENDBRANCH   8  16
TORSDOF 1
ENDMDL
MODEL 2
REMARK VINA RESULT:      -8.4      2.514      3.850
REMARK  1 active torsions:
REMARK  status: ('A' for Active; 'I' for Inactive)
REMARK    1  A    between atoms: C_8  and  C_9 
ROOT
HETATM    1  C   UNL     1     -41.201  57.052 -50.178  1.00  0.00     0.073 C 
HETATM    2  C   UNL     1     -41.072  57.657 -51.528  1.00  0.00     0.062 C 
HETATM    3  N   UNL     1     -40.208  58.665 -51.697  1.00  0.00    -0.178 NA
HETATM    4  N   UNL     1     -40.304  58.957 -52.997  1.00  0.00    -0.262 N 
HETATM    5  H   UNL     1     -39.719  59.700 -53.363  1.00  0.00     0.191 HD
HETATM    6  C   UNL     1     -41.305  58.279 -53.633  1.00  0.00     0.134 C 
HETATM    7  C   UNL     1     -41.746  57.312 -52.749  1.00  0.00     0.032 C 
HETATM    8  C   UNL     1     -42.649  56.138 -52.975  1.00  0.00     0.120 C 
HETATM    9  S   UNL     1     -44.176  56.353 -53.943  1.00  0.00    -0.141 SA
HETATM   10  C   UNL     1     -44.101  58.052 -54.576  1.00  0.00     0.136 C 
HETATM   11  C   UNL     1     -44.406  59.122 -53.533  1.00  0.00     0.031 C 
HETATM   12  C   UNL     1     -42.893  58.350 -55.461  1.00  0.00     0.236 C 
HETATM   13  O   UNL     1     -43.019  58.487 -56.683  1.00  0.00    -0.272 OA
HETATM   14  N   UNL     1     -41.664  58.588 -54.917  1.00  0.00    -0.311 N 
HETATM   15  H   UNL     1     -41.008  59.044 -55.542  1.00  0.00     0.170 HD
ENDROOT
BRANCH   8  16
HETATM   16  C   UNL     1     -41.750  55.022 -53.538  1.00  0.00    -0.029 A 
HETATM   17  C   UNL     1     -41.189  53.987 -52.715  1.00  0.00    -0.018 A 
HETATM   18  C   UNL     1     -40.312  53.040 -53.313  1.00  0.00    -0.025 A 
HETATM   19  C   UNL     1     -41.441  53.818 -51.330  1.00  0.00     0.013 A 
HETATM   20  C   UNL     1     -39.714  52.028 -52.543  1.00  0.00     0.012 A 
HETATM   21  C   UNL     1     -40.032  53.094 -54.683  1.00  0.00     0.012 A 
HETATM   22  C   UNL     1     -39.967  51.917 -51.180  1.00  0.00     0.001 A 
HETATM   23  C   UNL     1     -40.837  52.808 -50.575  1.00  0.00     0.001 A 
HETATM   24  C   UNL     1     -40.599  54.073 -55.485  1.00  0.00     0.002 A 
HETATM   25  C   UNL     1     -41.439  55.024 -54.920  1.00  0.00     0.009 A 
ENDBRANCH   8  16
TORSDOF 1
ENDMDL
MODEL 3
REMARK VINA RESULT:      -7.8      2.439      3.759
REMARK  1 active torsions:
REMARK  status: ('A' for Active; 'I' for Inactive)
REMARK    1  A    between atoms: C_8  and  C_9 
ROOT
HETATM    1  C   UNL     1     -40.091  58.752 -50.871  1.00  0.00     0.073 C 
HETATM    2  C   UNL     1     -40.840  58.843 -52.150  1.00  0.00     0.062 C 
HETATM    3  N   UNL     1     -40.294  59.524 -53.163  1.00  0.00    -0.178 NA
HETATM    4  N   UNL     1     -41.179  59.394 -54.155  1.00  0.00    -0.262 N 
HETATM    5  H   UNL     1     -40.966  59.829 -55.044  1.00  0.00     0.191 HD
HETATM    6  C   UNL     1     -42.339  58.785 -53.769  1.00  0.00     0.134 C 
HETATM    7  C   UNL     1     -42.113  58.279 -52.502  1.00  0.00     0.032 C 
HETATM    8  C   UNL     1     -42.930  57.324 -51.685  1.00  0.00     0.120 C 
HETATM    9  S   UNL     1     -44.734  57.546 -51.582  1.00  0.00    -0.141 SA
HETATM   10  C   UNL     1     -45.114  58.887 -52.744  1.00  0.00     0.136 C 
HETATM   11  C   UNL     1     -44.741  60.277 -52.237  1.00  0.00     0.031 C 
HETATM   12  C   UNL     1     -44.719  58.609 -54.192  1.00  0.00     0.236 C 
HETATM   13  O   UNL     1     -45.575  58.367 -55.049  1.00  0.00    -0.272 OA
HETATM   14  N   UNL     1     -43.423  58.732 -54.603  1.00  0.00    -0.311 N 
HETATM   15  H   UNL     1     -43.306  58.805 -55.608  1.00  0.00     0.170 HD
ENDROOT
BRANCH   8  16
HETATM   16  C   UNL     1     -42.538  55.917 -52.171  1.00  0.00    -0.029 A 
HETATM   17  C   UNL     1     -41.600  55.086 -51.470  1.00  0.00    -0.018 A 
HETATM   18  C   UNL     1     -41.246  53.828 -52.035  1.00  0.00    -0.025 A 
HETATM   19  C   UNL     1     -40.984  55.412 -50.235  1.00  0.00     0.013 A 
HETATM   20  C   UNL     1     -40.309  52.995 -51.402  1.00  0.00     0.012 A 
HETATM   21  C   UNL     1     -41.831  53.396 -53.230  1.00  0.00     0.012 A 
HETATM   22  C   UNL     1     -39.707  53.367 -50.206  1.00  0.00     0.001 A 
HETATM   23  C   UNL     1     -40.051  54.573 -49.618  1.00  0.00     0.001 A 
HETATM   24  C   UNL     1     -42.762  54.183 -53.891  1.00  0.00     0.002 A 
HETATM   25  C   UNL     1     -43.105  55.425 -53.372  1.00  0.00     0.009 A 
ENDBRANCH   8  16
TORSDOF 1
ENDMDL
MODEL 4
REMARK VINA RESULT:      -7.6      1.502      2.725
REMARK  1 active torsions:
REMARK  status: ('A' for Active; 'I' for Inactive)
REMARK    1  A    between atoms: C_8  and  C_9 
ROOT
HETATM    1  C   UNL     1     -42.118  58.214 -56.763  1.00  0.00     0.073 C 
HETATM    2  C   UNL     1     -43.107  57.701 -55.782  1.00  0.00     0.062 C 
HETATM    3  N   UNL     1     -44.370  57.515 -56.184  1.00  0.00    -0.178 NA
HETATM    4  N   UNL     1     -44.985  57.030 -55.102  1.00  0.00    -0.262 N 
HETATM    5  H   UNL     1     -45.969  56.799 -55.177  1.00  0.00     0.191 HD
HETATM    6  C   UNL     1     -44.203  57.041 -53.983  1.00  0.00     0.134 C 
HETATM    7  C   UNL     1     -42.920  57.340 -54.404  1.00  0.00     0.032 C 
HETATM    8  C   UNL     1     -41.619  57.258 -53.666  1.00  0.00     0.120 C 
HETATM    9  S   UNL     1     -41.512  57.893 -51.963  1.00  0.00    -0.141 SA
HETATM   10  C   UNL     1     -43.212  58.340 -51.515  1.00  0.00     0.136 C 
HETATM   11  C   UNL     1     -43.705  59.636 -52.151  1.00  0.00     0.031 C 
HETATM   12  C   UNL     1     -44.210  57.186 -51.564  1.00  0.00     0.236 C 
HETATM   13  O   UNL     1     -44.655  56.686 -50.525  1.00  0.00    -0.272 OA
HETATM   14  N   UNL     1     -44.726  56.752 -52.751  1.00  0.00    -0.311 N 
HETATM   15  H   UNL     1     -45.567  56.193 -52.665  1.00  0.00     0.170 HD
ENDROOT
BRANCH   8  16
HETATM   16  C   UNL     1     -41.169  55.790 -53.774  1.00  0.00    -0.029 A 
HETATM   17  C   UNL     1     -41.050  54.928 -52.632  1.00  0.00    -0.018 A 
HETATM   18  C   UNL     1     -40.557  53.606 -52.823  1.00  0.00    -0.025 A 
HETATM   19  C   UNL     1     -41.393  55.281 -51.303  1.00  0.00     0.013 A 
HETATM   20  C   UNL     1     -40.394  52.736 -51.732  1.00  0.00     0.012 A 
HETATM   21  C   UNL     1     -40.231  53.146 -54.103  1.00  0.00     0.012 A 
HETATM   22  C   UNL     1     -40.715  53.134 -50.439  1.00  0.00     0.001 A 
HETATM   23  C   UNL     1     -41.222  54.405 -50.226  1.00  0.00     0.001 A 
HETATM   24  C   UNL     1     -40.376  53.967 -55.211  1.00  0.00     0.002 A 
HETATM   25  C   UNL     1     -40.832  55.269 -55.047  1.00  0.00     0.009 A 
ENDBRANCH   8  16
TORSDOF 1
ENDMDL
MODEL 5
REMARK VINA RESULT:      -7.2      2.411      4.163
REMARK  1 active torsions:
REMARK  status: ('A' for Active; 'I' for Inactive)
REMARK    1  A    between atoms: C_8  and  C_9 
ROOT
HETATM    1  C   UNL     1     -45.081  59.748 -53.643  1.00  0.00     0.073 C 
HETATM    2  C   UNL     1     -44.609  58.798 -52.604  1.00  0.00     0.062 C 
HETATM    3  N   UNL     1     -45.442  58.470 -51.611  1.00  0.00    -0.178 NA
HETATM    4  N   UNL     1     -44.745  57.596 -50.880  1.00  0.00    -0.262 N 
HETATM    5  H   UNL     1     -45.192  57.196 -50.062  1.00  0.00     0.191 HD
HETATM    6  C   UNL     1     -43.446  57.468 -51.280  1.00  0.00     0.134 C 
HETATM    7  C   UNL     1     -43.344  58.127 -52.492  1.00  0.00     0.032 C 
HETATM    8  C   UNL     1     -42.237  58.121 -53.502  1.00  0.00     0.120 C 
HETATM    9  S   UNL     1     -40.511  58.285 -52.944  1.00  0.00    -0.141 SA
HETATM   10  C   UNL     1     -40.591  58.235 -51.133  1.00  0.00     0.136 C 
HETATM   11  C   UNL     1     -41.101  59.523 -50.494  1.00  0.00     0.031 C 
HETATM   12  C   UNL     1     -41.192  56.955 -50.555  1.00  0.00     0.236 C 
HETATM   13  O   UNL     1     -40.479  56.114 -49.996  1.00  0.00    -0.272 OA
HETATM   14  N   UNL     1     -42.543  56.758 -50.537  1.00  0.00    -0.311 N 
HETATM   15  H   UNL     1     -42.853  56.035 -49.897  1.00  0.00     0.170 HD
ENDROOT
BRANCH   8  16
HETATM   16  C   UNL     1     -42.460  56.862 -54.358  1.00  0.00    -0.029 A 
HETATM   17  C   UNL     1     -42.610  56.910 -55.786  1.00  0.00    -0.018 A 
HETATM   18  C   UNL     1     -42.884  55.700 -56.485  1.00  0.00    -0.025 A 
HETATM   19  C   UNL     1     -42.502  58.079 -56.579  1.00  0.00     0.013 A 
HETATM   20  C   UNL     1     -43.070  55.702 -57.877  1.00  0.00     0.012 A 
HETATM   21  C   UNL     1     -42.968  54.485 -55.797  1.00  0.00     0.012 A 
HETATM   22  C   UNL     1     -42.984  56.878 -58.613  1.00  0.00     0.001 A 
HETATM   23  C   UNL     1     -42.693  58.066 -57.965  1.00  0.00     0.001 A 
HETATM   24  C   UNL     1     -42.790  54.432 -54.423  1.00  0.00     0.002 A 
HETATM   25  C   UNL     1     -42.546  55.603 -53.716  1.00  0.00     0.009 A 
ENDBRANCH   8  16
TORSDOF 1
ENDMDL
MODEL 6
REMARK VINA RESULT:      -7.1      2.672      5.898
REMARK  1 active torsions:
REMARK  status: ('A' for Active; 'I' for Inactive)
REMARK    1  A    between atoms: C_8  and  C_9 
ROOT
HETATM    1  C   UNL     1     -41.445  55.586 -49.730  1.00  0.00     0.073 C 
HETATM    2  C   UNL     1     -42.363  55.112 -50.798  1.00  0.00     0.062 C 
HETATM    3  N   UNL     1     -43.432  54.390 -50.447  1.00  0.00    -0.178 NA
HETATM    4  N   UNL     1     -44.054  54.152 -51.605  1.00  0.00    -0.262 N 
HETATM    5  H   UNL     1     -44.915  53.617 -51.582  1.00  0.00     0.191 HD
HETATM    6  C   UNL     1     -43.345  54.563 -52.697  1.00  0.00     0.134 C 
HETATM    7  C   UNL     1     -42.295  55.324 -52.217  1.00  0.00     0.032 C 
HETATM    8  C   UNL     1     -41.339  56.218 -52.947  1.00  0.00     0.120 C 
HETATM    9  S   UNL     1     -40.584  55.645 -54.502  1.00  0.00    -0.141 SA
HETATM   10  C   UNL     1     -41.401  54.068 -54.873  1.00  0.00     0.136 C 
HETATM   11  C   UNL     1     -40.926  52.901 -54.012  1.00  0.00     0.031 C 
HETATM   12  C   UNL     1     -42.915  54.158 -55.047  1.00  0.00     0.236 C 
HETATM   13  O   UNL     1     -43.434  54.057 -56.164  1.00  0.00    -0.272 OA
HETATM   14  N   UNL     1     -43.743  54.237 -53.965  1.00  0.00    -0.311 N 
HETATM   15  H   UNL     1     -44.713  54.011 -54.160  1.00  0.00     0.170 HD
ENDROOT
BRANCH   8  16
HETATM   16  C   UNL     1     -42.066  57.565 -53.108  1.00  0.00    -0.029 A 
HETATM   17  C   UNL     1     -41.952  58.629 -52.151  1.00  0.00    -0.018 A 
HETATM   18  C   UNL     1     -42.719  59.812 -52.350  1.00  0.00    -0.025 A 
HETATM   19  C   UNL     1     -41.122  58.608 -51.002  1.00  0.00     0.013 A 
HETATM   20  C   UNL     1     -42.665  60.867 -51.424  1.00  0.00     0.012 A 
HETATM   21  C   UNL     1     -43.537  59.948 -53.476  1.00  0.00     0.012 A 
HETATM   22  C   UNL     1     -41.858  60.792 -50.294  1.00  0.00     0.001 A 
HETATM   23  C   UNL     1     -41.080  59.665 -50.087  1.00  0.00     0.001 A 
HETATM   24  C   UNL     1     -43.623  58.935 -54.419  1.00  0.00     0.002 A 
HETATM   25  C   UNL     1     -42.903  57.761 -54.234  1.00  0.00     0.009 A 
ENDBRANCH   8  16
TORSDOF 1
ENDMDL
MODEL 7
REMARK VINA RESULT:      -7.1     16.413     18.687
REMARK  1 active torsions:
REMARK  status: ('A' for Active; 'I' for Inactive)
REMARK    1  A    between atoms: C_8  and  C_9 
ROOT
HETATM    1  C   UNL     1     -33.451  37.533 -57.599  1.00  0.00     0.073 C 
HETATM    2  C   UNL     1     -33.388  38.870 -56.956  1.00  0.00     0.062 C 
HETATM    3  N   UNL     1     -32.203  39.486 -56.878  1.00  0.00    -0.178 NA
HETATM    4  N   UNL     1     -32.483  40.652 -56.290  1.00  0.00    -0.262 N 
HETATM    5  H   UNL     1     -31.722  41.302 -56.134  1.00  0.00     0.191 HD
HETATM    6  C   UNL     1     -33.774  40.742 -55.851  1.00  0.00     0.134 C 
HETATM    7  C   UNL     1     -34.445  39.658 -56.387  1.00  0.00     0.032 C 
HETATM    8  C   UNL     1     -35.914  39.367 -56.445  1.00  0.00     0.120 C 
HETATM    9  S   UNL     1     -36.941  39.631 -54.966  1.00  0.00    -0.141 SA
HETATM   10  C   UNL     1     -35.837  40.412 -53.756  1.00  0.00     0.136 C 
HETATM   11  C   UNL     1     -34.844  39.454 -53.106  1.00  0.00     0.031 C 
HETATM   12  C   UNL     1     -35.239  41.744 -54.203  1.00  0.00     0.236 C 
HETATM   13  O   UNL     1     -35.627  42.811 -53.714  1.00  0.00    -0.272 OA
HETATM   14  N   UNL     1     -34.184  41.786 -55.068  1.00  0.00    -0.311 N 
HETATM   15  H   UNL     1     -33.688  42.670 -55.083  1.00  0.00     0.170 HD
ENDROOT
BRANCH   8  16
HETATM   16  C   UNL     1     -36.443  40.131 -57.672  1.00  0.00    -0.029 A 
HETATM   17  C   UNL     1     -36.757  39.485 -58.915  1.00  0.00    -0.018 A 
HETATM   18  C   UNL     1     -37.173  40.286 -60.016  1.00  0.00    -0.025 A 
HETATM   19  C   UNL     1     -36.693  38.088 -59.148  1.00  0.00     0.013 A 
HETATM   20  C   UNL     1     -37.460  39.701 -61.261  1.00  0.00     0.012 A 
HETATM   21  C   UNL     1     -37.310  41.671 -59.876  1.00  0.00     0.012 A 
HETATM   22  C   UNL     1     -37.356  38.328 -61.453  1.00  0.00     0.001 A 
HETATM   23  C   UNL     1     -36.979  37.520 -60.393  1.00  0.00     0.001 A 
HETATM   24  C   UNL     1     -37.039  42.293 -58.667  1.00  0.00     0.002 A 
HETATM   25  C   UNL     1     -36.608  41.536 -57.585  1.00  0.00     0.009 A 
ENDBRANCH   8  16
TORSDOF 1
ENDMDL
MODEL 8
REMARK VINA RESULT:      -6.8     16.884     18.836
REMARK  1 active torsions:
REMARK  status: ('A' for Active; 'I' for Inactive)
REMARK    1  A    between atoms: C_8  and  C_9 
ROOT
HETATM    1  C   UNL     1     -37.531  40.392 -52.075  1.00  0.00     0.073 C 
HETATM    2  C   UNL     1     -36.414  40.985 -52.854  1.00  0.00     0.062 C 
HETATM    3  N   UNL     1     -36.480  42.280 -53.181  1.00  0.00    -0.178 NA
HETATM    4  N   UNL     1     -35.337  42.506 -53.835  1.00  0.00    -0.262 N 
HETATM    5  H   UNL     1     -35.161  43.444 -54.175  1.00  0.00     0.191 HD
HETATM    6  C   UNL     1     -34.614  41.372 -54.071  1.00  0.00     0.134 C 
HETATM    7  C   UNL     1     -35.207  40.368 -53.327  1.00  0.00     0.032 C 
HETATM    8  C   UNL     1     -34.718  38.988 -53.009  1.00  0.00     0.120 C 
HETATM    9  S   UNL     1     -33.987  37.967 -54.328  1.00  0.00    -0.141 SA
HETATM   10  C   UNL     1     -33.881  39.062 -55.771  1.00  0.00     0.136 C 
HETATM   11  C   UNL     1     -35.215  39.311 -56.466  1.00  0.00     0.031 C 
HETATM   12  C   UNL     1     -33.027  40.310 -55.563  1.00  0.00     0.236 C 
HETATM   13  O   UNL     1     -31.915  40.416 -56.092  1.00  0.00    -0.272 OA
HETATM   14  N   UNL     1     -33.513  41.391 -54.884  1.00  0.00    -0.311 N 
HETATM   15  H   UNL     1     -32.999  42.251 -55.039  1.00  0.00     0.170 HD
ENDROOT
BRANCH   8  16
HETATM   16  C   UNL     1     -33.779  39.146 -51.800  1.00  0.00    -0.029 A 
HETATM   17  C   UNL     1     -34.118  38.677 -50.486  1.00  0.00    -0.018 A 
HETATM   18  C   UNL     1     -33.215  38.932 -49.415  1.00  0.00    -0.025 A 
HETATM   19  C   UNL     1     -35.297  37.964 -50.152  1.00  0.00     0.013 A 
HETATM   20  C   UNL     1     -33.518  38.522 -48.106  1.00  0.00     0.012 A 
HETATM   21  C   UNL     1     -32.004  39.592 -49.648  1.00  0.00     0.012 A 
HETATM   22  C   UNL     1     -34.701  37.849 -47.819  1.00  0.00     0.001 A 
HETATM   23  C   UNL     1     -35.587  37.563 -48.844  1.00  0.00     0.001 A 
HETATM   24  C   UNL     1     -31.659  40.016 -50.923  1.00  0.00     0.002 A 
HETATM   25  C   UNL     1     -32.536  39.800 -51.979  1.00  0.00     0.009 A 
ENDBRANCH   8  16
TORSDOF 1
ENDMDL
MODEL 9
REMARK VINA RESULT:      -6.8      2.861      5.268
REMARK  1 active torsions:
REMARK  status: ('A' for Active; 'I' for Inactive)
REMARK    1  A    between atoms: C_8  and  C_9 
ROOT
HETATM    1  C   UNL     1     -41.076  55.561 -53.629  1.00  0.00     0.073 C 
HETATM    2  C   UNL     1     -42.475  55.836 -54.044  1.00  0.00     0.062 C 
HETATM    3  N   UNL     1     -43.399  54.889 -53.845  1.00  0.00    -0.178 NA
HETATM    4  N   UNL     1     -44.531  55.446 -54.286  1.00  0.00    -0.262 N 
HETATM    5  H   UNL     1     -45.384  54.902 -54.223  1.00  0.00     0.191 HD
HETATM    6  C   UNL     1     -44.340  56.652 -54.898  1.00  0.00     0.134 C 
HETATM    7  C   UNL     1     -43.032  57.018 -54.641  1.00  0.00     0.032 C 
HETATM    8  C   UNL     1     -42.338  58.329 -54.854  1.00  0.00     0.120 C 
HETATM    9  S   UNL     1     -42.583  59.232 -56.416  1.00  0.00    -0.141 SA
HETATM   10  C   UNL     1     -43.855  58.296 -57.310  1.00  0.00     0.136 C 
HETATM   11  C   UNL     1     -43.351  57.000 -57.938  1.00  0.00     0.031 C 
HETATM   12  C   UNL     1     -45.190  58.174 -56.580  1.00  0.00     0.236 C 
HETATM   13  O   UNL     1     -46.180  58.812 -56.955  1.00  0.00    -0.272 OA
HETATM   14  N   UNL     1     -45.358  57.274 -55.567  1.00  0.00    -0.311 N 
HETATM   15  H   UNL     1     -46.326  57.071 -55.343  1.00  0.00     0.170 HD
ENDROOT
BRANCH   8  16
HETATM   16  C   UNL     1     -42.679  59.186 -53.621  1.00  0.00    -0.029 A 
HETATM   17  C   UNL     1     -41.780  59.345 -52.513  1.00  0.00    -0.018 A 
HETATM   18  C   UNL     1     -42.211  60.100 -51.386  1.00  0.00    -0.025 A 
HETATM   19  C   UNL     1     -40.469  58.810 -52.442  1.00  0.00     0.013 A 
HETATM   20  C   UNL     1     -41.379  60.256 -50.265  1.00  0.00     0.012 A 
HETATM   21  C   UNL     1     -43.473  60.705 -51.376  1.00  0.00     0.012 A 
HETATM   22  C   UNL     1     -40.110  59.689 -50.226  1.00  0.00     0.001 A 
HETATM   23  C   UNL     1     -39.652  58.972 -51.318  1.00  0.00     0.001 A 
HETATM   24  C   UNL     1     -44.329  60.580 -52.459  1.00  0.00     0.002 A 
HETATM   25  C   UNL     1     -43.940  59.828 -53.560  1.00  0.00     0.009 A 
ENDBRANCH   8  16
TORSDOF 1
ENDMDL
MODEL 10
REMARK VINA RESULT:      -6.7      2.383      3.599
REMARK  1 active torsions:
REMARK  status: ('A' for Active; 'I' for Inactive)
REMARK    1  A    between atoms: C_8  and  C_9 
ROOT
HETATM    1  C   UNL     1     -40.808  54.917 -55.469  1.00  0.00     0.073 C 
HETATM    2  C   UNL     1     -42.024  55.682 -55.847  1.00  0.00     0.062 C 
HETATM    3  N   UNL     1     -42.837  55.171 -56.778  1.00  0.00    -0.178 NA
HETATM    4  N   UNL     1     -43.828  56.063 -56.865  1.00  0.00    -0.262 N 
HETATM    5  H   UNL     1     -44.582  55.875 -57.516  1.00  0.00     0.191 HD
HETATM    6  C   UNL     1     -43.603  57.196 -56.137  1.00  0.00     0.134 C 
HETATM    7  C   UNL     1     -42.502  56.938 -55.341  1.00  0.00     0.032 C 
HETATM    8  C   UNL     1     -41.947  57.712 -54.184  1.00  0.00     0.120 C 
HETATM    9  S   UNL     1     -41.789  59.521 -54.307  1.00  0.00    -0.141 SA
HETATM   10  C   UNL     1     -42.580  59.961 -55.879  1.00  0.00     0.136 C 
HETATM   11  C   UNL     1     -41.744  59.632 -57.112  1.00  0.00     0.031 C 
HETATM   12  C   UNL     1     -44.052  59.572 -55.984  1.00  0.00     0.236 C 
HETATM   13  O   UNL     1     -44.941  60.429 -55.931  1.00  0.00    -0.272 OA
HETATM   14  N   UNL     1     -44.423  58.286 -56.254  1.00  0.00    -0.311 N 
HETATM   15  H   UNL     1     -45.378  58.183 -56.578  1.00  0.00     0.170 HD
ENDROOT
BRANCH   8  16
HETATM   16  C   UNL     1     -42.768  57.276 -52.958  1.00  0.00    -0.029 A 
HETATM   17  C   UNL     1     -42.366  56.200 -52.095  1.00  0.00    -0.018 A 
HETATM   18  C   UNL     1     -43.227  55.823 -51.026  1.00  0.00    -0.025 A 
HETATM   19  C   UNL     1     -41.158  55.468 -52.213  1.00  0.00     0.013 A 
HETATM   20  C   UNL     1     -42.891  54.756 -50.176  1.00  0.00     0.012 A 
HETATM   21  C   UNL     1     -44.423  56.512 -50.799  1.00  0.00     0.012 A 
HETATM   22  C   UNL     1     -41.709  54.045 -50.346  1.00  0.00     0.001 A 
HETATM   23  C   UNL     1     -40.838  54.406 -51.360  1.00  0.00     0.001 A 
HETATM   24  C   UNL     1     -44.797  57.573 -51.611  1.00  0.00     0.002 A 
HETATM   25  C   UNL     1     -43.985  57.944 -52.675  1.00  0.00     0.009 A 
ENDBRANCH   8  16
TORSDOF 1
ENDMDL
