MODEL 1
REMARK VINA RESULT:      -6.5      0.000      0.000
REMARK  4 active torsions:
REMARK  status: ('A' for Active; 'I' for Inactive)
REMARK    1  A    between atoms: O_2  and  C_3 
REMARK    2  A    between atoms: C_4  and  C_5 
REMARK    3  A    between atoms: C_9  and  N_10 
REMARK    4  A    between atoms: C_13  and  C_14 
ROOT
HETATM    1  C   UNL     1     -43.755  60.772 -51.803  1.00  0.00     0.167 C 
HETATM    2  N   UNL     1     -44.381  60.899 -50.488  1.00  0.00    -0.074 N 
HETATM    3  C   UNL     1     -45.463  60.170 -50.070  1.00  0.00     0.736 A 
HETATM    4  N   UNL     1     -45.756  60.515 -48.843  1.00  0.00     0.131 NA
HETATM    5  C   UNL     1     -44.857  61.504 -48.576  1.00  0.00     0.753 A 
HETATM    6  N   UNL     1     -43.987  61.777 -49.548  1.00  0.00     0.037 NA
HETATM    7  N   UNL     1     -46.063  59.271 -50.871  1.00  0.00    -0.214 N 
HETATM    8  C   UNL     1     -45.496  58.912 -52.164  1.00  0.00     0.135 C 
HETATM    9  C   UNL     1     -44.784  60.142 -52.771  1.00  0.00     0.063 C 
HETATM   10  H   UNL     1     -46.772  58.658 -50.481  1.00  0.00     0.178 HD
ENDROOT
BRANCH   1  11
HETATM   11  C   UNL     1     -42.400  60.057 -51.781  1.00  0.00     0.001 A 
HETATM   12  C   UNL     1     -41.701  59.846 -52.991  1.00  0.00     0.076 A 
HETATM   13  C   UNL     1     -40.469  59.177 -52.987  1.00  0.00     0.037 A 
HETATM   14  C   UNL     1     -39.922  58.707 -51.794  1.00  0.00     0.003 A 
HETATM   15  C   UNL     1     -40.593  58.914 -50.596  1.00  0.00     0.001 A 
HETATM   16  C   UNL     1     -41.815  59.586 -50.589  1.00  0.00     0.012 A 
BRANCH  12  17
HETATM   17  O   UNL     1     -42.289  60.351 -54.124  1.00  0.00    -0.355 OA
HETATM   18  C   UNL     1     -42.079  59.635 -55.336  1.00  0.00     0.210 C 
ENDBRANCH  12  17
ENDBRANCH   1  11
BRANCH   8  19
HETATM   19  C   UNL     1     -44.644  57.648 -52.116  1.00  0.00    -0.035 A 
HETATM   20  C   UNL     1     -44.379  56.948 -50.927  1.00  0.00     0.010 A 
HETATM   21  C   UNL     1     -43.564  55.812 -50.924  1.00  0.00     0.019 A 
HETATM   22  C   UNL     1     -43.010  55.354 -52.115  1.00  0.00     0.011 A 
HETATM   23 BR   UNL     1     -41.888  53.834 -52.107  1.00  0.00    -0.051 Br
HETATM   24  C   UNL     1     -43.277  56.012 -53.311  1.00  0.00     0.019 A 
HETATM   25  C   UNL     1     -44.095  57.145 -53.312  1.00  0.00     0.010 A 
ENDBRANCH   8  19
BRANCH   5  26
HETATM   26  N   UNL     1     -44.888  62.087 -47.382  1.00  0.00    -0.229 N 
HETATM   27  H   UNL     1     -44.131  61.867 -46.748  1.00  0.00     0.174 HD
HETATM   28  H   UNL     1     -45.213  63.043 -47.349  1.00  0.00     0.174 HD
ENDBRANCH   5  26
TORSDOF 4
ENDMDL
MODEL 2
REMARK VINA RESULT:      -6.3      4.615      6.585
REMARK  4 active torsions:
REMARK  status: ('A' for Active; 'I' for Inactive)
REMARK    1  A    between atoms: O_2  and  C_3 
REMARK    2  A    between atoms: C_4  and  C_5 
REMARK    3  A    between atoms: C_9  and  N_10 
REMARK    4  A    between atoms: C_13  and  C_14 
ROOT
HETATM    1  C   UNL     1     -42.686  55.121 -52.543  1.00  0.00     0.167 C 
HETATM    2  N   UNL     1     -41.797  54.097 -53.088  1.00  0.00    -0.074 N 
HETATM    3  C   UNL     1     -41.936  53.527 -54.327  1.00  0.00     0.736 A 
HETATM    4  N   UNL     1     -40.969  52.666 -54.508  1.00  0.00     0.131 NA
HETATM    5  C   UNL     1     -40.297  52.703 -53.322  1.00  0.00     0.753 A 
HETATM    6  N   UNL     1     -40.758  53.565 -52.419  1.00  0.00     0.037 NA
HETATM    7  N   UNL     1     -42.946  53.864 -55.151  1.00  0.00    -0.214 N 
HETATM    8  C   UNL     1     -43.847  54.964 -54.834  1.00  0.00     0.135 C 
HETATM    9  C   UNL     1     -44.031  55.049 -53.302  1.00  0.00     0.063 C 
HETATM   10  H   UNL     1     -42.937  53.522 -56.107  1.00  0.00     0.178 HD
ENDROOT
BRANCH   1  11
HETATM   11  C   UNL     1     -42.067  56.523 -52.501  1.00  0.00     0.001 A 
HETATM   12  C   UNL     1     -42.649  57.519 -51.684  1.00  0.00     0.076 A 
HETATM   13  C   UNL     1     -42.104  58.810 -51.650  1.00  0.00     0.037 A 
HETATM   14  C   UNL     1     -40.989  59.129 -52.424  1.00  0.00     0.003 A 
HETATM   15  C   UNL     1     -40.401  58.159 -53.225  1.00  0.00     0.001 A 
HETATM   16  C   UNL     1     -40.931  56.868 -53.259  1.00  0.00     0.012 A 
BRANCH  12  17
HETATM   17  O   UNL     1     -43.732  57.131 -50.936  1.00  0.00    -0.355 OA
HETATM   18  C   UNL     1     -44.932  57.877 -51.100  1.00  0.00     0.210 C 
ENDBRANCH  12  17
ENDBRANCH   1  11
BRANCH   8  19
HETATM   19  C   UNL     1     -43.449  56.277 -55.497  1.00  0.00    -0.035 A 
HETATM   20  C   UNL     1     -42.497  56.356 -56.528  1.00  0.00     0.010 A 
HETATM   21  C   UNL     1     -42.137  57.587 -57.085  1.00  0.00     0.019 A 
HETATM   22  C   UNL     1     -42.734  58.757 -56.625  1.00  0.00     0.011 A 
HETATM   23 BR   UNL     1     -42.229  60.422 -57.360  1.00  0.00    -0.051 Br
HETATM   24  C   UNL     1     -43.699  58.705 -55.625  1.00  0.00     0.019 A 
HETATM   25  C   UNL     1     -44.059  57.474 -55.072  1.00  0.00     0.010 A 
ENDBRANCH   8  19
BRANCH   5  26
HETATM   26  N   UNL     1     -39.233  51.920 -53.170  1.00  0.00    -0.229 N 
HETATM   27  H   UNL     1     -39.396  51.003 -52.777  1.00  0.00     0.174 HD
HETATM   28  H   UNL     1     -38.529  51.961 -53.894  1.00  0.00     0.174 HD
ENDBRANCH   5  26
TORSDOF 4
ENDMDL
MODEL 3
REMARK VINA RESULT:      -6.2      3.316      4.685
REMARK  4 active torsions:
REMARK  status: ('A' for Active; 'I' for Inactive)
REMARK    1  A    between atoms: O_2  and  C_3 
REMARK    2  A    between atoms: C_4  and  C_5 
REMARK    3  A    between atoms: C_9  and  N_10 
REMARK    4  A    between atoms: C_13  and  C_14 
ROOT
HETATM    1  C   UNL     1     -42.947  57.094 -52.070  1.00  0.00     0.167 C 
HETATM    2  N   UNL     1     -41.948  57.828 -51.295  1.00  0.00    -0.074 N 
HETATM    3  C   UNL     1     -41.343  57.353 -50.161  1.00  0.00     0.736 A 
HETATM    4  N   UNL     1     -40.492  58.248 -49.729  1.00  0.00     0.131 NA
HETATM    5  C   UNL     1     -40.658  59.280 -50.604  1.00  0.00     0.753 A 
HETATM    6  N   UNL     1     -41.534  59.074 -51.586  1.00  0.00     0.037 NA
HETATM    7  N   UNL     1     -41.649  56.147 -49.647  1.00  0.00    -0.214 N 
HETATM    8  C   UNL     1     -42.520  55.221 -50.359  1.00  0.00     0.135 C 
HETATM    9  C   UNL     1     -43.577  56.019 -51.154  1.00  0.00     0.063 C 
HETATM   10  H   UNL     1     -41.086  55.777 -48.889  1.00  0.00     0.178 HD
ENDROOT
BRANCH   1  11
HETATM   11  C   UNL     1     -42.423  56.550 -53.403  1.00  0.00     0.001 A 
HETATM   12  C   UNL     1     -43.327  56.303 -54.461  1.00  0.00     0.076 A 
HETATM   13  C   UNL     1     -42.863  55.788 -55.680  1.00  0.00     0.037 A 
HETATM   14  C   UNL     1     -41.510  55.507 -55.861  1.00  0.00     0.003 A 
HETATM   15  C   UNL     1     -40.608  55.752 -54.833  1.00  0.00     0.001 A 
HETATM   16  C   UNL     1     -41.058  56.273 -53.620  1.00  0.00     0.012 A 
BRANCH  12  17
HETATM   17  O   UNL     1     -44.640  56.619 -54.219  1.00  0.00    -0.355 OA
HETATM   18  C   UNL     1     -45.189  57.708 -54.954  1.00  0.00     0.210 C 
ENDBRANCH  12  17
ENDBRANCH   1  11
BRANCH   8  19
HETATM   19  C   UNL     1     -41.755  54.190 -51.182  1.00  0.00    -0.035 A 
HETATM   20  C   UNL     1     -40.445  53.786 -50.876  1.00  0.00     0.010 A 
HETATM   21  C   UNL     1     -39.768  52.862 -51.678  1.00  0.00     0.019 A 
HETATM   22  C   UNL     1     -40.399  52.320 -52.794  1.00  0.00     0.011 A 
HETATM   23 BR   UNL     1     -39.477  51.091 -53.892  1.00  0.00    -0.051 Br
HETATM   24  C   UNL     1     -41.706  52.682 -53.105  1.00  0.00     0.019 A 
HETATM   25  C   UNL     1     -42.380  53.603 -52.299  1.00  0.00     0.010 A 
ENDBRANCH   8  19
BRANCH   5  26
HETATM   26  N   UNL     1     -39.925  60.376 -50.440  1.00  0.00    -0.229 N 
HETATM   27  H   UNL     1     -39.651  60.871 -51.279  1.00  0.00     0.174 HD
HETATM   28  H   UNL     1     -40.152  60.963 -49.649  1.00  0.00     0.174 HD
ENDBRANCH   5  26
TORSDOF 4
ENDMDL
MODEL 4
REMARK VINA RESULT:      -6.1      4.179      6.488
REMARK  4 active torsions:
REMARK  status: ('A' for Active; 'I' for Inactive)
REMARK    1  A    between atoms: O_2  and  C_3 
REMARK    2  A    between atoms: C_4  and  C_5 
REMARK    3  A    between atoms: C_9  and  N_10 
REMARK    4  A    between atoms: C_13  and  C_14 
ROOT
HETATM    1  C   UNL     1     -43.771  55.595 -54.602  1.00  0.00     0.167 C 
HETATM    2  N   UNL     1     -43.429  56.062 -55.944  1.00  0.00    -0.074 N 
HETATM    3  C   UNL     1     -43.379  57.379 -56.319  1.00  0.00     0.736 A 
HETATM    4  N   UNL     1     -43.026  57.448 -57.576  1.00  0.00     0.131 NA
HETATM    5  C   UNL     1     -42.929  56.138 -57.942  1.00  0.00     0.753 A 
HETATM    6  N   UNL     1     -43.160  55.247 -56.980  1.00  0.00     0.037 NA
HETATM    7  N   UNL     1     -43.672  58.371 -55.457  1.00  0.00    -0.214 N 
HETATM    8  C   UNL     1     -43.899  58.104 -54.043  1.00  0.00     0.135 C 
HETATM    9  C   UNL     1     -44.560  56.715 -53.885  1.00  0.00     0.063 C 
HETATM   10  H   UNL     1     -43.493  59.332 -55.733  1.00  0.00     0.178 HD
ENDROOT
BRANCH   1  11
HETATM   11  C   UNL     1     -42.574  55.066 -53.804  1.00  0.00     0.001 A 
HETATM   12  C   UNL     1     -42.749  54.674 -52.457  1.00  0.00     0.076 A 
HETATM   13  C   UNL     1     -41.659  54.205 -51.711  1.00  0.00     0.037 A 
HETATM   14  C   UNL     1     -40.391  54.126 -52.283  1.00  0.00     0.003 A 
HETATM   15  C   UNL     1     -40.204  54.500 -53.607  1.00  0.00     0.001 A 
HETATM   16  C   UNL     1     -41.284  54.959 -54.361  1.00  0.00     0.012 A 
BRANCH  12  17
HETATM   17  O   UNL     1     -44.028  54.760 -51.965  1.00  0.00    -0.355 OA
HETATM   18  C   UNL     1     -44.184  54.673 -50.553  1.00  0.00     0.210 C 
ENDBRANCH  12  17
ENDBRANCH   1  11
BRANCH   8  19
HETATM   19  C   UNL     1     -42.658  58.315 -53.184  1.00  0.00    -0.035 A 
HETATM   20  C   UNL     1     -42.671  58.216 -51.783  1.00  0.00     0.010 A 
HETATM   21  C   UNL     1     -41.516  58.451 -51.031  1.00  0.00     0.019 A 
HETATM   22  C   UNL     1     -40.326  58.779 -51.675  1.00  0.00     0.011 A 
HETATM   23 BR   UNL     1     -38.771  59.122 -50.658  1.00  0.00    -0.051 Br
HETATM   24  C   UNL     1     -40.277  58.857 -53.062  1.00  0.00     0.019 A 
HETATM   25  C   UNL     1     -41.433  58.618 -53.811  1.00  0.00     0.010 A 
ENDBRANCH   8  19
BRANCH   5  26
HETATM   26  N   UNL     1     -42.583  55.852 -59.193  1.00  0.00    -0.229 N 
HETATM   27  H   UNL     1     -42.611  56.613 -59.859  1.00  0.00     0.174 HD
HETATM   28  H   UNL     1     -41.822  55.198 -59.318  1.00  0.00     0.174 HD
ENDBRANCH   5  26
TORSDOF 4
ENDMDL
MODEL 5
REMARK VINA RESULT:      -6.0     19.761     22.005
REMARK  4 active torsions:
REMARK  status: ('A' for Active; 'I' for Inactive)
REMARK    1  A    between atoms: O_2  and  C_3 
REMARK    2  A    between atoms: C_4  and  C_5 
REMARK    3  A    between atoms: C_9  and  N_10 
REMARK    4  A    between atoms: C_13  and  C_14 
ROOT
HETATM    1  C   UNL     1     -34.831  38.384 -51.082  1.00  0.00     0.167 C 
HETATM    2  N   UNL     1     -33.572  38.863 -50.516  1.00  0.00    -0.074 N 
HETATM    3  C   UNL     1     -32.353  38.760 -51.135  1.00  0.00     0.736 A 
HETATM    4  N   UNL     1     -31.443  39.302 -50.368  1.00  0.00     0.131 NA
HETATM    5  C   UNL     1     -32.149  39.670 -49.261  1.00  0.00     0.753 A 
HETATM    6  N   UNL     1     -33.458  39.429 -49.301  1.00  0.00     0.037 NA
HETATM    7  N   UNL     1     -32.218  38.171 -52.337  1.00  0.00    -0.214 N 
HETATM    8  C   UNL     1     -33.380  37.758 -53.113  1.00  0.00     0.135 C 
HETATM    9  C   UNL     1     -34.506  37.315 -52.152  1.00  0.00     0.063 C 
HETATM   10  H   UNL     1     -31.327  38.235 -52.820  1.00  0.00     0.178 HD
ENDROOT
BRANCH   1  11
HETATM   11  C   UNL     1     -35.756  39.501 -51.577  1.00  0.00     0.001 A 
HETATM   12  C   UNL     1     -37.137  39.246 -51.736  1.00  0.00     0.076 A 
HETATM   13  C   UNL     1     -37.992  40.254 -52.204  1.00  0.00     0.037 A 
HETATM   14  C   UNL     1     -37.490  41.514 -52.526  1.00  0.00     0.003 A 
HETATM   15  C   UNL     1     -36.137  41.782 -52.367  1.00  0.00     0.001 A 
HETATM   16  C   UNL     1     -35.280  40.789 -51.893  1.00  0.00     0.012 A 
BRANCH  12  17
HETATM   17  O   UNL     1     -37.564  37.990 -51.383  1.00  0.00    -0.355 OA
HETATM   18  C   UNL     1     -38.522  37.903 -50.335  1.00  0.00     0.210 C 
ENDBRANCH  12  17
ENDBRANCH   1  11
BRANCH   8  19
HETATM   19  C   UNL     1     -33.805  38.789 -54.153  1.00  0.00    -0.035 A 
HETATM   20  C   UNL     1     -33.036  39.921 -54.467  1.00  0.00     0.010 A 
HETATM   21  C   UNL     1     -33.480  40.859 -55.404  1.00  0.00     0.019 A 
HETATM   22  C   UNL     1     -34.700  40.671 -56.048  1.00  0.00     0.011 A 
HETATM   23 BR   UNL     1     -35.312  41.950 -57.295  1.00  0.00    -0.051 Br
HETATM   24  C   UNL     1     -35.469  39.544 -55.776  1.00  0.00     0.019 A 
HETATM   25  C   UNL     1     -35.020  38.607 -54.842  1.00  0.00     0.010 A 
ENDBRANCH   8  19
BRANCH   5  26
HETATM   26  N   UNL     1     -31.503  40.261 -48.262  1.00  0.00    -0.229 N 
HETATM   27  H   UNL     1     -30.839  40.982 -48.512  1.00  0.00     0.174 HD
HETATM   28  H   UNL     1     -32.029  40.435 -47.417  1.00  0.00     0.174 HD
ENDBRANCH   5  26
TORSDOF 4
ENDMDL
MODEL 6
REMARK VINA RESULT:      -6.0      3.847      5.844
REMARK  4 active torsions:
REMARK  status: ('A' for Active; 'I' for Inactive)
REMARK    1  A    between atoms: O_2  and  C_3 
REMARK    2  A    between atoms: C_4  and  C_5 
REMARK    3  A    between atoms: C_9  and  N_10 
REMARK    4  A    between atoms: C_13  and  C_14 
ROOT
HETATM    1  C   UNL     1     -42.914  56.668 -53.349  1.00  0.00     0.167 C 
HETATM    2  N   UNL     1     -42.986  56.951 -54.781  1.00  0.00    -0.074 N 
HETATM    3  C   UNL     1     -43.979  57.682 -55.379  1.00  0.00     0.736 A 
HETATM    4  N   UNL     1     -43.733  57.760 -56.661  1.00  0.00     0.131 NA
HETATM    5  C   UNL     1     -42.605  57.009 -56.806  1.00  0.00     0.753 A 
HETATM    6  N   UNL     1     -42.102  56.494 -55.686  1.00  0.00     0.037 NA
HETATM    7  N   UNL     1     -45.007  58.190 -54.673  1.00  0.00    -0.214 N 
HETATM    8  C   UNL     1     -45.030  58.125 -53.218  1.00  0.00     0.135 C 
HETATM    9  C   UNL     1     -44.331  56.829 -52.751  1.00  0.00     0.063 C 
HETATM   10  H   UNL     1     -45.646  58.834 -55.127  1.00  0.00     0.178 HD
ENDROOT
BRANCH   1  11
HETATM   11  C   UNL     1     -41.830  57.463 -52.611  1.00  0.00     0.001 A 
HETATM   12  C   UNL     1     -41.588  57.209 -51.242  1.00  0.00     0.076 A 
HETATM   13  C   UNL     1     -40.612  57.941 -50.551  1.00  0.00     0.037 A 
HETATM   14  C   UNL     1     -39.877  58.931 -51.202  1.00  0.00     0.003 A 
HETATM   15  C   UNL     1     -40.098  59.186 -52.548  1.00  0.00     0.001 A 
HETATM   16  C   UNL     1     -41.060  58.456 -53.247  1.00  0.00     0.012 A 
BRANCH  12  17
HETATM   17  O   UNL     1     -42.335  56.209 -50.671  1.00  0.00    -0.355 OA
HETATM   18  C   UNL     1     -41.661  55.323 -49.785  1.00  0.00     0.210 C 
ENDBRANCH  12  17
ENDBRANCH   1  11
BRANCH   8  19
HETATM   19  C   UNL     1     -44.515  59.396 -52.552  1.00  0.00    -0.035 A 
HETATM   20  C   UNL     1     -44.098  60.525 -53.277  1.00  0.00     0.010 A 
HETATM   21  C   UNL     1     -43.600  61.658 -52.627  1.00  0.00     0.019 A 
HETATM   22  C   UNL     1     -43.523  61.681 -51.237  1.00  0.00     0.011 A 
HETATM   23 BR   UNL     1     -42.826  63.202 -50.359  1.00  0.00    -0.051 Br
HETATM   24  C   UNL     1     -43.954  60.588 -50.493  1.00  0.00     0.019 A 
HETATM   25  C   UNL     1     -44.454  59.459 -51.146  1.00  0.00     0.010 A 
ENDBRANCH   8  19
BRANCH   5  26
HETATM   26  N   UNL     1     -42.081  56.877 -58.020  1.00  0.00    -0.229 N 
HETATM   27  H   UNL     1     -41.937  57.728 -58.549  1.00  0.00     0.174 HD
HETATM   28  H   UNL     1     -41.365  56.173 -58.134  1.00  0.00     0.174 HD
ENDBRANCH   5  26
TORSDOF 4
ENDMDL
MODEL 7
REMARK VINA RESULT:      -5.9      3.199      4.668
REMARK  4 active torsions:
REMARK  status: ('A' for Active; 'I' for Inactive)
REMARK    1  A    between atoms: O_2  and  C_3 
REMARK    2  A    between atoms: C_4  and  C_5 
REMARK    3  A    between atoms: C_9  and  N_10 
REMARK    4  A    between atoms: C_13  and  C_14 
ROOT
HETATM    1  C   UNL     1     -43.669  57.264 -55.026  1.00  0.00     0.167 C 
HETATM    2  N   UNL     1     -43.420  58.697 -54.879  1.00  0.00    -0.074 N 
HETATM    3  C   UNL     1     -43.728  59.427 -53.760  1.00  0.00     0.736 A 
HETATM    4  N   UNL     1     -43.360  60.667 -53.951  1.00  0.00     0.131 NA
HETATM    5  C   UNL     1     -42.884  60.656 -55.228  1.00  0.00     0.753 A 
HETATM    6  N   UNL     1     -42.893  59.474 -55.842  1.00  0.00     0.037 NA
HETATM    7  N   UNL     1     -44.322  58.866 -52.690  1.00  0.00    -0.214 N 
HETATM    8  C   UNL     1     -44.520  57.425 -52.603  1.00  0.00     0.135 C 
HETATM    9  C   UNL     1     -44.768  56.856 -54.018  1.00  0.00     0.063 C 
HETATM   10  H   UNL     1     -44.410  59.407 -51.836  1.00  0.00     0.178 HD
ENDROOT
BRANCH   1  11
HETATM   11  C   UNL     1     -42.403  56.402 -54.953  1.00  0.00     0.001 A 
HETATM   12  C   UNL     1     -42.323  55.213 -55.711  1.00  0.00     0.076 A 
HETATM   13  C   UNL     1     -41.178  54.406 -55.640  1.00  0.00     0.037 A 
HETATM   14  C   UNL     1     -40.112  54.762 -54.815  1.00  0.00     0.003 A 
HETATM   15  C   UNL     1     -40.173  55.932 -54.070  1.00  0.00     0.001 A 
HETATM   16  C   UNL     1     -41.304  56.746 -54.142  1.00  0.00     0.012 A 
BRANCH  12  17
HETATM   17  O   UNL     1     -43.401  54.934 -56.514  1.00  0.00    -0.355 OA
HETATM   18  C   UNL     1     -43.290  55.280 -57.890  1.00  0.00     0.210 C 
ENDBRANCH  12  17
ENDBRANCH   1  11
BRANCH   8  19
HETATM   19  C   UNL     1     -43.422  56.714 -51.820  1.00  0.00    -0.035 A 
HETATM   20  C   UNL     1     -42.419  57.400 -51.114  1.00  0.00     0.010 A 
HETATM   21  C   UNL     1     -41.411  56.707 -50.436  1.00  0.00     0.019 A 
HETATM   22  C   UNL     1     -41.399  55.316 -50.447  1.00  0.00     0.011 A 
HETATM   23 BR   UNL     1     -40.023  54.380 -49.552  1.00  0.00    -0.051 Br
HETATM   24  C   UNL     1     -42.396  54.611 -51.114  1.00  0.00     0.019 A 
HETATM   25  C   UNL     1     -43.403  55.306 -51.788  1.00  0.00     0.010 A 
ENDBRANCH   8  19
BRANCH   5  26
HETATM   26  N   UNL     1     -42.423  61.790 -55.745  1.00  0.00    -0.229 N 
HETATM   27  H   UNL     1     -41.968  62.430 -55.107  1.00  0.00     0.174 HD
HETATM   28  H   UNL     1     -42.014  61.739 -56.668  1.00  0.00     0.174 HD
ENDBRANCH   5  26
TORSDOF 4
ENDMDL
MODEL 8
REMARK VINA RESULT:      -5.9      4.923      6.844
REMARK  4 active torsions:
REMARK  status: ('A' for Active; 'I' for Inactive)
REMARK    1  A    between atoms: O_2  and  C_3 
REMARK    2  A    between atoms: C_4  and  C_5 
REMARK    3  A    between atoms: C_9  and  N_10 
REMARK    4  A    between atoms: C_13  and  C_14 
ROOT
HETATM    1  C   UNL     1     -42.837  58.756 -56.282  1.00  0.00     0.167 C 
HETATM    2  N   UNL     1     -43.356  58.083 -55.092  1.00  0.00    -0.074 N 
HETATM    3  C   UNL     1     -44.610  58.279 -54.575  1.00  0.00     0.736 A 
HETATM    4  N   UNL     1     -44.758  57.513 -53.525  1.00  0.00     0.131 NA
HETATM    5  C   UNL     1     -43.542  56.910 -53.408  1.00  0.00     0.753 A 
HETATM    6  N   UNL     1     -42.647  57.219 -54.344  1.00  0.00     0.037 NA
HETATM    7  N   UNL     1     -45.475  59.150 -55.127  1.00  0.00    -0.214 N 
HETATM    8  C   UNL     1     -45.183  59.807 -56.394  1.00  0.00     0.135 C 
HETATM    9  C   UNL     1     -43.660  60.045 -56.508  1.00  0.00     0.063 C 
HETATM   10  H   UNL     1     -46.435  59.167 -54.798  1.00  0.00     0.178 HD
ENDROOT
BRANCH   1  11
HETATM   11  C   UNL     1     -42.741  57.852 -57.516  1.00  0.00     0.001 A 
HETATM   12  C   UNL     1     -42.091  58.323 -58.679  1.00  0.00     0.076 A 
HETATM   13  C   UNL     1     -42.011  57.513 -59.820  1.00  0.00     0.037 A 
HETATM   14  C   UNL     1     -42.577  56.239 -59.825  1.00  0.00     0.003 A 
HETATM   15  C   UNL     1     -43.212  55.759 -58.687  1.00  0.00     0.001 A 
HETATM   16  C   UNL     1     -43.288  56.554 -57.543  1.00  0.00     0.012 A 
BRANCH  12  17
HETATM   17  O   UNL     1     -41.541  59.579 -58.597  1.00  0.00    -0.355 OA
HETATM   18  C   UNL     1     -41.846  60.488 -59.648  1.00  0.00     0.210 C 
ENDBRANCH  12  17
ENDBRANCH   1  11
BRANCH   8  19
HETATM   19  C   UNL     1     -45.803  59.101 -57.595  1.00  0.00    -0.035 A 
HETATM   20  C   UNL     1     -46.682  58.011 -57.471  1.00  0.00     0.010 A 
HETATM   21  C   UNL     1     -47.202  57.372 -58.601  1.00  0.00     0.019 A 
HETATM   22  C   UNL     1     -46.858  57.822 -59.872  1.00  0.00     0.011 A 
HETATM   23 BR   UNL     1     -47.540  56.943 -61.398  1.00  0.00    -0.051 Br
HETATM   24  C   UNL     1     -46.012  58.916 -60.023  1.00  0.00     0.019 A 
HETATM   25  C   UNL     1     -45.497  59.555 -58.892  1.00  0.00     0.010 A 
ENDBRANCH   8  19
BRANCH   5  26
HETATM   26  N   UNL     1     -43.352  56.050 -52.413  1.00  0.00    -0.229 N 
HETATM   27  H   UNL     1     -43.702  56.322 -51.503  1.00  0.00     0.174 HD
HETATM   28  H   UNL     1     -43.444  55.068 -52.634  1.00  0.00     0.174 HD
ENDBRANCH   5  26
TORSDOF 4
ENDMDL
MODEL 9
REMARK VINA RESULT:      -5.8      3.273      5.228
REMARK  4 active torsions:
REMARK  status: ('A' for Active; 'I' for Inactive)
REMARK    1  A    between atoms: O_2  and  C_3 
REMARK    2  A    between atoms: C_4  and  C_5 
REMARK    3  A    between atoms: C_9  and  N_10 
REMARK    4  A    between atoms: C_13  and  C_14 
ROOT
HETATM    1  C   UNL     1     -43.731  59.993 -54.191  1.00  0.00     0.167 C 
HETATM    2  N   UNL     1     -44.080  59.101 -55.295  1.00  0.00    -0.074 N 
HETATM    3  C   UNL     1     -43.210  58.227 -55.893  1.00  0.00     0.736 A 
HETATM    4  N   UNL     1     -43.846  57.571 -56.828  1.00  0.00     0.131 NA
HETATM    5  C   UNL     1     -45.091  58.124 -56.802  1.00  0.00     0.753 A 
HETATM    6  N   UNL     1     -45.291  59.063 -55.879  1.00  0.00     0.037 NA
HETATM    7  N   UNL     1     -41.922  58.138 -55.510  1.00  0.00    -0.214 N 
HETATM    8  C   UNL     1     -41.430  58.849 -54.337  1.00  0.00     0.135 C 
HETATM    9  C   UNL     1     -42.196  60.183 -54.188  1.00  0.00     0.063 C 
HETATM   10  H   UNL     1     -41.348  57.389 -55.883  1.00  0.00     0.178 HD
ENDROOT
BRANCH   1  11
HETATM   11  C   UNL     1     -44.309  59.563 -52.837  1.00  0.00     0.001 A 
HETATM   12  C   UNL     1     -44.416  60.508 -51.791  1.00  0.00     0.076 A 
HETATM   13  C   UNL     1     -44.926  60.124 -50.543  1.00  0.00     0.037 A 
HETATM   14  C   UNL     1     -45.326  58.808 -50.316  1.00  0.00     0.003 A 
HETATM   15  C   UNL     1     -45.234  57.871 -51.336  1.00  0.00     0.001 A 
HETATM   16  C   UNL     1     -44.736  58.245 -52.585  1.00  0.00     0.012 A 
BRANCH  12  17
HETATM   17  O   UNL     1     -44.021  61.788 -52.091  1.00  0.00    -0.355 OA
HETATM   18  C   UNL     1     -43.260  62.477 -51.106  1.00  0.00     0.210 C 
ENDBRANCH  12  17
ENDBRANCH   1  11
BRANCH   8  19
HETATM   19  C   UNL     1     -41.408  57.989 -53.079  1.00  0.00    -0.035 A 
HETATM   20  C   UNL     1     -41.196  58.518 -51.794  1.00  0.00     0.010 A 
HETATM   21  C   UNL     1     -41.150  57.687 -50.670  1.00  0.00     0.019 A 
HETATM   22  C   UNL     1     -41.327  56.314 -50.816  1.00  0.00     0.011 A 
HETATM   23 BR   UNL     1     -41.239  55.189 -49.301  1.00  0.00    -0.051 Br
HETATM   24  C   UNL     1     -41.565  55.767 -52.072  1.00  0.00     0.019 A 
HETATM   25  C   UNL     1     -41.614  56.600 -53.193  1.00  0.00     0.010 A 
ENDBRANCH   8  19
BRANCH   5  26
HETATM   26  N   UNL     1     -46.005  57.673 -57.655  1.00  0.00    -0.229 N 
HETATM   27  H   UNL     1     -46.717  58.329 -57.949  1.00  0.00     0.174 HD
HETATM   28  H   UNL     1     -45.686  57.034 -58.370  1.00  0.00     0.174 HD
ENDBRANCH   5  26
TORSDOF 4
ENDMDL
MODEL 10
REMARK VINA RESULT:      -5.8      3.758      5.375
REMARK  4 active torsions:
REMARK  status: ('A' for Active; 'I' for Inactive)
REMARK    1  A    between atoms: O_2  and  C_3 
REMARK    2  A    between atoms: C_4  and  C_5 
REMARK    3  A    between atoms: C_9  and  N_10 
REMARK    4  A    between atoms: C_13  and  C_14 
ROOT
HETATM    1  C   UNL     1     -43.628  59.516 -55.551  1.00  0.00     0.167 C 
HETATM    2  N   UNL     1     -44.726  59.044 -56.392  1.00  0.00    -0.074 N 
HETATM    3  C   UNL     1     -44.661  57.947 -57.212  1.00  0.00     0.736 A 
HETATM    4  N   UNL     1     -45.815  57.794 -57.806  1.00  0.00     0.131 NA
HETATM    5  C   UNL     1     -46.537  58.862 -57.361  1.00  0.00     0.753 A 
HETATM    6  N   UNL     1     -45.920  59.657 -56.489  1.00  0.00     0.037 NA
HETATM    7  N   UNL     1     -43.538  57.213 -57.322  1.00  0.00    -0.214 N 
HETATM    8  C   UNL     1     -42.389  57.451 -56.458  1.00  0.00     0.135 C 
HETATM    9  C   UNL     1     -42.305  58.957 -56.122  1.00  0.00     0.063 C 
HETATM   10  H   UNL     1     -43.571  56.336 -57.832  1.00  0.00     0.178 HD
ENDROOT
BRANCH   1  11
HETATM   11  C   UNL     1     -43.828  59.242 -54.056  1.00  0.00     0.001 A 
HETATM   12  C   UNL     1     -43.189  60.066 -53.102  1.00  0.00     0.076 A 
HETATM   13  C   UNL     1     -43.349  59.816 -51.733  1.00  0.00     0.037 A 
HETATM   14  C   UNL     1     -44.132  58.749 -51.295  1.00  0.00     0.003 A 
HETATM   15  C   UNL     1     -44.773  57.935 -52.219  1.00  0.00     0.001 A 
HETATM   16  C   UNL     1     -44.628  58.182 -53.585  1.00  0.00     0.012 A 
BRANCH  12  17
HETATM   17  O   UNL     1     -42.449  61.108 -53.604  1.00  0.00    -0.355 OA
HETATM   18  C   UNL     1     -43.006  62.412 -53.487  1.00  0.00     0.210 C 
ENDBRANCH  12  17
ENDBRANCH   1  11
BRANCH   8  19
HETATM   19  C   UNL     1     -42.350  56.530 -55.244  1.00  0.00    -0.035 A 
HETATM   20  C   UNL     1     -43.206  55.426 -55.093  1.00  0.00     0.010 A 
HETATM   21  C   UNL     1     -43.158  54.627 -53.947  1.00  0.00     0.019 A 
HETATM   22  C   UNL     1     -42.244  54.916 -52.938  1.00  0.00     0.011 A 
HETATM   23 BR   UNL     1     -42.197  53.852 -51.378  1.00  0.00    -0.051 Br
HETATM   24  C   UNL     1     -41.366  55.987 -53.073  1.00  0.00     0.019 A 
HETATM   25  C   UNL     1     -41.414  56.781 -54.221  1.00  0.00     0.010 A 
ENDBRANCH   8  19
BRANCH   5  26
HETATM   26  N   UNL     1     -47.786  59.008 -57.790  1.00  0.00    -0.229 N 
HETATM   27  H   UNL     1     -48.013  59.886 -58.237  1.00  0.00     0.174 HD
HETATM   28  H   UNL     1     -48.230  58.193 -58.190  1.00  0.00     0.174 HD
ENDBRANCH   5  26
TORSDOF 4
ENDMDL
