MODEL 1
REMARK VINA RESULT:      -9.5      0.000      0.000
REMARK  2 active torsions:
REMARK  status: ('A' for Active; 'I' for Inactive)
REMARK       I    between atoms: N_4  and  C_5 
REMARK       I    between atoms: C_5  and  N_6 
REMARK    1  A    between atoms: N_6  and  C_7 
REMARK    2  A    between atoms: C_20  and  C_21 
ROOT
HETATM    1  C   UNL     1     -44.359  54.466 -50.232  1.00  0.00     0.011 C 
HETATM    2  C   UNL     1     -43.375  54.190 -51.354  1.00  0.00     0.002 C 
HETATM    3  C   UNL     1     -43.433  55.220 -52.478  1.00  0.00     0.132 C 
HETATM    4  N   UNL     1     -42.104  55.196 -53.075  1.00  0.00    -0.325 N 
HETATM    5  C   UNL     1     -41.705  55.785 -54.256  1.00  0.00     0.323 C 
HETATM    6  N   UNL     1     -42.688  56.522 -54.878  1.00  0.00    -0.309 N 
HETATM    7  O   UNL     1     -40.569  55.640 -54.701  1.00  0.00    -0.247 OA
HETATM    8  C   UNL     1     -41.150  54.462 -52.237  1.00  0.00     0.125 C 
HETATM    9  C   UNL     1     -41.910  54.269 -50.913  1.00  0.00     0.036 C 
HETATM   10  H   UNL     1     -43.345  56.974 -54.262  1.00  0.00     0.170 HD
ENDROOT
BRANCH   6  11
HETATM   11  C   UNL     1     -42.684  56.938 -56.224  1.00  0.00     0.038 A 
HETATM   12  C   UNL     1     -42.339  58.237 -56.609  1.00  0.00     0.062 A 
HETATM   13  C   UNL     1     -42.288  58.576 -57.963  1.00  0.00     0.070 A 
HETATM   14  C   UNL     1     -42.589  57.629 -58.940  1.00  0.00     0.096 A 
HETATM   15  N   UNL     1     -41.878  59.858 -58.329  1.00  0.00    -0.323 N 
HETATM   16  O   UNL     1     -42.533  57.875 -60.283  1.00  0.00    -0.335 OA
HETATM   17  C   UNL     1     -42.926  56.332 -58.561  1.00  0.00     0.041 A 
HETATM   18  C   UNL     1     -42.400  59.247 -60.648  1.00  0.00     0.217 C 
HETATM   19  C   UNL     1     -41.813  60.243 -59.637  1.00  0.00     0.251 C 
HETATM   20  C   UNL     1     -43.769  59.754 -61.095  1.00  0.00     0.050 C 
HETATM   21  O   UNL     1     -41.375  61.347 -59.957  1.00  0.00    -0.270 OA
HETATM   22  C   UNL     1     -42.964  55.984 -57.208  1.00  0.00     0.032 A 
HETATM   23  H   UNL     1     -41.570  60.523 -57.633  1.00  0.00     0.169 HD
ENDBRANCH   6  11
BRANCH   8  24
HETATM   24  C   UNL     1     -40.686  53.138 -52.812  1.00  0.00     0.003 A 
HETATM   25  C   UNL     1     -39.674  52.438 -52.142  1.00  0.00     0.124 A 
HETATM   26  F   UNL     1     -39.160  52.936 -51.008  1.00  0.00    -0.205 F 
HETATM   27  C   UNL     1     -39.187  51.223 -52.616  1.00  0.00     0.043 A 
HETATM   28  C   UNL     1     -39.715  50.676 -53.783  1.00  0.00     0.003 A 
HETATM   29  C   UNL     1     -40.730  51.348 -54.462  1.00  0.00     0.001 A 
HETATM   30  C   UNL     1     -41.215  52.568 -53.980  1.00  0.00     0.012 A 
ENDBRANCH   8  24
TORSDOF 2
ENDMDL
MODEL 2
REMARK VINA RESULT:      -8.7      3.139      8.258
REMARK  2 active torsions:
REMARK  status: ('A' for Active; 'I' for Inactive)
REMARK       I    between atoms: N_4  and  C_5 
REMARK       I    between atoms: C_5  and  N_6 
REMARK    1  A    between atoms: N_6  and  C_7 
REMARK    2  A    between atoms: C_20  and  C_21 
ROOT
HETATM    1  C   UNL     1     -45.306  60.336 -54.568  1.00  0.00     0.011 C 
HETATM    2  C   UNL     1     -44.510  59.280 -55.314  1.00  0.00     0.002 C 
HETATM    3  C   UNL     1     -44.094  58.103 -54.438  1.00  0.00     0.132 C 
HETATM    4  N   UNL     1     -43.948  56.985 -55.361  1.00  0.00    -0.325 N 
HETATM    5  C   UNL     1     -43.384  55.753 -55.103  1.00  0.00     0.323 C 
HETATM    6  N   UNL     1     -42.983  55.580 -53.796  1.00  0.00    -0.309 N 
HETATM    7  O   UNL     1     -43.250  54.905 -55.982  1.00  0.00    -0.247 OA
HETATM    8  C   UNL     1     -44.520  57.294 -56.676  1.00  0.00     0.125 C 
HETATM    9  C   UNL     1     -45.304  58.594 -56.429  1.00  0.00     0.036 C 
HETATM   10  H   UNL     1     -43.542  56.057 -53.106  1.00  0.00     0.170 HD
ENDROOT
BRANCH   6  11
HETATM   11  C   UNL     1     -42.091  54.596 -53.329  1.00  0.00     0.038 A 
HETATM   12  C   UNL     1     -41.858  53.402 -54.019  1.00  0.00     0.062 A 
HETATM   13  C   UNL     1     -40.913  52.490 -53.543  1.00  0.00     0.070 A 
HETATM   14  C   UNL     1     -40.204  52.754 -52.374  1.00  0.00     0.096 A 
HETATM   15  N   UNL     1     -40.648  51.336 -54.281  1.00  0.00    -0.323 N 
HETATM   16  O   UNL     1     -39.243  51.927 -51.861  1.00  0.00    -0.335 OA
HETATM   17  C   UNL     1     -40.427  53.945 -51.686  1.00  0.00     0.041 A 
HETATM   18  C   UNL     1     -39.180  50.629 -52.446  1.00  0.00     0.217 C 
HETATM   19  C   UNL     1     -39.737  50.410 -53.861  1.00  0.00     0.251 C 
HETATM   20  C   UNL     1     -39.860  49.646 -51.496  1.00  0.00     0.050 C 
HETATM   21  O   UNL     1     -39.451  49.436 -54.554  1.00  0.00    -0.270 OA
HETATM   22  C   UNL     1     -41.360  54.868 -52.167  1.00  0.00     0.032 A 
HETATM   23  H   UNL     1     -41.091  51.179 -55.176  1.00  0.00     0.169 HD
ENDBRANCH   6  11
BRANCH   8  24
HETATM   24  C   UNL     1     -43.503  57.457 -57.789  1.00  0.00     0.003 A 
HETATM   25  C   UNL     1     -43.508  56.530 -58.839  1.00  0.00     0.124 A 
HETATM   26  F   UNL     1     -44.415  55.542 -58.848  1.00  0.00    -0.205 F 
HETATM   27  C   UNL     1     -42.597  56.607 -59.889  1.00  0.00     0.043 A 
HETATM   28  C   UNL     1     -41.655  57.632 -59.911  1.00  0.00     0.003 A 
HETATM   29  C   UNL     1     -41.636  58.575 -58.883  1.00  0.00     0.001 A 
HETATM   30  C   UNL     1     -42.554  58.491 -57.832  1.00  0.00     0.012 A 
ENDBRANCH   8  24
TORSDOF 2
ENDMDL
MODEL 3
REMARK VINA RESULT:      -8.6      3.509      8.854
REMARK  2 active torsions:
REMARK  status: ('A' for Active; 'I' for Inactive)
REMARK       I    between atoms: N_4  and  C_5 
REMARK       I    between atoms: C_5  and  N_6 
REMARK    1  A    between atoms: N_6  and  C_7 
REMARK    2  A    between atoms: C_20  and  C_21 
ROOT
HETATM    1  C   UNL     1     -44.956  54.977 -61.412  1.00  0.00     0.011 C 
HETATM    2  C   UNL     1     -44.808  55.903 -60.218  1.00  0.00     0.002 C 
HETATM    3  C   UNL     1     -43.946  55.319 -59.103  1.00  0.00     0.132 C 
HETATM    4  N   UNL     1     -43.403  56.479 -58.407  1.00  0.00    -0.325 N 
HETATM    5  C   UNL     1     -42.738  56.496 -57.198  1.00  0.00     0.323 C 
HETATM    6  N   UNL     1     -42.530  55.248 -56.653  1.00  0.00    -0.309 N 
HETATM    7  O   UNL     1     -42.384  57.546 -56.668  1.00  0.00    -0.247 OA
HETATM    8  C   UNL     1     -43.615  57.714 -59.169  1.00  0.00     0.125 C 
HETATM    9  C   UNL     1     -44.078  57.209 -60.547  1.00  0.00     0.036 C 
HETATM   10  H   UNL     1     -42.392  54.503 -57.318  1.00  0.00     0.170 HD
ENDROOT
BRANCH   6  11
HETATM   11  C   UNL     1     -42.199  54.977 -55.311  1.00  0.00     0.038 A 
HETATM   12  C   UNL     1     -43.130  55.072 -54.273  1.00  0.00     0.062 A 
HETATM   13  C   UNL     1     -42.765  54.727 -52.970  1.00  0.00     0.070 A 
HETATM   14  C   UNL     1     -41.469  54.299 -52.690  1.00  0.00     0.096 A 
HETATM   15  N   UNL     1     -43.725  54.765 -51.960  1.00  0.00    -0.323 N 
HETATM   16  O   UNL     1     -41.043  53.917 -51.448  1.00  0.00    -0.335 OA
HETATM   17  C   UNL     1     -40.539  54.196 -53.722  1.00  0.00     0.041 A 
HETATM   18  C   UNL     1     -41.929  54.229 -50.376  1.00  0.00     0.217 C 
HETATM   19  C   UNL     1     -43.422  54.442 -50.668  1.00  0.00     0.251 C 
HETATM   20  C   UNL     1     -41.390  55.464 -49.660  1.00  0.00     0.050 C 
HETATM   21  O   UNL     1     -44.290  54.401 -49.799  1.00  0.00    -0.270 OA
HETATM   22  C   UNL     1     -40.905  54.525 -55.031  1.00  0.00     0.032 A 
HETATM   23  H   UNL     1     -44.690  54.987 -52.168  1.00  0.00     0.169 HD
ENDBRANCH   6  11
BRANCH   8  24
HETATM   24  C   UNL     1     -44.619  58.674 -58.560  1.00  0.00     0.003 A 
HETATM   25  C   UNL     1     -44.295  60.036 -58.513  1.00  0.00     0.124 A 
HETATM   26  F   UNL     1     -43.128  60.459 -59.021  1.00  0.00    -0.205 F 
HETATM   27  C   UNL     1     -45.159  60.975 -57.957  1.00  0.00     0.043 A 
HETATM   28  C   UNL     1     -46.383  60.563 -57.436  1.00  0.00     0.003 A 
HETATM   29  C   UNL     1     -46.734  59.214 -57.481  1.00  0.00     0.001 A 
HETATM   30  C   UNL     1     -45.861  58.276 -58.041  1.00  0.00     0.012 A 
ENDBRANCH   8  24
TORSDOF 2
ENDMDL
MODEL 4
REMARK VINA RESULT:      -8.5      3.332      8.698
REMARK  2 active torsions:
REMARK  status: ('A' for Active; 'I' for Inactive)
REMARK       I    between atoms: N_4  and  C_5 
REMARK       I    between atoms: C_5  and  N_6 
REMARK    1  A    between atoms: N_6  and  C_7 
REMARK    2  A    between atoms: C_20  and  C_21 
ROOT
HETATM    1  C   UNL     1     -41.732  60.903 -59.748  1.00  0.00     0.011 C 
HETATM    2  C   UNL     1     -42.509  59.659 -59.354  1.00  0.00     0.002 C 
HETATM    3  C   UNL     1     -42.069  59.070 -58.017  1.00  0.00     0.132 C 
HETATM    4  N   UNL     1     -43.242  58.364 -57.518  1.00  0.00    -0.325 N 
HETATM    5  C   UNL     1     -43.304  57.488 -56.454  1.00  0.00     0.323 C 
HETATM    6  N   UNL     1     -42.114  57.341 -55.777  1.00  0.00    -0.309 N 
HETATM    7  O   UNL     1     -44.339  56.893 -56.165  1.00  0.00    -0.247 OA
HETATM    8  C   UNL     1     -44.446  58.711 -58.282  1.00  0.00     0.125 C 
HETATM    9  C   UNL     1     -44.000  59.920 -59.122  1.00  0.00     0.036 C 
HETATM   10  H   UNL     1     -41.528  58.160 -55.748  1.00  0.00     0.170 HD
ENDROOT
BRANCH   6  11
HETATM   11  C   UNL     1     -41.789  56.291 -54.895  1.00  0.00     0.038 A 
HETATM   12  C   UNL     1     -41.978  56.384 -53.513  1.00  0.00     0.062 A 
HETATM   13  C   UNL     1     -41.701  55.288 -52.693  1.00  0.00     0.070 A 
HETATM   14  C   UNL     1     -41.222  54.100 -53.240  1.00  0.00     0.096 A 
HETATM   15  N   UNL     1     -41.958  55.378 -51.325  1.00  0.00    -0.323 N 
HETATM   16  O   UNL     1     -40.955  52.976 -52.509  1.00  0.00    -0.335 OA
HETATM   17  C   UNL     1     -41.038  54.000 -54.618  1.00  0.00     0.041 A 
HETATM   18  C   UNL     1     -40.940  53.157 -51.095  1.00  0.00     0.217 C 
HETATM   19  C   UNL     1     -41.702  54.339 -50.477  1.00  0.00     0.251 C 
HETATM   20  C   UNL     1     -39.485  53.223 -50.640  1.00  0.00     0.050 C 
HETATM   21  O   UNL     1     -42.006  54.396 -49.287  1.00  0.00    -0.270 OA
HETATM   22  C   UNL     1     -41.330  55.089 -55.444  1.00  0.00     0.032 A 
HETATM   23  H   UNL     1     -42.390  56.203 -50.931  1.00  0.00     0.169 HD
ENDBRANCH   6  11
BRANCH   8  24
HETATM   24  C   UNL     1     -44.991  57.595 -59.152  1.00  0.00     0.003 A 
HETATM   25  C   UNL     1     -46.378  57.404 -59.201  1.00  0.00     0.124 A 
HETATM   26  F   UNL     1     -47.185  58.216 -58.502  1.00  0.00    -0.205 F 
HETATM   27  C   UNL     1     -46.952  56.393 -59.966  1.00  0.00     0.043 A 
HETATM   28  C   UNL     1     -46.136  55.546 -60.713  1.00  0.00     0.003 A 
HETATM   29  C   UNL     1     -44.753  55.723 -60.691  1.00  0.00     0.001 A 
HETATM   30  C   UNL     1     -44.184  56.741 -59.920  1.00  0.00     0.012 A 
ENDBRANCH   8  24
TORSDOF 2
ENDMDL
MODEL 5
REMARK VINA RESULT:      -8.2      2.238      3.858
REMARK  2 active torsions:
REMARK  status: ('A' for Active; 'I' for Inactive)
REMARK       I    between atoms: N_4  and  C_5 
REMARK       I    between atoms: C_5  and  N_6 
REMARK    1  A    between atoms: N_6  and  C_7 
REMARK    2  A    between atoms: C_20  and  C_21 
ROOT
HETATM    1  C   UNL     1     -40.101  52.559 -54.021  1.00  0.00     0.011 C 
HETATM    2  C   UNL     1     -40.533  54.014 -53.984  1.00  0.00     0.002 C 
HETATM    3  C   UNL     1     -41.215  54.476 -55.268  1.00  0.00     0.132 C 
HETATM    4  N   UNL     1     -42.082  55.573 -54.856  1.00  0.00    -0.325 N 
HETATM    5  C   UNL     1     -42.749  56.465 -55.669  1.00  0.00     0.323 C 
HETATM    6  N   UNL     1     -42.603  56.216 -57.016  1.00  0.00    -0.309 N 
HETATM    7  O   UNL     1     -43.401  57.399 -55.208  1.00  0.00    -0.247 OA
HETATM    8  C   UNL     1     -42.216  55.634 -53.397  1.00  0.00     0.125 C 
HETATM    9  C   UNL     1     -41.599  54.307 -52.924  1.00  0.00     0.036 C 
HETATM   10  H   UNL     1     -42.508  55.246 -57.269  1.00  0.00     0.170 HD
ENDROOT
BRANCH   6  11
HETATM   11  C   UNL     1     -42.871  57.126 -58.058  1.00  0.00     0.038 A 
HETATM   12  C   UNL     1     -42.144  58.308 -58.230  1.00  0.00     0.062 A 
HETATM   13  C   UNL     1     -42.409  59.141 -59.319  1.00  0.00     0.070 A 
HETATM   14  C   UNL     1     -43.405  58.810 -60.236  1.00  0.00     0.096 A 
HETATM   15  N   UNL     1     -41.630  60.282 -59.510  1.00  0.00    -0.323 N 
HETATM   16  O   UNL     1     -43.702  59.556 -61.342  1.00  0.00    -0.335 OA
HETATM   17  C   UNL     1     -44.127  57.629 -60.073  1.00  0.00     0.041 A 
HETATM   18  C   UNL     1     -43.114  60.854 -61.379  1.00  0.00     0.217 C 
HETATM   19  C   UNL     1     -41.847  61.132 -60.556  1.00  0.00     0.251 C 
HETATM   20  C   UNL     1     -44.183  61.871 -60.989  1.00  0.00     0.050 C 
HETATM   21  O   UNL     1     -41.107  62.091 -60.764  1.00  0.00    -0.270 OA
HETATM   22  C   UNL     1     -43.855  56.785 -58.992  1.00  0.00     0.032 A 
HETATM   23  H   UNL     1     -40.846  60.483 -58.903  1.00  0.00     0.169 HD
ENDBRANCH   6  11
BRANCH   8  24
HETATM   24  C   UNL     1     -41.543  56.827 -52.746  1.00  0.00     0.003 A 
HETATM   25  C   UNL     1     -41.805  57.085 -51.394  1.00  0.00     0.124 A 
HETATM   26  F   UNL     1     -42.619  56.270 -50.707  1.00  0.00    -0.205 F 
HETATM   27  C   UNL     1     -41.234  58.168 -50.731  1.00  0.00     0.043 A 
HETATM   28  C   UNL     1     -40.374  59.021 -51.417  1.00  0.00     0.003 A 
HETATM   29  C   UNL     1     -40.088  58.779 -52.761  1.00  0.00     0.001 A 
HETATM   30  C   UNL     1     -40.664  57.689 -53.420  1.00  0.00     0.012 A 
ENDBRANCH   8  24
TORSDOF 2
ENDMDL
MODEL 6
REMARK VINA RESULT:      -8.2      3.394      8.590
REMARK  2 active torsions:
REMARK  status: ('A' for Active; 'I' for Inactive)
REMARK       I    between atoms: N_4  and  C_5 
REMARK       I    between atoms: C_5  and  N_6 
REMARK    1  A    between atoms: N_6  and  C_7 
REMARK    2  A    between atoms: C_20  and  C_21 
ROOT
HETATM    1  C   UNL     1     -41.716  60.660 -60.740  1.00  0.00     0.011 C 
HETATM    2  C   UNL     1     -42.402  59.500 -60.042  1.00  0.00     0.002 C 
HETATM    3  C   UNL     1     -42.122  59.445 -58.543  1.00  0.00     0.132 C 
HETATM    4  N   UNL     1     -43.275  58.758 -57.974  1.00  0.00    -0.325 N 
HETATM    5  C   UNL     1     -43.410  58.268 -56.691  1.00  0.00     0.323 C 
HETATM    6  N   UNL     1     -42.337  58.535 -55.871  1.00  0.00    -0.309 N 
HETATM    7  O   UNL     1     -44.406  57.641 -56.339  1.00  0.00    -0.247 OA
HETATM    8  C   UNL     1     -44.370  58.649 -58.944  1.00  0.00     0.125 C 
HETATM    9  C   UNL     1     -43.931  59.581 -60.086  1.00  0.00     0.036 C 
HETATM   10  H   UNL     1     -41.858  59.403 -56.054  1.00  0.00     0.170 HD
ENDROOT
BRANCH   6  11
HETATM   11  C   UNL     1     -42.044  57.887 -54.655  1.00  0.00     0.038 A 
HETATM   12  C   UNL     1     -41.715  56.530 -54.586  1.00  0.00     0.062 A 
HETATM   13  C   UNL     1     -41.369  55.954 -53.362  1.00  0.00     0.070 A 
HETATM   14  C   UNL     1     -41.361  56.721 -52.198  1.00  0.00     0.096 A 
HETATM   15  N   UNL     1     -40.980  54.615 -53.324  1.00  0.00    -0.323 N 
HETATM   16  O   UNL     1     -41.006  56.238 -50.969  1.00  0.00    -0.335 OA
HETATM   17  C   UNL     1     -41.682  58.075 -52.263  1.00  0.00     0.041 A 
HETATM   18  C   UNL     1     -40.893  54.820 -50.880  1.00  0.00     0.217 C 
HETATM   19  C   UNL     1     -40.636  54.002 -52.154  1.00  0.00     0.251 C 
HETATM   20  C   UNL     1     -42.151  54.285 -50.200  1.00  0.00     0.050 C 
HETATM   21  O   UNL     1     -40.218  52.845 -52.138  1.00  0.00    -0.270 OA
HETATM   22  C   UNL     1     -42.013  58.659 -53.489  1.00  0.00     0.032 A 
HETATM   23  H   UNL     1     -40.895  54.075 -54.174  1.00  0.00     0.169 HD
ENDBRANCH   6  11
BRANCH   8  24
HETATM   24  C   UNL     1     -44.640  57.242 -59.443  1.00  0.00     0.003 A 
HETATM   25  C   UNL     1     -45.932  56.927 -59.881  1.00  0.00     0.124 A 
HETATM   26  F   UNL     1     -46.886  57.869 -59.870  1.00  0.00    -0.205 F 
HETATM   27  C   UNL     1     -46.260  55.654 -60.340  1.00  0.00     0.043 A 
HETATM   28  C   UNL     1     -45.284  54.661 -60.375  1.00  0.00     0.003 A 
HETATM   29  C   UNL     1     -43.986  54.953 -59.956  1.00  0.00     0.001 A 
HETATM   30  C   UNL     1     -43.665  56.234 -59.496  1.00  0.00     0.012 A 
ENDBRANCH   8  24
TORSDOF 2
ENDMDL
MODEL 7
REMARK VINA RESULT:      -8.1      3.864      8.573
REMARK  2 active torsions:
REMARK  status: ('A' for Active; 'I' for Inactive)
REMARK       I    between atoms: N_4  and  C_5 
REMARK       I    between atoms: C_5  and  N_6 
REMARK    1  A    between atoms: N_6  and  C_7 
REMARK    2  A    between atoms: C_20  and  C_21 
ROOT
HETATM    1  C   UNL     1     -46.025  58.365 -56.863  1.00  0.00     0.011 C 
HETATM    2  C   UNL     1     -45.333  58.348 -55.511  1.00  0.00     0.002 C 
HETATM    3  C   UNL     1     -44.308  57.227 -55.370  1.00  0.00     0.132 C 
HETATM    4  N   UNL     1     -43.355  57.717 -54.382  1.00  0.00    -0.325 N 
HETATM    5  C   UNL     1     -42.362  57.000 -53.747  1.00  0.00     0.323 C 
HETATM    6  N   UNL     1     -42.255  55.693 -54.169  1.00  0.00    -0.309 N 
HETATM    7  O   UNL     1     -41.657  57.502 -52.875  1.00  0.00    -0.247 OA
HETATM    8  C   UNL     1     -43.535  59.150 -54.124  1.00  0.00     0.125 C 
HETATM    9  C   UNL     1     -44.490  59.598 -55.243  1.00  0.00     0.036 C 
HETATM   10  H   UNL     1     -42.482  55.531 -55.137  1.00  0.00     0.170 HD
ENDROOT
BRANCH   6  11
HETATM   11  C   UNL     1     -41.591  54.656 -53.485  1.00  0.00     0.038 A 
HETATM   12  C   UNL     1     -41.315  53.420 -54.077  1.00  0.00     0.062 A 
HETATM   13  C   UNL     1     -40.596  52.451 -53.374  1.00  0.00     0.070 A 
HETATM   14  C   UNL     1     -40.158  52.700 -52.075  1.00  0.00     0.096 A 
HETATM   15  N   UNL     1     -40.273  51.250 -54.006  1.00  0.00    -0.323 N 
HETATM   16  O   UNL     1     -39.425  51.816 -51.334  1.00  0.00    -0.335 OA
HETATM   17  C   UNL     1     -40.425  53.933 -51.483  1.00  0.00     0.041 A 
HETATM   18  C   UNL     1     -39.346  50.495 -51.863  1.00  0.00     0.217 C 
HETATM   19  C   UNL     1     -39.574  50.268 -53.365  1.00  0.00     0.251 C 
HETATM   20  C   UNL     1     -40.317  49.612 -51.082  1.00  0.00     0.050 C 
HETATM   21  O   UNL     1     -39.224  49.246 -53.952  1.00  0.00    -0.270 OA
HETATM   22  C   UNL     1     -41.132  54.912 -52.188  1.00  0.00     0.032 A 
HETATM   23  H   UNL     1     -40.506  51.095 -54.978  1.00  0.00     0.169 HD
ENDBRANCH   6  11
BRANCH   8  24
HETATM   24  C   UNL     1     -44.086  59.484 -52.751  1.00  0.00     0.003 A 
HETATM   25  C   UNL     1     -43.683  60.679 -52.143  1.00  0.00     0.124 A 
HETATM   26  F   UNL     1     -42.844  61.503 -52.789  1.00  0.00    -0.205 F 
HETATM   27  C   UNL     1     -44.136  61.048 -50.880  1.00  0.00     0.043 A 
HETATM   28  C   UNL     1     -45.018  60.218 -50.194  1.00  0.00     0.003 A 
HETATM   29  C   UNL     1     -45.444  59.027 -50.783  1.00  0.00     0.001 A 
HETATM   30  C   UNL     1     -44.985  58.663 -52.052  1.00  0.00     0.012 A 
ENDBRANCH   8  24
TORSDOF 2
ENDMDL
MODEL 8
REMARK VINA RESULT:      -8.0      2.430      4.008
REMARK  2 active torsions:
REMARK  status: ('A' for Active; 'I' for Inactive)
REMARK       I    between atoms: N_4  and  C_5 
REMARK       I    between atoms: C_5  and  N_6 
REMARK    1  A    between atoms: N_6  and  C_7 
REMARK    2  A    between atoms: C_20  and  C_21 
ROOT
HETATM    1  C   UNL     1     -40.425  52.752 -51.631  1.00  0.00     0.011 C 
HETATM    2  C   UNL     1     -40.973  54.128 -51.962  1.00  0.00     0.002 C 
HETATM    3  C   UNL     1     -41.440  54.262 -53.408  1.00  0.00     0.132 C 
HETATM    4  N   UNL     1     -42.455  55.308 -53.377  1.00  0.00    -0.325 N 
HETATM    5  C   UNL     1     -43.030  55.951 -54.453  1.00  0.00     0.323 C 
HETATM    6  N   UNL     1     -42.617  55.476 -55.678  1.00  0.00    -0.309 N 
HETATM    7  O   UNL     1     -43.830  56.872 -54.306  1.00  0.00    -0.247 OA
HETATM    8  C   UNL     1     -42.862  55.622 -52.003  1.00  0.00     0.125 C 
HETATM    9  C   UNL     1     -42.238  54.485 -51.175  1.00  0.00     0.036 C 
HETATM   10  H   UNL     1     -42.398  54.493 -55.710  1.00  0.00     0.170 HD
ENDROOT
BRANCH   6  11
HETATM   11  C   UNL     1     -42.759  56.140 -56.912  1.00  0.00     0.038 A 
HETATM   12  C   UNL     1     -42.376  57.472 -57.099  1.00  0.00     0.062 A 
HETATM   13  C   UNL     1     -42.479  58.060 -58.362  1.00  0.00     0.070 A 
HETATM   14  C   UNL     1     -42.974  57.332 -59.442  1.00  0.00     0.096 A 
HETATM   15  N   UNL     1     -42.030  59.368 -58.543  1.00  0.00    -0.323 N 
HETATM   16  O   UNL     1     -43.077  57.827 -60.712  1.00  0.00    -0.335 OA
HETATM   17  C   UNL     1     -43.351  56.003 -59.262  1.00  0.00     0.041 A 
HETATM   18  C   UNL     1     -42.895  59.235 -60.835  1.00  0.00     0.217 C 
HETATM   19  C   UNL     1     -42.109  59.992 -59.754  1.00  0.00     0.251 C 
HETATM   20  C   UNL     1     -44.271  59.880 -60.982  1.00  0.00     0.050 C 
HETATM   21  O   UNL     1     -41.640  61.116 -59.926  1.00  0.00    -0.270 OA
HETATM   22  C   UNL     1     -43.235  55.405 -58.004  1.00  0.00     0.032 A 
HETATM   23  H   UNL     1     -41.585  59.874 -57.788  1.00  0.00     0.169 HD
ENDBRANCH   6  11
BRANCH   8  24
HETATM   24  C   UNL     1     -42.421  56.984 -51.504  1.00  0.00     0.003 A 
HETATM   25  C   UNL     1     -43.392  57.980 -51.337  1.00  0.00     0.124 A 
HETATM   26  F   UNL     1     -44.678  57.704 -51.598  1.00  0.00    -0.205 F 
HETATM   27  C   UNL     1     -43.062  59.258 -50.896  1.00  0.00     0.043 A 
HETATM   28  C   UNL     1     -41.736  59.566 -50.604  1.00  0.00     0.003 A 
HETATM   29  C   UNL     1     -40.752  58.588 -50.751  1.00  0.00     0.001 A 
HETATM   30  C   UNL     1     -41.091  57.307 -51.194  1.00  0.00     0.012 A 
ENDBRANCH   8  24
TORSDOF 2
ENDMDL
MODEL 9
REMARK VINA RESULT:      -7.8      3.388      8.926
REMARK  2 active torsions:
REMARK  status: ('A' for Active; 'I' for Inactive)
REMARK       I    between atoms: N_4  and  C_5 
REMARK       I    between atoms: C_5  and  N_6 
REMARK    1  A    between atoms: N_6  and  C_7 
REMARK    2  A    between atoms: C_20  and  C_21 
ROOT
HETATM    1  C   UNL     1     -47.019  57.868 -60.620  1.00  0.00     0.011 C 
HETATM    2  C   UNL     1     -45.942  58.354 -59.667  1.00  0.00     0.002 C 
HETATM    3  C   UNL     1     -45.333  57.240 -58.822  1.00  0.00     0.132 C 
HETATM    4  N   UNL     1     -43.994  57.712 -58.493  1.00  0.00    -0.325 N 
HETATM    5  C   UNL     1     -43.117  57.172 -57.575  1.00  0.00     0.323 C 
HETATM    6  N   UNL     1     -43.573  56.022 -56.970  1.00  0.00    -0.309 N 
HETATM    7  O   UNL     1     -42.034  57.697 -57.328  1.00  0.00    -0.247 OA
HETATM    8  C   UNL     1     -43.620  58.878 -59.300  1.00  0.00     0.125 C 
HETATM    9  C   UNL     1     -44.716  58.933 -60.379  1.00  0.00     0.036 C 
HETATM   10  H   UNL     1     -44.161  55.436 -57.541  1.00  0.00     0.170 HD
ENDROOT
BRANCH   6  11
HETATM   11  C   UNL     1     -43.069  55.458 -55.782  1.00  0.00     0.038 A 
HETATM   12  C   UNL     1     -43.723  55.584 -54.552  1.00  0.00     0.062 A 
HETATM   13  C   UNL     1     -43.212  54.948 -53.419  1.00  0.00     0.070 A 
HETATM   14  C   UNL     1     -42.043  54.194 -53.498  1.00  0.00     0.096 A 
HETATM   15  N   UNL     1     -43.913  55.032 -52.216  1.00  0.00    -0.323 N 
HETATM   16  O   UNL     1     -41.498  53.518 -52.442  1.00  0.00    -0.335 OA
HETATM   17  C   UNL     1     -41.392  54.059 -54.723  1.00  0.00     0.041 A 
HETATM   18  C   UNL     1     -42.045  53.837 -51.165  1.00  0.00     0.217 C 
HETATM   19  C   UNL     1     -43.458  54.432 -51.077  1.00  0.00     0.251 C 
HETATM   20  C   UNL     1     -41.074  54.776 -50.454  1.00  0.00     0.050 C 
HETATM   21  O   UNL     1     -44.121  54.442 -50.041  1.00  0.00    -0.270 OA
HETATM   22  C   UNL     1     -41.908  54.681 -55.863  1.00  0.00     0.032 A 
HETATM   23  H   UNL     1     -44.809  55.500 -52.168  1.00  0.00     0.169 HD
ENDBRANCH   6  11
BRANCH   8  24
HETATM   24  C   UNL     1     -43.527  60.181 -58.530  1.00  0.00     0.003 A 
HETATM   25  C   UNL     1     -42.458  61.043 -58.805  1.00  0.00     0.124 A 
HETATM   26  F   UNL     1     -41.562  60.712 -59.746  1.00  0.00    -0.205 F 
HETATM   27  C   UNL     1     -42.298  62.250 -58.130  1.00  0.00     0.043 A 
HETATM   28  C   UNL     1     -43.223  62.625 -57.159  1.00  0.00     0.003 A 
HETATM   29  C   UNL     1     -44.303  61.789 -56.875  1.00  0.00     0.001 A 
HETATM   30  C   UNL     1     -44.457  60.578 -57.557  1.00  0.00     0.012 A 
ENDBRANCH   8  24
TORSDOF 2
ENDMDL
MODEL 10
REMARK VINA RESULT:      -7.7      2.618      4.040
REMARK  2 active torsions:
REMARK  status: ('A' for Active; 'I' for Inactive)
REMARK       I    between atoms: N_4  and  C_5 
REMARK       I    between atoms: C_5  and  N_6 
REMARK    1  A    between atoms: N_6  and  C_7 
REMARK    2  A    between atoms: C_20  and  C_21 
ROOT
HETATM    1  C   UNL     1     -40.139  52.239 -53.913  1.00  0.00     0.011 C 
HETATM    2  C   UNL     1     -40.648  53.669 -53.871  1.00  0.00     0.002 C 
HETATM    3  C   UNL     1     -41.504  54.042 -55.077  1.00  0.00     0.132 C 
HETATM    4  N   UNL     1     -42.377  55.106 -54.598  1.00  0.00    -0.325 N 
HETATM    5  C   UNL     1     -43.189  55.928 -55.353  1.00  0.00     0.323 C 
HETATM    6  N   UNL     1     -43.190  55.635 -56.698  1.00  0.00    -0.309 N 
HETATM    7  O   UNL     1     -43.833  56.843 -54.847  1.00  0.00    -0.247 OA
HETATM    8  C   UNL     1     -42.340  55.217 -53.136  1.00  0.00     0.125 C 
HETATM    9  C   UNL     1     -41.595  53.945 -52.699  1.00  0.00     0.036 C 
HETATM   10  H   UNL     1     -43.070  54.662 -56.930  1.00  0.00     0.170 HD
ENDROOT
BRANCH   6  11
HETATM   11  C   UNL     1     -43.633  56.488 -57.729  1.00  0.00     0.038 A 
HETATM   12  C   UNL     1     -44.359  57.656 -57.480  1.00  0.00     0.062 A 
HETATM   13  C   UNL     1     -44.715  58.498 -58.535  1.00  0.00     0.070 A 
HETATM   14  C   UNL     1     -44.363  58.178 -59.845  1.00  0.00     0.096 A 
HETATM   15  N   UNL     1     -45.381  59.692 -58.260  1.00  0.00    -0.323 N 
HETATM   16  O   UNL     1     -44.648  58.964 -60.926  1.00  0.00    -0.335 OA
HETATM   17  C   UNL     1     -43.634  57.017 -60.098  1.00  0.00     0.041 A 
HETATM   18  C   UNL     1     -45.571  60.023 -60.684  1.00  0.00     0.217 C 
HETATM   19  C   UNL     1     -45.756  60.551 -59.253  1.00  0.00     0.251 C 
HETATM   20  C   UNL     1     -46.933  59.601 -61.229  1.00  0.00     0.050 C 
HETATM   21  O   UNL     1     -46.271  61.637 -58.998  1.00  0.00    -0.270 OA
HETATM   22  C   UNL     1     -43.261  56.179 -59.043  1.00  0.00     0.032 A 
HETATM   23  H   UNL     1     -45.561  59.979 -57.306  1.00  0.00     0.169 HD
ENDBRANCH   6  11
BRANCH   8  24
HETATM   24  C   UNL     1     -41.664  56.469 -52.611  1.00  0.00     0.003 A 
HETATM   25  C   UNL     1     -41.892  56.842 -51.280  1.00  0.00     0.124 A 
HETATM   26  F   UNL     1     -42.677  56.082 -50.502  1.00  0.00    -0.205 F 
HETATM   27  C   UNL     1     -41.318  57.985 -50.731  1.00  0.00     0.043 A 
HETATM   28  C   UNL     1     -40.487  58.783 -51.513  1.00  0.00     0.003 A 
HETATM   29  C   UNL     1     -40.235  58.427 -52.837  1.00  0.00     0.001 A 
HETATM   30  C   UNL     1     -40.815  57.278 -53.382  1.00  0.00     0.012 A 
ENDBRANCH   8  24
TORSDOF 2
ENDMDL
