MODEL 1
REMARK VINA RESULT:      -8.6      0.000      0.000
REMARK  5 active torsions:
REMARK  status: ('A' for Active; 'I' for Inactive)
REMARK    1  A    between atoms: C_7  and  C_8 
REMARK    2  A    between atoms: C_16  and  C_17 
REMARK    3  A    between atoms: C_20  and  O_21 
REMARK    4  A    between atoms: C_24  and  C_25 
REMARK       I    between atoms: C_25  and  N_26 
REMARK    5  A    between atoms: N_26  and  C_27 
ROOT
HETATM    1  C   UNL     1     -43.154  55.400 -56.313  1.00  0.00     0.070 C 
HETATM    2  C   UNL     1     -43.267  56.505 -55.293  1.00  0.00     0.037 C 
HETATM    3  N   UNL     1     -43.776  57.714 -55.771  1.00  0.00    -0.192 N 
HETATM    4  C   UNL     1     -44.274  58.659 -54.946  1.00  0.00     0.726 A 
HETATM    5  N   UNL     1     -44.031  58.577 -53.605  1.00  0.00    -0.083 N 
HETATM    6  N   UNL     1     -44.734  59.498 -52.918  1.00  0.00    -0.135 NA
HETATM    7  C   UNL     1     -45.359  60.151 -53.914  1.00  0.00     0.199 A 
HETATM    8  N   UNL     1     -45.071  59.669 -55.181  1.00  0.00    -0.041 NA
HETATM    9  C   UNL     1     -43.247  57.505 -52.982  1.00  0.00     0.202 C 
HETATM   10  C   UNL     1     -42.998  56.369 -53.969  1.00  0.00     0.062 C 
HETATM   11  H   UNL     1     -44.095  57.728 -56.736  1.00  0.00     0.184 HD
ENDROOT
BRANCH  10  12
HETATM   12  C   UNL     1     -42.588  55.100 -53.312  1.00  0.00     0.256 C 
HETATM   13  N   UNL     1     -41.316  54.685 -53.634  1.00  0.00    -0.323 N 
HETATM   14  H   UNL     1     -40.771  55.289 -54.238  1.00  0.00     0.169 HD
HETATM   15  O   UNL     1     -43.371  54.569 -52.534  1.00  0.00    -0.267 OA
BRANCH  13  16
HETATM   16  C   UNL     1     -40.686  53.487 -53.233  1.00  0.00     0.035 A 
HETATM   17  C   UNL     1     -40.270  53.225 -51.926  1.00  0.00     0.029 A 
HETATM   18  C   UNL     1     -39.673  52.003 -51.600  1.00  0.00     0.002 A 
HETATM   19  C   UNL     1     -39.492  51.029 -52.578  1.00  0.00     0.000 A 
HETATM   20  C   UNL     1     -39.902  51.279 -53.884  1.00  0.00     0.002 A 
HETATM   21  C   UNL     1     -40.492  52.504 -54.211  1.00  0.00     0.029 A 
ENDBRANCH  13  16
ENDBRANCH  10  12
BRANCH   9  22
HETATM   22  C   UNL     1     -41.942  58.055 -52.412  1.00  0.00    -0.028 A 
HETATM   23  C   UNL     1     -40.902  58.417 -53.287  1.00  0.00     0.012 A 
HETATM   24  C   UNL     1     -39.705  58.944 -52.795  1.00  0.00     0.037 A 
HETATM   25  C   UNL     1     -39.545  59.117 -51.425  1.00  0.00     0.065 A 
HETATM   26  C   UNL     1     -40.560  58.777 -50.542  1.00  0.00     0.037 A 
HETATM   27  C   UNL     1     -41.757  58.250 -51.031  1.00  0.00     0.012 A 
BRANCH  25  28
HETATM   28  O   UNL     1     -38.393  59.626 -50.902  1.00  0.00    -0.361 OA
HETATM   29  H   UNL     1     -37.699  59.582 -51.581  1.00  0.00     0.217 HD
ENDBRANCH  25  28
ENDBRANCH   9  22
BRANCH   7  30
HETATM   30  C   UNL     1     -46.326  61.226 -53.695  1.00  0.00     0.014 A 
HETATM   31  C   UNL     1     -46.977  61.368 -52.460  1.00  0.00     0.017 A 
HETATM   32  C   UNL     1     -47.933  62.371 -52.269  1.00  0.00     0.025 A 
HETATM   33  C   UNL     1     -48.241  63.240 -53.312  1.00  0.00     0.034 A 
HETATM   34 CL   UNL     1     -49.426  64.467 -53.082  1.00  0.00    -0.084 Cl
HETATM   35  C   UNL     1     -47.601  63.119 -54.543  1.00  0.00     0.025 A 
HETATM   36  C   UNL     1     -46.645  62.115 -54.733  1.00  0.00     0.017 A 
ENDBRANCH   7  30
TORSDOF 5
ENDMDL
MODEL 2
REMARK VINA RESULT:      -8.6      5.026      8.668
REMARK  5 active torsions:
REMARK  status: ('A' for Active; 'I' for Inactive)
REMARK    1  A    between atoms: C_7  and  C_8 
REMARK    2  A    between atoms: C_16  and  C_17 
REMARK    3  A    between atoms: C_20  and  O_21 
REMARK    4  A    between atoms: C_24  and  C_25 
REMARK       I    between atoms: C_25  and  N_26 
REMARK    5  A    between atoms: N_26  and  C_27 
ROOT
HETATM    1  C   UNL     1     -44.554  57.884 -59.116  1.00  0.00     0.070 C 
HETATM    2  C   UNL     1     -43.932  57.799 -57.744  1.00  0.00     0.037 C 
HETATM    3  N   UNL     1     -44.046  56.561 -57.110  1.00  0.00    -0.192 N 
HETATM    4  C   UNL     1     -43.254  56.210 -56.075  1.00  0.00     0.726 A 
HETATM    5  N   UNL     1     -42.517  57.166 -55.437  1.00  0.00    -0.083 N 
HETATM    6  N   UNL     1     -41.666  56.623 -54.545  1.00  0.00    -0.135 NA
HETATM    7  C   UNL     1     -41.970  55.317 -54.653  1.00  0.00     0.199 A 
HETATM    8  N   UNL     1     -42.968  55.037 -55.572  1.00  0.00    -0.041 NA
HETATM    9  C   UNL     1     -42.524  58.585 -55.811  1.00  0.00     0.202 C 
HETATM   10  C   UNL     1     -43.219  58.791 -57.153  1.00  0.00     0.062 C 
HETATM   11  H   UNL     1     -44.466  55.807 -57.647  1.00  0.00     0.184 HD
ENDROOT
BRANCH  10  12
HETATM   12  C   UNL     1     -42.904  60.102 -57.781  1.00  0.00     0.256 C 
HETATM   13  N   UNL     1     -41.776  60.090 -58.571  1.00  0.00    -0.323 N 
HETATM   14  H   UNL     1     -41.301  59.203 -58.685  1.00  0.00     0.169 HD
HETATM   15  O   UNL     1     -43.668  61.038 -57.586  1.00  0.00    -0.267 OA
BRANCH  13  16
HETATM   16  C   UNL     1     -41.187  61.193 -59.226  1.00  0.00     0.035 A 
HETATM   17  C   UNL     1     -40.350  62.117 -58.597  1.00  0.00     0.029 A 
HETATM   18  C   UNL     1     -39.786  63.173 -59.320  1.00  0.00     0.002 A 
HETATM   19  C   UNL     1     -40.049  63.311 -60.680  1.00  0.00     0.000 A 
HETATM   20  C   UNL     1     -40.883  62.397 -61.317  1.00  0.00     0.002 A 
HETATM   21  C   UNL     1     -41.453  61.346 -60.593  1.00  0.00     0.029 A 
ENDBRANCH  13  16
ENDBRANCH  10  12
BRANCH   9  22
HETATM   22  C   UNL     1     -43.163  59.428 -54.709  1.00  0.00    -0.028 A 
HETATM   23  C   UNL     1     -42.385  60.377 -54.023  1.00  0.00     0.012 A 
HETATM   24  C   UNL     1     -42.949  61.178 -53.026  1.00  0.00     0.037 A 
HETATM   25  C   UNL     1     -44.297  61.037 -52.716  1.00  0.00     0.065 A 
HETATM   26  C   UNL     1     -45.087  60.114 -53.386  1.00  0.00     0.037 A 
HETATM   27  C   UNL     1     -44.527  59.313 -54.381  1.00  0.00     0.012 A 
BRANCH  25  28
HETATM   28  O   UNL     1     -44.887  61.796 -51.749  1.00  0.00    -0.361 OA
HETATM   29  H   UNL     1     -44.370  62.611 -51.636  1.00  0.00     0.217 HD
ENDBRANCH  25  28
ENDBRANCH   9  22
BRANCH   7  30
HETATM   30  C   UNL     1     -41.263  54.260 -53.931  1.00  0.00     0.014 A 
HETATM   31  C   UNL     1     -40.672  53.189 -54.619  1.00  0.00     0.017 A 
HETATM   32  C   UNL     1     -40.035  52.158 -53.922  1.00  0.00     0.025 A 
HETATM   33  C   UNL     1     -39.982  52.194 -52.530  1.00  0.00     0.034 A 
HETATM   34 CL   UNL     1     -39.208  50.920 -51.671  1.00  0.00    -0.084 Cl
HETATM   35  C   UNL     1     -40.557  53.252 -51.830  1.00  0.00     0.025 A 
HETATM   36  C   UNL     1     -41.195  54.282 -52.529  1.00  0.00     0.017 A 
ENDBRANCH   7  30
TORSDOF 5
ENDMDL
MODEL 3
REMARK VINA RESULT:      -8.3      3.480      4.653
REMARK  5 active torsions:
REMARK  status: ('A' for Active; 'I' for Inactive)
REMARK    1  A    between atoms: C_7  and  C_8 
REMARK    2  A    between atoms: C_16  and  C_17 
REMARK    3  A    between atoms: C_20  and  O_21 
REMARK    4  A    between atoms: C_24  and  C_25 
REMARK       I    between atoms: C_25  and  N_26 
REMARK    5  A    between atoms: N_26  and  C_27 
ROOT
HETATM    1  C   UNL     1     -40.599  54.333 -55.285  1.00  0.00     0.070 C 
HETATM    2  C   UNL     1     -41.658  55.406 -55.324  1.00  0.00     0.037 C 
HETATM    3  N   UNL     1     -41.833  56.032 -56.559  1.00  0.00    -0.192 N 
HETATM    4  C   UNL     1     -42.949  56.729 -56.859  1.00  0.00     0.726 A 
HETATM    5  N   UNL     1     -43.812  57.079 -55.860  1.00  0.00    -0.083 N 
HETATM    6  N   UNL     1     -44.944  57.619 -56.350  1.00  0.00    -0.135 NA
HETATM    7  C   UNL     1     -44.688  57.614 -57.672  1.00  0.00     0.199 A 
HETATM    8  N   UNL     1     -43.450  57.093 -58.010  1.00  0.00    -0.041 NA
HETATM    9  C   UNL     1     -43.605  56.741 -54.448  1.00  0.00     0.202 C 
HETATM   10  C   UNL     1     -42.481  55.722 -54.291  1.00  0.00     0.062 C 
HETATM   11  H   UNL     1     -41.292  55.668 -57.339  1.00  0.00     0.184 HD
ENDROOT
BRANCH  10  12
HETATM   12  C   UNL     1     -42.493  55.033 -52.973  1.00  0.00     0.256 C 
HETATM   13  N   UNL     1     -41.400  55.311 -52.184  1.00  0.00    -0.323 N 
HETATM   14  H   UNL     1     -40.727  55.976 -52.544  1.00  0.00     0.169 HD
HETATM   15  O   UNL     1     -43.458  54.334 -52.692  1.00  0.00    -0.267 OA
BRANCH  13  16
HETATM   16  C   UNL     1     -41.097  54.746 -50.926  1.00  0.00     0.035 A 
HETATM   17  C   UNL     1     -41.232  55.426 -49.714  1.00  0.00     0.029 A 
HETATM   18  C   UNL     1     -40.933  54.790 -48.504  1.00  0.00     0.002 A 
HETATM   19  C   UNL     1     -40.500  53.467 -48.496  1.00  0.00     0.000 A 
HETATM   20  C   UNL     1     -40.361  52.780 -49.698  1.00  0.00     0.002 A 
HETATM   21  C   UNL     1     -40.653  53.418 -50.908  1.00  0.00     0.029 A 
ENDBRANCH  13  16
ENDBRANCH  10  12
BRANCH   9  22
HETATM   22  C   UNL     1     -43.343  58.001 -53.626  1.00  0.00    -0.028 A 
HETATM   23  C   UNL     1     -44.251  58.373 -52.618  1.00  0.00     0.012 A 
HETATM   24  C   UNL     1     -44.024  59.509 -51.836  1.00  0.00     0.037 A 
HETATM   25  C   UNL     1     -42.885  60.274 -52.054  1.00  0.00     0.065 A 
HETATM   26  C   UNL     1     -41.969  59.922 -53.035  1.00  0.00     0.037 A 
HETATM   27  C   UNL     1     -42.193  58.789 -53.818  1.00  0.00     0.012 A 
BRANCH  25  28
HETATM   28  O   UNL     1     -42.626  61.391 -51.315  1.00  0.00    -0.361 OA
HETATM   29  H   UNL     1     -41.664  61.499 -51.244  1.00  0.00     0.217 HD
ENDBRANCH  25  28
ENDBRANCH   9  22
BRANCH   7  30
HETATM   30  C   UNL     1     -45.652  58.041 -58.684  1.00  0.00     0.014 A 
HETATM   31  C   UNL     1     -46.237  57.112 -59.559  1.00  0.00     0.017 A 
HETATM   32  C   UNL     1     -47.126  57.530 -60.553  1.00  0.00     0.025 A 
HETATM   33  C   UNL     1     -47.439  58.882 -60.678  1.00  0.00     0.034 A 
HETATM   34 CL   UNL     1     -48.523  59.399 -61.909  1.00  0.00    -0.084 Cl
HETATM   35  C   UNL     1     -46.873  59.818 -59.815  1.00  0.00     0.025 A 
HETATM   36  C   UNL     1     -45.984  59.398 -58.821  1.00  0.00     0.017 A 
ENDBRANCH   7  30
TORSDOF 5
ENDMDL
MODEL 4
REMARK VINA RESULT:      -8.2      4.658      8.983
REMARK  5 active torsions:
REMARK  status: ('A' for Active; 'I' for Inactive)
REMARK    1  A    between atoms: C_7  and  C_8 
REMARK    2  A    between atoms: C_16  and  C_17 
REMARK    3  A    between atoms: C_20  and  O_21 
REMARK    4  A    between atoms: C_24  and  C_25 
REMARK       I    between atoms: C_25  and  N_26 
REMARK    5  A    between atoms: N_26  and  C_27 
ROOT
HETATM    1  C   UNL     1     -44.026  56.190 -59.314  1.00  0.00     0.070 C 
HETATM    2  C   UNL     1     -43.402  56.255 -57.942  1.00  0.00     0.037 C 
HETATM    3  N   UNL     1     -43.569  55.116 -57.152  1.00  0.00    -0.192 N 
HETATM    4  C   UNL     1     -42.789  54.866 -56.079  1.00  0.00     0.726 A 
HETATM    5  N   UNL     1     -42.006  55.863 -55.570  1.00  0.00    -0.083 N 
HETATM    6  N   UNL     1     -41.177  55.401 -54.615  1.00  0.00    -0.135 NA
HETATM    7  C   UNL     1     -41.540  54.107 -54.552  1.00  0.00     0.199 A 
HETATM    8  N   UNL     1     -42.554  53.757 -55.429  1.00  0.00    -0.041 NA
HETATM    9  C   UNL     1     -41.951  57.220 -56.124  1.00  0.00     0.202 C 
HETATM   10  C   UNL     1     -42.642  57.282 -57.483  1.00  0.00     0.062 C 
HETATM   11  H   UNL     1     -44.025  54.318 -57.588  1.00  0.00     0.184 HD
ENDROOT
BRANCH  10  12
HETATM   12  C   UNL     1     -42.272  58.485 -58.275  1.00  0.00     0.256 C 
HETATM   13  N   UNL     1     -43.149  59.537 -58.142  1.00  0.00    -0.323 N 
HETATM   14  H   UNL     1     -43.922  59.417 -57.499  1.00  0.00     0.169 HD
HETATM   15  O   UNL     1     -41.233  58.456 -58.924  1.00  0.00    -0.267 OA
BRANCH  13  16
HETATM   16  C   UNL     1     -43.105  60.770 -58.828  1.00  0.00     0.035 A 
HETATM   17  C   UNL     1     -42.405  61.890 -58.374  1.00  0.00     0.029 A 
HETATM   18  C   UNL     1     -42.390  63.072 -59.123  1.00  0.00     0.002 A 
HETATM   19  C   UNL     1     -43.070  63.142 -60.334  1.00  0.00     0.000 A 
HETATM   20  C   UNL     1     -43.772  62.032 -60.797  1.00  0.00     0.002 A 
HETATM   21  C   UNL     1     -43.793  60.854 -60.045  1.00  0.00     0.029 A 
ENDBRANCH  13  16
ENDBRANCH  10  12
BRANCH   9  22
HETATM   22  C   UNL     1     -42.547  58.226 -55.142  1.00  0.00    -0.028 A 
HETATM   23  C   UNL     1     -43.868  58.057 -54.692  1.00  0.00     0.012 A 
HETATM   24  C   UNL     1     -44.431  58.950 -53.776  1.00  0.00     0.037 A 
HETATM   25  C   UNL     1     -43.672  60.013 -53.301  1.00  0.00     0.065 A 
HETATM   26  C   UNL     1     -42.362  60.195 -53.722  1.00  0.00     0.037 A 
HETATM   27  C   UNL     1     -41.798  59.306 -54.637  1.00  0.00     0.012 A 
BRANCH  25  28
HETATM   28  O   UNL     1     -44.183  60.908 -52.408  1.00  0.00    -0.361 OA
HETATM   29  H   UNL     1     -44.945  60.502 -51.964  1.00  0.00     0.217 HD
ENDBRANCH  25  28
ENDBRANCH   9  22
BRANCH   7  30
HETATM   30  C   UNL     1     -40.879  53.122 -53.699  1.00  0.00     0.014 A 
HETATM   31  C   UNL     1     -40.386  51.921 -54.233  1.00  0.00     0.017 A 
HETATM   32  C   UNL     1     -39.792  50.962 -53.406  1.00  0.00     0.025 A 
HETATM   33  C   UNL     1     -39.686  51.200 -52.038  1.00  0.00     0.034 A 
HETATM   34 CL   UNL     1     -38.967  50.016 -51.018  1.00  0.00    -0.084 Cl
HETATM   35  C   UNL     1     -40.163  52.389 -51.490  1.00  0.00     0.025 A 
HETATM   36  C   UNL     1     -40.757  53.346 -52.319  1.00  0.00     0.017 A 
ENDBRANCH   7  30
TORSDOF 5
ENDMDL
MODEL 5
REMARK VINA RESULT:      -8.2      1.846      2.457
REMARK  5 active torsions:
REMARK  status: ('A' for Active; 'I' for Inactive)
REMARK    1  A    between atoms: C_7  and  C_8 
REMARK    2  A    between atoms: C_16  and  C_17 
REMARK    3  A    between atoms: C_20  and  O_21 
REMARK    4  A    between atoms: C_24  and  C_25 
REMARK       I    between atoms: C_25  and  N_26 
REMARK    5  A    between atoms: N_26  and  C_27 
ROOT
HETATM    1  C   UNL     1     -44.749  56.245 -54.871  1.00  0.00     0.070 C 
HETATM    2  C   UNL     1     -44.353  57.185 -53.759  1.00  0.00     0.037 C 
HETATM    3  N   UNL     1     -44.922  58.458 -53.819  1.00  0.00    -0.192 N 
HETATM    4  C   UNL     1     -44.970  59.274 -52.744  1.00  0.00     0.726 A 
HETATM    5  N   UNL     1     -44.207  58.988 -51.648  1.00  0.00    -0.083 N 
HETATM    6  N   UNL     1     -44.498  59.803 -50.617  1.00  0.00    -0.135 NA
HETATM    7  C   UNL     1     -45.426  60.607 -51.168  1.00  0.00     0.199 A 
HETATM    8  N   UNL     1     -45.716  60.318 -52.492  1.00  0.00    -0.041 NA
HETATM    9  C   UNL     1     -43.318  57.825 -51.555  1.00  0.00     0.202 C 
HETATM   10  C   UNL     1     -43.578  56.848 -52.697  1.00  0.00     0.062 C 
HETATM   11  H   UNL     1     -45.606  58.622 -54.554  1.00  0.00     0.184 HD
ENDROOT
BRANCH  10  12
HETATM   12  C   UNL     1     -43.030  55.489 -52.443  1.00  0.00     0.256 C 
HETATM   13  N   UNL     1     -41.907  55.189 -53.181  1.00  0.00    -0.323 N 
HETATM   14  H   UNL     1     -41.539  55.917 -53.780  1.00  0.00     0.169 HD
HETATM   15  O   UNL     1     -43.577  54.790 -51.599  1.00  0.00    -0.267 OA
BRANCH  13  16
HETATM   16  C   UNL     1     -41.218  53.957 -53.214  1.00  0.00     0.035 A 
HETATM   17  C   UNL     1     -41.149  53.132 -54.338  1.00  0.00     0.029 A 
HETATM   18  C   UNL     1     -40.426  51.935 -54.300  1.00  0.00     0.002 A 
HETATM   19  C   UNL     1     -39.761  51.556 -53.138  1.00  0.00     0.000 A 
HETATM   20  C   UNL     1     -39.823  52.370 -52.010  1.00  0.00     0.002 A 
HETATM   21  C   UNL     1     -40.552  53.562 -52.047  1.00  0.00     0.029 A 
ENDBRANCH  13  16
ENDBRANCH  10  12
BRANCH   9  22
HETATM   22  C   UNL     1     -41.857  58.266 -51.510  1.00  0.00    -0.028 A 
HETATM   23  C   UNL     1     -41.187  58.566 -52.710  1.00  0.00     0.012 A 
HETATM   24  C   UNL     1     -39.857  58.995 -52.697  1.00  0.00     0.037 A 
HETATM   25  C   UNL     1     -39.193  59.131 -51.484  1.00  0.00     0.065 A 
HETATM   26  C   UNL     1     -39.835  58.850 -50.287  1.00  0.00     0.037 A 
HETATM   27  C   UNL     1     -41.164  58.422 -50.296  1.00  0.00     0.012 A 
BRANCH  25  28
HETATM   28  O   UNL     1     -37.894  59.543 -51.427  1.00  0.00    -0.361 OA
HETATM   29  H   UNL     1     -37.544  59.590 -52.332  1.00  0.00     0.217 HD
ENDBRANCH  25  28
ENDBRANCH   9  22
BRANCH   7  30
HETATM   30  C   UNL     1     -46.137  61.648 -50.429  1.00  0.00     0.014 A 
HETATM   31  C   UNL     1     -46.005  61.759 -49.035  1.00  0.00     0.017 A 
HETATM   32  C   UNL     1     -46.720  62.729 -48.326  1.00  0.00     0.025 A 
HETATM   33  C   UNL     1     -47.571  63.596 -49.007  1.00  0.00     0.034 A 
HETATM   34 CL   UNL     1     -48.461  64.782 -48.134  1.00  0.00    -0.084 Cl
HETATM   35  C   UNL     1     -47.710  63.506 -50.390  1.00  0.00     0.025 A 
HETATM   36  C   UNL     1     -46.994  62.535 -51.098  1.00  0.00     0.017 A 
ENDBRANCH   7  30
TORSDOF 5
ENDMDL
MODEL 6
REMARK VINA RESULT:      -8.1      3.937      9.295
REMARK  5 active torsions:
REMARK  status: ('A' for Active; 'I' for Inactive)
REMARK    1  A    between atoms: C_7  and  C_8 
REMARK    2  A    between atoms: C_16  and  C_17 
REMARK    3  A    between atoms: C_20  and  O_21 
REMARK    4  A    between atoms: C_24  and  C_25 
REMARK       I    between atoms: C_25  and  N_26 
REMARK    5  A    between atoms: N_26  and  C_27 
ROOT
HETATM    1  C   UNL     1     -42.754  60.493 -50.063  1.00  0.00     0.070 C 
HETATM    2  C   UNL     1     -42.924  59.441 -51.130  1.00  0.00     0.037 C 
HETATM    3  N   UNL     1     -41.786  58.682 -51.411  1.00  0.00    -0.192 N 
HETATM    4  C   UNL     1     -41.855  57.495 -52.049  1.00  0.00     0.726 A 
HETATM    5  N   UNL     1     -43.008  57.141 -52.690  1.00  0.00    -0.083 N 
HETATM    6  N   UNL     1     -42.961  55.869 -53.128  1.00  0.00    -0.135 NA
HETATM    7  C   UNL     1     -41.717  55.508 -52.759  1.00  0.00     0.199 A 
HETATM    8  N   UNL     1     -41.003  56.505 -52.115  1.00  0.00    -0.041 NA
HETATM    9  C   UNL     1     -44.208  57.984 -52.732  1.00  0.00     0.202 C 
HETATM   10  C   UNL     1     -44.096  59.141 -51.745  1.00  0.00     0.062 C 
HETATM   11  H   UNL     1     -40.969  58.848 -50.829  1.00  0.00     0.184 HD
ENDROOT
BRANCH  10  12
HETATM   12  C   UNL     1     -45.405  59.775 -51.433  1.00  0.00     0.256 C 
HETATM   13  N   UNL     1     -45.585  61.008 -52.018  1.00  0.00    -0.323 N 
HETATM   14  H   UNL     1     -44.849  61.343 -52.627  1.00  0.00     0.169 HD
HETATM   15  O   UNL     1     -46.202  59.153 -50.742  1.00  0.00    -0.267 OA
BRANCH  13  16
HETATM   16  C   UNL     1     -46.682  61.878 -51.841  1.00  0.00     0.035 A 
HETATM   17  C   UNL     1     -47.766  61.954 -52.719  1.00  0.00     0.029 A 
HETATM   18  C   UNL     1     -48.829  62.827 -52.463  1.00  0.00     0.002 A 
HETATM   19  C   UNL     1     -48.819  63.628 -51.325  1.00  0.00     0.000 A 
HETATM   20  C   UNL     1     -47.744  63.562 -50.444  1.00  0.00     0.002 A 
HETATM   21  C   UNL     1     -46.679  62.695 -50.703  1.00  0.00     0.029 A 
ENDBRANCH  13  16
ENDBRANCH  10  12
BRANCH   9  22
HETATM   22  C   UNL     1     -44.469  58.477 -54.154  1.00  0.00    -0.028 A 
HETATM   23  C   UNL     1     -43.698  59.532 -54.673  1.00  0.00     0.012 A 
HETATM   24  C   UNL     1     -43.899  59.989 -55.978  1.00  0.00     0.037 A 
HETATM   25  C   UNL     1     -44.870  59.389 -56.772  1.00  0.00     0.065 A 
HETATM   26  C   UNL     1     -45.637  58.340 -56.285  1.00  0.00     0.037 A 
HETATM   27  C   UNL     1     -45.438  57.881 -54.982  1.00  0.00     0.012 A 
BRANCH  25  28
HETATM   28  O   UNL     1     -45.100  59.805 -58.050  1.00  0.00    -0.361 OA
HETATM   29  H   UNL     1     -45.825  59.275 -58.422  1.00  0.00     0.217 HD
ENDBRANCH  25  28
ENDBRANCH   9  22
BRANCH   7  30
HETATM   30  C   UNL     1     -41.178  54.162 -52.942  1.00  0.00     0.014 A 
HETATM   31  C   UNL     1     -40.436  53.540 -51.925  1.00  0.00     0.017 A 
HETATM   32  C   UNL     1     -39.886  52.269 -52.119  1.00  0.00     0.025 A 
HETATM   33  C   UNL     1     -40.075  51.612 -53.332  1.00  0.00     0.034 A 
HETATM   34 CL   UNL     1     -39.388  50.053 -53.576  1.00  0.00    -0.084 Cl
HETATM   35  C   UNL     1     -40.814  52.210 -54.350  1.00  0.00     0.025 A 
HETATM   36  C   UNL     1     -41.364  53.481 -54.154  1.00  0.00     0.017 A 
ENDBRANCH   7  30
TORSDOF 5
ENDMDL
MODEL 7
REMARK VINA RESULT:      -8.0      4.211      8.894
REMARK  5 active torsions:
REMARK  status: ('A' for Active; 'I' for Inactive)
REMARK    1  A    between atoms: C_7  and  C_8 
REMARK    2  A    between atoms: C_16  and  C_17 
REMARK    3  A    between atoms: C_20  and  O_21 
REMARK    4  A    between atoms: C_24  and  C_25 
REMARK       I    between atoms: C_25  and  N_26 
REMARK    5  A    between atoms: N_26  and  C_27 
ROOT
HETATM    1  C   UNL     1     -43.724  57.588 -57.787  1.00  0.00     0.070 C 
HETATM    2  C   UNL     1     -43.327  57.244 -56.374  1.00  0.00     0.037 C 
HETATM    3  N   UNL     1     -43.371  55.887 -56.052  1.00  0.00    -0.192 N 
HETATM    4  C   UNL     1     -42.717  55.381 -54.985  1.00  0.00     0.726 A 
HETATM    5  N   UNL     1     -42.231  56.227 -54.030  1.00  0.00    -0.083 N 
HETATM    6  N   UNL     1     -41.469  55.575 -53.131  1.00  0.00    -0.135 NA
HETATM    7  C   UNL     1     -41.569  54.307 -53.571  1.00  0.00     0.199 A 
HETATM    8  N   UNL     1     -42.357  54.156 -54.701  1.00  0.00    -0.041 NA
HETATM    9  C   UNL     1     -42.372  57.686 -54.086  1.00  0.00     0.202 C 
HETATM   10  C   UNL     1     -42.862  58.134 -55.460  1.00  0.00     0.062 C 
HETATM   11  H   UNL     1     -43.591  55.243 -56.807  1.00  0.00     0.184 HD
ENDROOT
BRANCH  10  12
HETATM   12  C   UNL     1     -42.633  59.579 -55.722  1.00  0.00     0.256 C 
HETATM   13  N   UNL     1     -43.774  60.348 -55.666  1.00  0.00    -0.323 N 
HETATM   14  H   UNL     1     -44.635  59.880 -55.413  1.00  0.00     0.169 HD
HETATM   15  O   UNL     1     -41.486  59.960 -55.918  1.00  0.00    -0.267 OA
BRANCH  13  16
HETATM   16  C   UNL     1     -43.882  61.727 -55.948  1.00  0.00     0.035 A 
HETATM   17  C   UNL     1     -43.796  62.730 -54.980  1.00  0.00     0.029 A 
HETATM   18  C   UNL     1     -43.890  64.078 -55.341  1.00  0.00     0.002 A 
HETATM   19  C   UNL     1     -44.067  64.435 -56.675  1.00  0.00     0.000 A 
HETATM   20  C   UNL     1     -44.155  63.444 -57.648  1.00  0.00     0.002 A 
HETATM   21  C   UNL     1     -44.068  62.097 -57.286  1.00  0.00     0.029 A 
ENDBRANCH  13  16
ENDBRANCH  10  12
BRANCH   9  22
HETATM   22  C   UNL     1     -43.291  58.181 -52.971  1.00  0.00    -0.028 A 
HETATM   23  C   UNL     1     -42.944  59.335 -52.247  1.00  0.00     0.012 A 
HETATM   24  C   UNL     1     -43.777  59.823 -51.237  1.00  0.00     0.037 A 
HETATM   25  C   UNL     1     -44.965  59.160 -50.950  1.00  0.00     0.065 A 
HETATM   26  C   UNL     1     -45.334  58.025 -51.657  1.00  0.00     0.037 A 
HETATM   27  C   UNL     1     -44.504  57.535 -52.666  1.00  0.00     0.012 A 
BRANCH  25  28
HETATM   28  O   UNL     1     -45.805  59.601 -49.971  1.00  0.00    -0.361 OA
HETATM   29  H   UNL     1     -45.938  60.557 -50.083  1.00  0.00     0.217 HD
ENDBRANCH  25  28
ENDBRANCH   9  22
BRANCH   7  30
HETATM   30  C   UNL     1     -40.850  53.184 -52.972  1.00  0.00     0.014 A 
HETATM   31  C   UNL     1     -40.383  52.123 -53.764  1.00  0.00     0.017 A 
HETATM   32  C   UNL     1     -39.734  51.030 -53.181  1.00  0.00     0.025 A 
HETATM   33  C   UNL     1     -39.546  50.993 -51.802  1.00  0.00     0.034 A 
HETATM   34 CL   UNL     1     -38.758  49.643 -51.082  1.00  0.00    -0.084 Cl
HETATM   35  C   UNL     1     -39.997  52.039 -51.000  1.00  0.00     0.025 A 
HETATM   36  C   UNL     1     -40.646  53.131 -51.584  1.00  0.00     0.017 A 
ENDBRANCH   7  30
TORSDOF 5
ENDMDL
MODEL 8
REMARK VINA RESULT:      -8.0      3.893      8.586
REMARK  5 active torsions:
REMARK  status: ('A' for Active; 'I' for Inactive)
REMARK    1  A    between atoms: C_7  and  C_8 
REMARK    2  A    between atoms: C_16  and  C_17 
REMARK    3  A    between atoms: C_20  and  O_21 
REMARK    4  A    between atoms: C_24  and  C_25 
REMARK       I    between atoms: C_25  and  N_26 
REMARK    5  A    between atoms: N_26  and  C_27 
ROOT
HETATM    1  C   UNL     1     -45.544  58.455 -50.984  1.00  0.00     0.070 C 
HETATM    2  C   UNL     1     -44.156  57.966 -51.311  1.00  0.00     0.037 C 
HETATM    3  N   UNL     1     -43.876  56.653 -50.928  1.00  0.00    -0.192 N 
HETATM    4  C   UNL     1     -42.848  55.955 -51.455  1.00  0.00     0.726 A 
HETATM    5  N   UNL     1     -41.883  56.611 -52.164  1.00  0.00    -0.083 N 
HETATM    6  N   UNL     1     -41.030  55.751 -52.753  1.00  0.00    -0.135 NA
HETATM    7  C   UNL     1     -41.507  54.568 -52.320  1.00  0.00     0.199 A 
HETATM    8  N   UNL     1     -42.614  54.669 -51.494  1.00  0.00    -0.041 NA
HETATM    9  C   UNL     1     -41.888  58.059 -52.401  1.00  0.00     0.202 C 
HETATM   10  C   UNL     1     -43.229  58.670 -52.010  1.00  0.00     0.062 C 
HETATM   11  H   UNL     1     -44.644  56.116 -50.532  1.00  0.00     0.184 HD
ENDROOT
BRANCH  10  12
HETATM   12  C   UNL     1     -43.453  60.018 -52.597  1.00  0.00     0.256 C 
HETATM   13  N   UNL     1     -43.857  59.998 -53.913  1.00  0.00    -0.323 N 
HETATM   14  H   UNL     1     -44.006  59.091 -54.337  1.00  0.00     0.169 HD
HETATM   15  O   UNL     1     -43.305  60.997 -51.877  1.00  0.00    -0.267 OA
BRANCH  13  16
HETATM   16  C   UNL     1     -44.067  61.113 -54.753  1.00  0.00     0.035 A 
HETATM   17  C   UNL     1     -45.208  61.917 -54.711  1.00  0.00     0.029 A 
HETATM   18  C   UNL     1     -45.332  63.021 -55.562  1.00  0.00     0.002 A 
HETATM   19  C   UNL     1     -44.315  63.332 -56.459  1.00  0.00     0.000 A 
HETATM   20  C   UNL     1     -43.173  62.537 -56.510  1.00  0.00     0.002 A 
HETATM   21  C   UNL     1     -43.052  61.430 -55.665  1.00  0.00     0.029 A 
ENDBRANCH  13  16
ENDBRANCH  10  12
BRANCH   9  22
HETATM   22  C   UNL     1     -40.728  58.727 -51.666  1.00  0.00    -0.028 A 
HETATM   23  C   UNL     1     -40.905  59.159 -50.339  1.00  0.00     0.012 A 
HETATM   24  C   UNL     1     -39.854  59.753 -49.635  1.00  0.00     0.037 A 
HETATM   25  C   UNL     1     -38.619  59.913 -50.253  1.00  0.00     0.065 A 
HETATM   26  C   UNL     1     -38.418  59.487 -51.558  1.00  0.00     0.037 A 
HETATM   27  C   UNL     1     -39.465  58.893 -52.264  1.00  0.00     0.012 A 
BRANCH  25  28
HETATM   28  O   UNL     1     -37.568  60.490 -49.603  1.00  0.00    -0.361 OA
HETATM   29  H   UNL     1     -36.837  59.852 -49.571  1.00  0.00     0.217 HD
ENDBRANCH  25  28
ENDBRANCH   9  22
BRANCH   7  30
HETATM   30  C   UNL     1     -40.967  53.277 -52.740  1.00  0.00     0.014 A 
HETATM   31  C   UNL     1     -40.125  52.539 -51.893  1.00  0.00     0.017 A 
HETATM   32  C   UNL     1     -39.576  51.324 -52.315  1.00  0.00     0.025 A 
HETATM   33  C   UNL     1     -39.869  50.837 -53.587  1.00  0.00     0.034 A 
HETATM   34 CL   UNL     1     -39.185  49.348 -54.111  1.00  0.00    -0.084 Cl
HETATM   35  C   UNL     1     -40.708  51.552 -54.439  1.00  0.00     0.025 A 
HETATM   36  C   UNL     1     -41.256  52.767 -54.015  1.00  0.00     0.017 A 
ENDBRANCH   7  30
TORSDOF 5
ENDMDL
MODEL 9
REMARK VINA RESULT:      -8.0      3.963      8.841
REMARK  5 active torsions:
REMARK  status: ('A' for Active; 'I' for Inactive)
REMARK    1  A    between atoms: C_7  and  C_8 
REMARK    2  A    between atoms: C_16  and  C_17 
REMARK    3  A    between atoms: C_20  and  O_21 
REMARK    4  A    between atoms: C_24  and  C_25 
REMARK       I    between atoms: C_25  and  N_26 
REMARK    5  A    between atoms: N_26  and  C_27 
ROOT
HETATM    1  C   UNL     1     -45.611  58.246 -50.963  1.00  0.00     0.070 C 
HETATM    2  C   UNL     1     -44.214  57.782 -51.291  1.00  0.00     0.037 C 
HETATM    3  N   UNL     1     -43.914  56.471 -50.919  1.00  0.00    -0.192 N 
HETATM    4  C   UNL     1     -42.873  55.795 -51.449  1.00  0.00     0.726 A 
HETATM    5  N   UNL     1     -41.917  56.473 -52.148  1.00  0.00    -0.083 N 
HETATM    6  N   UNL     1     -41.048  55.633 -52.742  1.00  0.00    -0.135 NA
HETATM    7  C   UNL     1     -41.507  54.439 -52.323  1.00  0.00     0.199 A 
HETATM    8  N   UNL     1     -42.618  54.513 -51.499  1.00  0.00    -0.041 NA
HETATM    9  C   UNL     1     -41.944  57.923 -52.372  1.00  0.00     0.202 C 
HETATM   10  C   UNL     1     -43.297  58.508 -51.980  1.00  0.00     0.062 C 
HETATM   11  H   UNL     1     -44.675  55.918 -50.531  1.00  0.00     0.184 HD
ENDROOT
BRANCH  10  12
HETATM   12  C   UNL     1     -43.541  59.858 -52.555  1.00  0.00     0.256 C 
HETATM   13  N   UNL     1     -43.840  60.822 -51.619  1.00  0.00    -0.323 N 
HETATM   14  H   UNL     1     -43.824  60.542 -50.646  1.00  0.00     0.169 HD
HETATM   15  O   UNL     1     -43.419  60.005 -53.765  1.00  0.00    -0.267 OA
BRANCH  13  16
HETATM   16  C   UNL     1     -44.196  62.165 -51.868  1.00  0.00     0.035 A 
HETATM   17  C   UNL     1     -43.273  63.205 -51.992  1.00  0.00     0.029 A 
HETATM   18  C   UNL     1     -43.702  64.509 -52.262  1.00  0.00     0.002 A 
HETATM   19  C   UNL     1     -45.058  64.782 -52.416  1.00  0.00     0.000 A 
HETATM   20  C   UNL     1     -45.987  63.754 -52.294  1.00  0.00     0.002 A 
HETATM   21  C   UNL     1     -45.559  62.452 -52.017  1.00  0.00     0.029 A 
ENDBRANCH  13  16
ENDBRANCH  10  12
BRANCH   9  22
HETATM   22  C   UNL     1     -40.798  58.604 -51.627  1.00  0.00    -0.028 A 
HETATM   23  C   UNL     1     -39.566  58.795 -52.277  1.00  0.00     0.012 A 
HETATM   24  C   UNL     1     -38.507  59.435 -51.627  1.00  0.00     0.037 A 
HETATM   25  C   UNL     1     -38.678  59.892 -50.325  1.00  0.00     0.065 A 
HETATM   26  C   UNL     1     -39.888  59.723 -49.666  1.00  0.00     0.037 A 
HETATM   27  C   UNL     1     -40.947  59.084 -50.313  1.00  0.00     0.012 A 
BRANCH  25  28
HETATM   28  O   UNL     1     -37.671  60.520 -49.654  1.00  0.00    -0.361 OA
HETATM   29  H   UNL     1     -38.024  60.863 -48.816  1.00  0.00     0.217 HD
ENDBRANCH  25  28
ENDBRANCH   9  22
BRANCH   7  30
HETATM   30  C   UNL     1     -40.945  53.160 -52.752  1.00  0.00     0.014 A 
HETATM   31  C   UNL     1     -40.062  52.447 -51.925  1.00  0.00     0.017 A 
HETATM   32  C   UNL     1     -39.493  51.245 -52.357  1.00  0.00     0.025 A 
HETATM   33  C   UNL     1     -39.805  50.747 -53.620  1.00  0.00     0.034 A 
HETATM   34 CL   UNL     1     -39.097  49.274 -54.158  1.00  0.00    -0.084 Cl
HETATM   35  C   UNL     1     -40.684  51.437 -54.453  1.00  0.00     0.025 A 
HETATM   36  C   UNL     1     -41.252  52.639 -54.019  1.00  0.00     0.017 A 
ENDBRANCH   7  30
TORSDOF 5
ENDMDL
MODEL 10
REMARK VINA RESULT:      -7.6      2.909      3.643
REMARK  5 active torsions:
REMARK  status: ('A' for Active; 'I' for Inactive)
REMARK    1  A    between atoms: C_7  and  C_8 
REMARK    2  A    between atoms: C_16  and  C_17 
REMARK    3  A    between atoms: C_20  and  O_21 
REMARK    4  A    between atoms: C_24  and  C_25 
REMARK       I    between atoms: C_25  and  N_26 
REMARK    5  A    between atoms: N_26  and  C_27 
ROOT
HETATM    1  C   UNL     1     -40.233  53.907 -55.484  1.00  0.00     0.070 C 
HETATM    2  C   UNL     1     -41.273  54.957 -55.182  1.00  0.00     0.037 C 
HETATM    3  N   UNL     1     -41.528  55.864 -56.212  1.00  0.00    -0.192 N 
HETATM    4  C   UNL     1     -42.651  56.611 -56.248  1.00  0.00     0.726 A 
HETATM    5  N   UNL     1     -43.430  56.709 -55.131  1.00  0.00    -0.083 N 
HETATM    6  N   UNL     1     -44.586  57.351 -55.388  1.00  0.00    -0.135 NA
HETATM    7  C   UNL     1     -44.430  57.666 -56.687  1.00  0.00     0.199 A 
HETATM    8  N   UNL     1     -43.229  57.244 -57.236  1.00  0.00    -0.041 NA
HETATM    9  C   UNL     1     -43.125  56.039 -53.863  1.00  0.00     0.202 C 
HETATM   10  C   UNL     1     -42.010  55.013 -54.043  1.00  0.00     0.062 C 
HETATM   11  H   UNL     1     -41.053  55.699 -57.096  1.00  0.00     0.184 HD
ENDROOT
BRANCH  10  12
HETATM   12  C   UNL     1     -41.937  54.025 -52.934  1.00  0.00     0.256 C 
HETATM   13  N   UNL     1     -40.727  53.374 -52.841  1.00  0.00    -0.323 N 
HETATM   14  H   UNL     1     -40.001  53.652 -53.490  1.00  0.00     0.169 HD
HETATM   15  O   UNL     1     -42.907  53.906 -52.196  1.00  0.00    -0.267 OA
BRANCH  13  16
HETATM   16  C   UNL     1     -40.390  52.335 -51.948  1.00  0.00     0.035 A 
HETATM   17  C   UNL     1     -40.609  52.389 -50.570  1.00  0.00     0.029 A 
HETATM   18  C   UNL     1     -40.268  51.307 -49.751  1.00  0.00     0.002 A 
HETATM   19  C   UNL     1     -39.709  50.159 -50.305  1.00  0.00     0.000 A 
HETATM   20  C   UNL     1     -39.485  50.093 -51.677  1.00  0.00     0.002 A 
HETATM   21  C   UNL     1     -39.820  51.178 -52.494  1.00  0.00     0.029 A 
ENDBRANCH  13  16
ENDBRANCH  10  12
BRANCH   9  22
HETATM   22  C   UNL     1     -42.779  57.063 -52.783  1.00  0.00    -0.028 A 
HETATM   23  C   UNL     1     -41.456  57.522 -52.661  1.00  0.00     0.012 A 
HETATM   24  C   UNL     1     -41.116  58.475 -51.698  1.00  0.00     0.037 A 
HETATM   25  C   UNL     1     -42.101  58.978 -50.855  1.00  0.00     0.065 A 
HETATM   26  C   UNL     1     -43.415  58.548 -50.962  1.00  0.00     0.037 A 
HETATM   27  C   UNL     1     -43.758  57.596 -51.924  1.00  0.00     0.012 A 
BRANCH  25  28
HETATM   28  O   UNL     1     -41.812  59.908 -49.900  1.00  0.00    -0.361 OA
HETATM   29  H   UNL     1     -41.348  60.650 -50.321  1.00  0.00     0.217 HD
ENDBRANCH  25  28
ENDBRANCH   9  22
BRANCH   7  30
HETATM   30  C   UNL     1     -45.459  58.325 -57.489  1.00  0.00     0.014 A 
HETATM   31  C   UNL     1     -45.980  59.572 -57.109  1.00  0.00     0.017 A 
HETATM   32  C   UNL     1     -46.995  60.179 -57.855  1.00  0.00     0.025 A 
HETATM   33  C   UNL     1     -47.494  59.542 -58.989  1.00  0.00     0.034 A 
HETATM   34 CL   UNL     1     -48.751  60.282 -59.902  1.00  0.00    -0.084 Cl
HETATM   35  C   UNL     1     -46.985  58.308 -59.387  1.00  0.00     0.025 A 
HETATM   36  C   UNL     1     -45.970  57.702 -58.639  1.00  0.00     0.017 A 
ENDBRANCH   7  30
TORSDOF 5
ENDMDL
