MODEL 1
REMARK VINA RESULT:      -8.9      0.000      0.000
REMARK  5 active torsions:
REMARK  status: ('A' for Active; 'I' for Inactive)
REMARK    1  A    between atoms: C_7  and  C_8 
REMARK    2  A    between atoms: C_8  and  C_9 
REMARK    3  A    between atoms: C_9  and  N_10 
REMARK       I    between atoms: N_10  and  C_11 
REMARK       I    between atoms: C_11  and  N_12 
REMARK    4  A    between atoms: N_12  and  C_13 
REMARK    5  A    between atoms: C_14  and  O_15 
ROOT
HETATM    1  C   UNL     1     -42.529  54.481 -53.919  1.00  0.00     0.129 C 
ENDROOT
BRANCH   1   2
HETATM    2  C   UNL     1     -41.080  54.678 -53.462  1.00  0.00     0.061 C 
BRANCH   2   3
HETATM    3  C   UNL     1     -40.603  53.614 -52.513  1.00  0.00    -0.022 A 
HETATM    4  C   UNL     1     -40.432  53.748 -51.142  1.00  0.00     0.013 A 
HETATM    5  C   UNL     1     -40.644  54.913 -50.243  1.00  0.00     0.068 C 
HETATM    6  N   UNL     1     -40.006  52.538 -50.651  1.00  0.00    -0.356 N 
HETATM    7  H   UNL     1     -39.806  52.332 -49.681  1.00  0.00     0.166 HD
HETATM    8  C   UNL     1     -39.894  51.623 -51.668  1.00  0.00     0.082 A 
HETATM    9  C   UNL     1     -40.255  52.266 -52.851  1.00  0.00     0.005 A 
HETATM   10  C   UNL     1     -39.505  50.283 -51.631  1.00  0.00     0.146 A 
HETATM   11  C   UNL     1     -40.220  51.523 -54.049  1.00  0.00     0.056 A 
HETATM   12  C   UNL     1     -39.831  50.181 -54.003  1.00  0.00     0.120 A 
HETATM   13  C   UNL     1     -39.477  49.558 -52.816  1.00  0.00     0.086 A 
HETATM   14  F   UNL     1     -39.800  49.476 -55.144  1.00  0.00    -0.206 F 
HETATM   15  F   UNL     1     -39.165  49.698 -50.476  1.00  0.00    -0.204 F 
ENDBRANCH   2   3
ENDBRANCH   1   2
BRANCH   1  16
HETATM   16  N   UNL     1     -43.337  55.684 -53.772  1.00  0.00    -0.343 N 
HETATM   17  C   UNL     1     -43.484  56.637 -54.744  1.00  0.00     0.320 C 
HETATM   18  N   UNL     1     -42.384  56.821 -55.539  1.00  0.00    -0.303 N 
HETATM   19  O   UNL     1     -44.539  57.260 -54.799  1.00  0.00    -0.247 OA
HETATM   20  H   UNL     1     -41.491  56.716 -55.086  1.00  0.00     0.171 HD
HETATM   21  H   UNL     1     -44.229  55.554 -53.306  1.00  0.00     0.164 HD
BRANCH  18  22
HETATM   22  C   UNL     1     -42.412  57.525 -56.730  1.00  0.00     0.115 A 
HETATM   23  C   UNL     1     -42.074  58.866 -57.020  1.00  0.00     0.212 A 
HETATM   24  N   UNL     1     -42.268  59.187 -58.299  1.00  0.00    -0.145 NA
HETATM   25  N   UNL     1     -42.722  58.041 -58.840  1.00  0.00    -0.274 N 
HETATM   26  C   UNL     1     -43.034  58.017 -60.251  1.00  0.00     0.180 C 
HETATM   27  C   UNL     1     -42.856  57.011 -57.936  1.00  0.00     0.057 A 
HETATM   28  C   UNL     1     -43.347  55.657 -58.292  1.00  0.00     0.072 C 
BRANCH  23  29
HETATM   29  O   UNL     1     -41.761  59.837 -56.139  1.00  0.00    -0.337 OA
HETATM   30  C   UNL     1     -42.911  60.401 -55.525  1.00  0.00     0.212 C 
ENDBRANCH  23  29
ENDBRANCH  18  22
ENDBRANCH   1  16
TORSDOF 5
ENDMDL
MODEL 2
REMARK VINA RESULT:      -8.9      1.059      2.122
REMARK  5 active torsions:
REMARK  status: ('A' for Active; 'I' for Inactive)
REMARK    1  A    between atoms: C_7  and  C_8 
REMARK    2  A    between atoms: C_8  and  C_9 
REMARK    3  A    between atoms: C_9  and  N_10 
REMARK       I    between atoms: N_10  and  C_11 
REMARK       I    between atoms: C_11  and  N_12 
REMARK    4  A    between atoms: N_12  and  C_13 
REMARK    5  A    between atoms: C_14  and  O_15 
ROOT
HETATM    1  C   UNL     1     -42.437  54.513 -53.927  1.00  0.00     0.129 C 
ENDROOT
BRANCH   1   2
HETATM    2  C   UNL     1     -41.002  54.701 -53.423  1.00  0.00     0.061 C 
BRANCH   2   3
HETATM    3  C   UNL     1     -40.557  53.626 -52.472  1.00  0.00    -0.022 A 
HETATM    4  C   UNL     1     -40.407  53.749 -51.098  1.00  0.00     0.013 A 
HETATM    5  C   UNL     1     -40.618  54.912 -50.196  1.00  0.00     0.068 C 
HETATM    6  N   UNL     1     -40.007  52.531 -50.607  1.00  0.00    -0.356 N 
HETATM    7  H   UNL     1     -39.826  52.316 -49.635  1.00  0.00     0.166 HD
HETATM    8  C   UNL     1     -39.891  51.620 -51.628  1.00  0.00     0.082 A 
HETATM    9  C   UNL     1     -40.222  52.275 -52.812  1.00  0.00     0.005 A 
HETATM   10  C   UNL     1     -39.521  50.274 -51.592  1.00  0.00     0.146 A 
HETATM   11  C   UNL     1     -40.177  51.538 -54.014  1.00  0.00     0.056 A 
HETATM   12  C   UNL     1     -39.808  50.190 -53.970  1.00  0.00     0.120 A 
HETATM   13  C   UNL     1     -39.483  49.556 -52.781  1.00  0.00     0.086 A 
HETATM   14  F   UNL     1     -39.768  49.492 -55.114  1.00  0.00    -0.206 F 
HETATM   15  F   UNL     1     -39.209  49.678 -50.435  1.00  0.00    -0.204 F 
ENDBRANCH   2   3
ENDBRANCH   1   2
BRANCH   1  16
HETATM   16  N   UNL     1     -43.235  55.728 -53.827  1.00  0.00    -0.343 N 
HETATM   17  C   UNL     1     -43.574  56.516 -54.894  1.00  0.00     0.320 C 
HETATM   18  N   UNL     1     -42.636  56.569 -55.890  1.00  0.00    -0.303 N 
HETATM   19  O   UNL     1     -44.637  57.127 -54.857  1.00  0.00    -0.247 OA
HETATM   20  H   UNL     1     -41.675  56.534 -55.592  1.00  0.00     0.171 HD
HETATM   21  H   UNL     1     -44.028  55.675 -53.196  1.00  0.00     0.164 HD
BRANCH  18  22
HETATM   22  C   UNL     1     -42.890  57.077 -57.152  1.00  0.00     0.115 A 
HETATM   23  C   UNL     1     -43.375  56.449 -58.321  1.00  0.00     0.212 A 
HETATM   24  N   UNL     1     -43.456  57.278 -59.362  1.00  0.00    -0.145 NA
HETATM   25  N   UNL     1     -43.034  58.452 -58.856  1.00  0.00    -0.274 N 
HETATM   26  C   UNL     1     -43.001  59.608 -59.723  1.00  0.00     0.180 C 
HETATM   27  C   UNL     1     -42.653  58.386 -57.534  1.00  0.00     0.057 A 
HETATM   28  C   UNL     1     -42.144  59.546 -56.761  1.00  0.00     0.072 C 
BRANCH  23  29
HETATM   29  O   UNL     1     -43.581  55.131 -58.513  1.00  0.00    -0.337 OA
HETATM   30  C   UNL     1     -44.319  54.866 -59.698  1.00  0.00     0.212 C 
ENDBRANCH  23  29
ENDBRANCH  18  22
ENDBRANCH   1  16
TORSDOF 5
ENDMDL
MODEL 3
REMARK VINA RESULT:      -8.9      2.794      4.196
REMARK  5 active torsions:
REMARK  status: ('A' for Active; 'I' for Inactive)
REMARK    1  A    between atoms: C_7  and  C_8 
REMARK    2  A    between atoms: C_8  and  C_9 
REMARK    3  A    between atoms: C_9  and  N_10 
REMARK       I    between atoms: N_10  and  C_11 
REMARK       I    between atoms: C_11  and  N_12 
REMARK    4  A    between atoms: N_12  and  C_13 
REMARK    5  A    between atoms: C_14  and  O_15 
ROOT
HETATM    1  C   UNL     1     -42.637  54.622 -53.830  1.00  0.00     0.129 C 
ENDROOT
BRANCH   1   2
HETATM    2  C   UNL     1     -41.117  54.657 -53.636  1.00  0.00     0.061 C 
BRANCH   2   3
HETATM    3  C   UNL     1     -40.615  53.626 -52.664  1.00  0.00    -0.022 A 
HETATM    4  C   UNL     1     -40.413  53.805 -51.302  1.00  0.00     0.013 A 
HETATM    5  C   UNL     1     -40.608  54.998 -50.437  1.00  0.00     0.068 C 
HETATM    6  N   UNL     1     -39.971  52.613 -50.783  1.00  0.00    -0.356 N 
HETATM    7  H   UNL     1     -39.748  52.439 -49.811  1.00  0.00     0.166 HD
HETATM    8  C   UNL     1     -39.879  51.666 -51.772  1.00  0.00     0.082 A 
HETATM    9  C   UNL     1     -40.270  52.269 -52.966  1.00  0.00     0.005 A 
HETATM   10  C   UNL     1     -39.484  50.329 -51.701  1.00  0.00     0.146 A 
HETATM   11  C   UNL     1     -40.259  51.488 -54.140  1.00  0.00     0.056 A 
HETATM   12  C   UNL     1     -39.864  50.149 -54.060  1.00  0.00     0.120 A 
HETATM   13  C   UNL     1     -39.480  49.566 -52.862  1.00  0.00     0.086 A 
HETATM   14  F   UNL     1     -39.856  49.408 -55.178  1.00  0.00    -0.206 F 
HETATM   15  F   UNL     1     -39.116  49.783 -50.535  1.00  0.00    -0.204 F 
ENDBRANCH   2   3
ENDBRANCH   1   2
BRANCH   1  16
HETATM   16  N   UNL     1     -43.147  55.805 -54.509  1.00  0.00    -0.343 N 
HETATM   17  C   UNL     1     -43.138  57.065 -53.973  1.00  0.00     0.320 C 
HETATM   18  N   UNL     1     -43.301  57.112 -52.615  1.00  0.00    -0.303 N 
HETATM   19  O   UNL     1     -43.030  58.024 -54.731  1.00  0.00    -0.247 OA
HETATM   20  H   UNL     1     -43.912  56.416 -52.220  1.00  0.00     0.171 HD
HETATM   21  H   UNL     1     -42.922  55.870 -55.497  1.00  0.00     0.164 HD
BRANCH  18  22
HETATM   22  C   UNL     1     -43.053  58.242 -51.855  1.00  0.00     0.115 A 
HETATM   23  C   UNL     1     -41.836  58.839 -51.456  1.00  0.00     0.212 A 
HETATM   24  N   UNL     1     -42.010  59.916 -50.691  1.00  0.00    -0.145 NA
HETATM   25  N   UNL     1     -43.350  60.022 -50.607  1.00  0.00    -0.274 N 
HETATM   26  C   UNL     1     -43.912  61.112 -49.842  1.00  0.00     0.180 C 
HETATM   27  C   UNL     1     -44.031  59.024 -51.266  1.00  0.00     0.057 A 
HETATM   28  C   UNL     1     -45.511  58.921 -51.308  1.00  0.00     0.072 C 
BRANCH  23  29
HETATM   29  O   UNL     1     -40.592  58.346 -51.623  1.00  0.00    -0.337 OA
HETATM   30  C   UNL     1     -39.996  58.782 -52.837  1.00  0.00     0.212 C 
ENDBRANCH  23  29
ENDBRANCH  18  22
ENDBRANCH   1  16
TORSDOF 5
ENDMDL
MODEL 4
REMARK VINA RESULT:      -8.7      3.344      4.788
REMARK  5 active torsions:
REMARK  status: ('A' for Active; 'I' for Inactive)
REMARK    1  A    between atoms: C_7  and  C_8 
REMARK    2  A    between atoms: C_8  and  C_9 
REMARK    3  A    between atoms: C_9  and  N_10 
REMARK       I    between atoms: N_10  and  C_11 
REMARK       I    between atoms: C_11  and  N_12 
REMARK    4  A    between atoms: N_12  and  C_13 
REMARK    5  A    between atoms: C_14  and  O_15 
ROOT
HETATM    1  C   UNL     1     -42.254  54.642 -50.968  1.00  0.00     0.129 C 
ENDROOT
BRANCH   1   2
HETATM    2  C   UNL     1     -40.864  54.751 -51.604  1.00  0.00     0.061 C 
BRANCH   2   3
HETATM    3  C   UNL     1     -40.601  53.703 -52.648  1.00  0.00    -0.022 A 
HETATM    4  C   UNL     1     -40.682  53.870 -54.024  1.00  0.00     0.013 A 
HETATM    5  C   UNL     1     -41.040  55.060 -54.841  1.00  0.00     0.068 C 
HETATM    6  N   UNL     1     -40.344  52.677 -54.613  1.00  0.00    -0.356 N 
HETATM    7  H   UNL     1     -40.305  52.500 -55.609  1.00  0.00     0.166 HD
HETATM    8  C   UNL     1     -40.047  51.739 -53.656  1.00  0.00     0.082 A 
HETATM    9  C   UNL     1     -40.205  52.347 -52.412  1.00  0.00     0.005 A 
HETATM   10  C   UNL     1     -39.652  50.408 -53.796  1.00  0.00     0.146 A 
HETATM   11  C   UNL     1     -39.954  51.575 -51.258  1.00  0.00     0.056 A 
HETATM   12  C   UNL     1     -39.557  50.243 -51.407  1.00  0.00     0.120 A 
HETATM   13  C   UNL     1     -39.404  49.656 -52.654  1.00  0.00     0.086 A 
HETATM   14  F   UNL     1     -39.318  49.511 -50.309  1.00  0.00    -0.206 F 
HETATM   15  F   UNL     1     -39.511  49.857 -55.009  1.00  0.00    -0.204 F 
ENDBRANCH   2   3
ENDBRANCH   1   2
BRANCH   1  16
HETATM   16  N   UNL     1     -43.319  55.089 -51.856  1.00  0.00    -0.343 N 
HETATM   17  C   UNL     1     -43.586  56.402 -52.138  1.00  0.00     0.320 C 
HETATM   18  N   UNL     1     -43.343  57.272 -51.109  1.00  0.00    -0.303 N 
HETATM   19  O   UNL     1     -44.046  56.683 -53.240  1.00  0.00    -0.247 OA
HETATM   20  H   UNL     1     -43.529  56.921 -50.183  1.00  0.00     0.171 HD
HETATM   21  H   UNL     1     -43.434  54.544 -52.704  1.00  0.00     0.164 HD
BRANCH  18  22
HETATM   22  C   UNL     1     -43.286  58.646 -51.267  1.00  0.00     0.115 A 
HETATM   23  C   UNL     1     -42.202  59.496 -51.580  1.00  0.00     0.212 A 
HETATM   24  N   UNL     1     -42.543  60.784 -51.613  1.00  0.00    -0.145 NA
HETATM   25  N   UNL     1     -43.860  60.762 -51.333  1.00  0.00    -0.274 N 
HETATM   26  C   UNL     1     -44.581  62.015 -51.295  1.00  0.00     0.180 C 
HETATM   27  C   UNL     1     -44.358  59.502 -51.088  1.00  0.00     0.057 A 
HETATM   28  C   UNL     1     -45.775  59.225 -50.749  1.00  0.00     0.072 C 
BRANCH  23  29
HETATM   29  O   UNL     1     -40.900  59.159 -51.667  1.00  0.00    -0.337 OA
HETATM   30  C   UNL     1     -40.174  59.495 -50.493  1.00  0.00     0.212 C 
ENDBRANCH  23  29
ENDBRANCH  18  22
ENDBRANCH   1  16
TORSDOF 5
ENDMDL
MODEL 5
REMARK VINA RESULT:      -8.7      1.833      2.525
REMARK  5 active torsions:
REMARK  status: ('A' for Active; 'I' for Inactive)
REMARK    1  A    between atoms: C_7  and  C_8 
REMARK    2  A    between atoms: C_8  and  C_9 
REMARK    3  A    between atoms: C_9  and  N_10 
REMARK       I    between atoms: N_10  and  C_11 
REMARK       I    between atoms: C_11  and  N_12 
REMARK    4  A    between atoms: N_12  and  C_13 
REMARK    5  A    between atoms: C_14  and  O_15 
ROOT
HETATM    1  C   UNL     1     -42.711  56.069 -50.627  1.00  0.00     0.129 C 
ENDROOT
BRANCH   1   2
HETATM    2  C   UNL     1     -41.211  55.869 -50.388  1.00  0.00     0.061 C 
BRANCH   2   3
HETATM    3  C   UNL     1     -40.752  54.457 -50.624  1.00  0.00    -0.022 A 
HETATM    4  C   UNL     1     -40.491  53.501 -49.652  1.00  0.00     0.013 A 
HETATM    5  C   UNL     1     -40.572  53.572 -48.169  1.00  0.00     0.068 C 
HETATM    6  N   UNL     1     -40.119  52.343 -50.290  1.00  0.00    -0.356 N 
HETATM    7  H   UNL     1     -39.877  51.471 -49.837  1.00  0.00     0.166 HD
HETATM    8  C   UNL     1     -40.129  52.524 -51.651  1.00  0.00     0.082 A 
HETATM    9  C   UNL     1     -40.515  53.840 -51.895  1.00  0.00     0.005 A 
HETATM   10  C   UNL     1     -39.829  51.627 -52.678  1.00  0.00     0.146 A 
HETATM   11  C   UNL     1     -40.600  54.270 -53.236  1.00  0.00     0.056 A 
HETATM   12  C   UNL     1     -40.300  53.365 -54.258  1.00  0.00     0.120 A 
HETATM   13  C   UNL     1     -39.919  52.058 -53.996  1.00  0.00     0.086 A 
HETATM   14  F   UNL     1     -40.383  53.776 -55.532  1.00  0.00    -0.206 F 
HETATM   15  F   UNL     1     -39.462  50.368 -52.404  1.00  0.00    -0.204 F 
ENDBRANCH   2   3
ENDBRANCH   1   2
BRANCH   1  16
HETATM   16  N   UNL     1     -43.050  57.442 -50.974  1.00  0.00    -0.343 N 
HETATM   17  C   UNL     1     -43.147  57.911 -52.257  1.00  0.00     0.320 C 
HETATM   18  N   UNL     1     -42.287  57.328 -53.148  1.00  0.00    -0.303 N 
HETATM   19  O   UNL     1     -43.941  58.817 -52.491  1.00  0.00    -0.247 OA
HETATM   20  H   UNL     1     -41.383  57.074 -52.786  1.00  0.00     0.171 HD
HETATM   21  H   UNL     1     -43.788  57.862 -50.417  1.00  0.00     0.164 HD
BRANCH  18  22
HETATM   22  C   UNL     1     -42.408  57.457 -54.521  1.00  0.00     0.115 A 
HETATM   23  C   UNL     1     -42.065  58.522 -55.383  1.00  0.00     0.212 A 
HETATM   24  N   UNL     1     -42.367  58.279 -56.658  1.00  0.00    -0.145 NA
HETATM   25  N   UNL     1     -42.896  57.041 -56.619  1.00  0.00    -0.274 N 
HETATM   26  C   UNL     1     -43.337  56.437 -57.856  1.00  0.00     0.180 C 
HETATM   27  C   UNL     1     -42.972  56.506 -55.353  1.00  0.00     0.057 A 
HETATM   28  C   UNL     1     -43.526  55.162 -55.055  1.00  0.00     0.072 C 
BRANCH  23  29
HETATM   29  O   UNL     1     -41.649  59.755 -55.030  1.00  0.00    -0.337 OA
HETATM   30  C   UNL     1     -42.674  60.730 -55.160  1.00  0.00     0.212 C 
ENDBRANCH  23  29
ENDBRANCH  18  22
ENDBRANCH   1  16
TORSDOF 5
ENDMDL
MODEL 6
REMARK VINA RESULT:      -8.6      2.072      3.040
REMARK  5 active torsions:
REMARK  status: ('A' for Active; 'I' for Inactive)
REMARK    1  A    between atoms: C_7  and  C_8 
REMARK    2  A    between atoms: C_8  and  C_9 
REMARK    3  A    between atoms: C_9  and  N_10 
REMARK       I    between atoms: N_10  and  C_11 
REMARK       I    between atoms: C_11  and  N_12 
REMARK    4  A    between atoms: N_12  and  C_13 
REMARK    5  A    between atoms: C_14  and  O_15 
ROOT
HETATM    1  C   UNL     1     -42.225  54.173 -54.595  1.00  0.00     0.129 C 
ENDROOT
BRANCH   1   2
HETATM    2  C   UNL     1     -41.079  54.659 -53.701  1.00  0.00     0.061 C 
BRANCH   2   3
HETATM    3  C   UNL     1     -40.625  53.634 -52.701  1.00  0.00    -0.022 A 
HETATM    4  C   UNL     1     -40.491  53.818 -51.331  1.00  0.00     0.013 A 
HETATM    5  C   UNL     1     -40.733  55.014 -50.482  1.00  0.00     0.068 C 
HETATM    6  N   UNL     1     -40.074  52.630 -50.786  1.00  0.00    -0.356 N 
HETATM    7  H   UNL     1     -39.901  52.460 -49.803  1.00  0.00     0.166 HD
HETATM    8  C   UNL     1     -39.931  51.678 -51.764  1.00  0.00     0.082 A 
HETATM    9  C   UNL     1     -40.262  52.276 -52.979  1.00  0.00     0.005 A 
HETATM   10  C   UNL     1     -39.538  50.342 -51.668  1.00  0.00     0.146 A 
HETATM   11  C   UNL     1     -40.191  51.489 -54.148  1.00  0.00     0.056 A 
HETATM   12  C   UNL     1     -39.798  50.152 -54.043  1.00  0.00     0.120 A 
HETATM   13  C   UNL     1     -39.474  49.574 -52.825  1.00  0.00     0.086 A 
HETATM   14  F   UNL     1     -39.733  49.406 -55.156  1.00  0.00    -0.206 F 
HETATM   15  F   UNL     1     -39.228  49.802 -50.483  1.00  0.00    -0.204 F 
ENDBRANCH   2   3
ENDBRANCH   1   2
BRANCH   1  16
HETATM   16  N   UNL     1     -42.273  54.862 -55.877  1.00  0.00    -0.343 N 
HETATM   17  C   UNL     1     -42.875  56.076 -56.077  1.00  0.00     0.320 C 
HETATM   18  N   UNL     1     -43.981  56.303 -55.302  1.00  0.00    -0.303 N 
HETATM   19  O   UNL     1     -42.417  56.823 -56.935  1.00  0.00    -0.247 OA
HETATM   20  H   UNL     1     -44.553  55.498 -55.105  1.00  0.00     0.171 HD
HETATM   21  H   UNL     1     -41.415  54.831 -56.419  1.00  0.00     0.164 HD
BRANCH  18  22
HETATM   22  C   UNL     1     -44.565  57.548 -55.152  1.00  0.00     0.115 A 
HETATM   23  C   UNL     1     -45.330  58.325 -56.050  1.00  0.00     0.212 A 
HETATM   24  N   UNL     1     -45.694  59.502 -55.542  1.00  0.00    -0.145 NA
HETATM   25  N   UNL     1     -45.170  59.478 -54.302  1.00  0.00    -0.274 N 
HETATM   26  C   UNL     1     -45.382  60.618 -53.438  1.00  0.00     0.180 C 
HETATM   27  C   UNL     1     -44.455  58.336 -54.020  1.00  0.00     0.057 A 
HETATM   28  C   UNL     1     -43.777  58.084 -52.724  1.00  0.00     0.072 C 
BRANCH  23  29
HETATM   29  O   UNL     1     -45.561  58.073 -57.354  1.00  0.00    -0.337 OA
HETATM   30  C   UNL     1     -46.945  58.099 -57.674  1.00  0.00     0.212 C 
ENDBRANCH  23  29
ENDBRANCH  18  22
ENDBRANCH   1  16
TORSDOF 5
ENDMDL
MODEL 7
REMARK VINA RESULT:      -8.6      1.725      2.370
REMARK  5 active torsions:
REMARK  status: ('A' for Active; 'I' for Inactive)
REMARK    1  A    between atoms: C_7  and  C_8 
REMARK    2  A    between atoms: C_8  and  C_9 
REMARK    3  A    between atoms: C_9  and  N_10 
REMARK       I    between atoms: N_10  and  C_11 
REMARK       I    between atoms: C_11  and  N_12 
REMARK    4  A    between atoms: N_12  and  C_13 
REMARK    5  A    between atoms: C_14  and  O_15 
ROOT
HETATM    1  C   UNL     1     -42.551  54.666 -54.017  1.00  0.00     0.129 C 
ENDROOT
BRANCH   1   2
HETATM    2  C   UNL     1     -41.059  54.751 -53.676  1.00  0.00     0.061 C 
BRANCH   2   3
HETATM    3  C   UNL     1     -40.612  53.711 -52.688  1.00  0.00    -0.022 A 
HETATM    4  C   UNL     1     -40.472  53.881 -51.317  1.00  0.00     0.013 A 
HETATM    5  C   UNL     1     -40.696  55.071 -50.455  1.00  0.00     0.068 C 
HETATM    6  N   UNL     1     -40.066  52.682 -50.785  1.00  0.00    -0.356 N 
HETATM    7  H   UNL     1     -39.890  52.501 -49.805  1.00  0.00     0.166 HD
HETATM    8  C   UNL     1     -39.937  51.739 -51.773  1.00  0.00     0.082 A 
HETATM    9  C   UNL     1     -40.266  52.352 -52.981  1.00  0.00     0.005 A 
HETATM   10  C   UNL     1     -39.559  50.398 -51.692  1.00  0.00     0.146 A 
HETATM   11  C   UNL     1     -40.208  51.576 -54.158  1.00  0.00     0.056 A 
HETATM   12  C   UNL     1     -39.830  50.233 -54.067  1.00  0.00     0.120 A 
HETATM   13  C   UNL     1     -39.508  49.641 -52.856  1.00  0.00     0.086 A 
HETATM   14  F   UNL     1     -39.778  49.498 -55.187  1.00  0.00    -0.206 F 
HETATM   15  F   UNL     1     -39.250  49.843 -50.513  1.00  0.00    -0.204 F 
ENDBRANCH   2   3
ENDBRANCH   1   2
BRANCH   1  16
HETATM   16  N   UNL     1     -42.794  54.458 -55.438  1.00  0.00    -0.343 N 
HETATM   17  C   UNL     1     -43.037  55.466 -56.334  1.00  0.00     0.320 C 
HETATM   18  N   UNL     1     -43.720  56.536 -55.822  1.00  0.00    -0.303 N 
HETATM   19  O   UNL     1     -42.674  55.317 -57.496  1.00  0.00    -0.247 OA
HETATM   20  H   UNL     1     -44.413  56.324 -55.123  1.00  0.00     0.171 HD
HETATM   21  H   UNL     1     -42.203  53.763 -55.883  1.00  0.00     0.164 HD
BRANCH  18  22
HETATM   22  C   UNL     1     -43.826  57.755 -56.470  1.00  0.00     0.115 A 
HETATM   23  C   UNL     1     -44.600  58.143 -57.586  1.00  0.00     0.212 A 
HETATM   24  N   UNL     1     -44.404  59.413 -57.940  1.00  0.00    -0.145 NA
HETATM   25  N   UNL     1     -43.506  59.850 -57.036  1.00  0.00    -0.274 N 
HETATM   26  C   UNL     1     -43.060  61.223 -57.111  1.00  0.00     0.180 C 
HETATM   27  C   UNL     1     -43.100  58.886 -56.142  1.00  0.00     0.057 A 
HETATM   28  C   UNL     1     -42.111  59.124 -55.061  1.00  0.00     0.072 C 
BRANCH  23  29
HETATM   29  O   UNL     1     -45.340  57.346 -58.384  1.00  0.00    -0.337 OA
HETATM   30  C   UNL     1     -46.664  57.833 -58.556  1.00  0.00     0.212 C 
ENDBRANCH  23  29
ENDBRANCH  18  22
ENDBRANCH   1  16
TORSDOF 5
ENDMDL
MODEL 8
REMARK VINA RESULT:      -8.5      2.089      3.071
REMARK  5 active torsions:
REMARK  status: ('A' for Active; 'I' for Inactive)
REMARK    1  A    between atoms: C_7  and  C_8 
REMARK    2  A    between atoms: C_8  and  C_9 
REMARK    3  A    between atoms: C_9  and  N_10 
REMARK       I    between atoms: N_10  and  C_11 
REMARK       I    between atoms: C_11  and  N_12 
REMARK    4  A    between atoms: N_12  and  C_13 
REMARK    5  A    between atoms: C_14  and  O_15 
ROOT
HETATM    1  C   UNL     1     -42.757  55.071 -56.208  1.00  0.00     0.129 C 
ENDROOT
BRANCH   1   2
HETATM    2  C   UNL     1     -43.182  53.957 -55.244  1.00  0.00     0.061 C 
BRANCH   2   3
HETATM    3  C   UNL     1     -42.389  53.937 -53.968  1.00  0.00    -0.022 A 
HETATM    4  C   UNL     1     -42.552  54.787 -52.882  1.00  0.00     0.013 A 
HETATM    5  C   UNL     1     -43.493  55.916 -52.662  1.00  0.00     0.068 C 
HETATM    6  N   UNL     1     -41.646  54.416 -51.919  1.00  0.00    -0.356 N 
HETATM    7  H   UNL     1     -41.538  54.852 -51.012  1.00  0.00     0.166 HD
HETATM    8  C   UNL     1     -40.899  53.349 -52.351  1.00  0.00     0.082 A 
HETATM    9  C   UNL     1     -41.334  53.026 -53.635  1.00  0.00     0.005 A 
HETATM   10  C   UNL     1     -39.879  52.648 -51.706  1.00  0.00     0.146 A 
HETATM   11  C   UNL     1     -40.710  51.950 -54.298  1.00  0.00     0.056 A 
HETATM   12  C   UNL     1     -39.690  51.251 -53.644  1.00  0.00     0.120 A 
HETATM   13  C   UNL     1     -39.271  51.586 -52.366  1.00  0.00     0.086 A 
HETATM   14  F   UNL     1     -39.099  50.226 -54.277  1.00  0.00    -0.206 F 
HETATM   15  F   UNL     1     -39.487  52.986 -50.472  1.00  0.00    -0.204 F 
ENDBRANCH   2   3
ENDBRANCH   1   2
BRANCH   1  16
HETATM   16  N   UNL     1     -43.584  56.264 -56.092  1.00  0.00    -0.343 N 
HETATM   17  C   UNL     1     -43.587  57.290 -56.999  1.00  0.00     0.320 C 
HETATM   18  N   UNL     1     -42.380  57.528 -57.600  1.00  0.00    -0.303 N 
HETATM   19  O   UNL     1     -44.625  57.922 -57.166  1.00  0.00    -0.247 OA
HETATM   20  H   UNL     1     -41.565  57.383 -57.026  1.00  0.00     0.171 HD
HETATM   21  H   UNL     1     -44.536  56.104 -55.780  1.00  0.00     0.164 HD
BRANCH  18  22
HETATM   22  C   UNL     1     -42.230  58.323 -58.724  1.00  0.00     0.115 A 
HETATM   23  C   UNL     1     -42.333  58.009 -60.098  1.00  0.00     0.212 A 
HETATM   24  N   UNL     1     -42.086  59.052 -60.890  1.00  0.00    -0.145 NA
HETATM   25  N   UNL     1     -41.835  60.049 -60.019  1.00  0.00    -0.274 N 
HETATM   26  C   UNL     1     -41.530  61.363 -60.539  1.00  0.00     0.180 C 
HETATM   27  C   UNL     1     -41.881  59.661 -58.699  1.00  0.00     0.057 A 
HETATM   28  C   UNL     1     -41.629  60.577 -57.559  1.00  0.00     0.072 C 
BRANCH  23  29
HETATM   29  O   UNL     1     -42.475  56.787 -60.647  1.00  0.00    -0.337 OA
HETATM   30  C   UNL     1     -43.800  56.288 -60.521  1.00  0.00     0.212 C 
ENDBRANCH  23  29
ENDBRANCH  18  22
ENDBRANCH   1  16
TORSDOF 5
ENDMDL
MODEL 9
REMARK VINA RESULT:      -8.4      2.877      4.189
REMARK  5 active torsions:
REMARK  status: ('A' for Active; 'I' for Inactive)
REMARK    1  A    between atoms: C_7  and  C_8 
REMARK    2  A    between atoms: C_8  and  C_9 
REMARK    3  A    between atoms: C_9  and  N_10 
REMARK       I    between atoms: N_10  and  C_11 
REMARK       I    between atoms: C_11  and  N_12 
REMARK    4  A    between atoms: N_12  and  C_13 
REMARK    5  A    between atoms: C_14  and  O_15 
ROOT
HETATM    1  C   UNL     1     -43.245  54.228 -53.447  1.00  0.00     0.129 C 
ENDROOT
BRANCH   1   2
HETATM    2  C   UNL     1     -41.729  54.428 -53.357  1.00  0.00     0.061 C 
BRANCH   2   3
HETATM    3  C   UNL     1     -41.046  53.429 -52.467  1.00  0.00    -0.022 A 
HETATM    4  C   UNL     1     -40.823  53.555 -51.102  1.00  0.00     0.013 A 
HETATM    5  C   UNL     1     -41.162  54.652 -50.158  1.00  0.00     0.068 C 
HETATM    6  N   UNL     1     -40.193  52.414 -50.672  1.00  0.00    -0.356 N 
HETATM    7  H   UNL     1     -39.912  52.218 -49.719  1.00  0.00     0.166 HD
HETATM    8  C   UNL     1     -39.998  51.551 -51.721  1.00  0.00     0.082 A 
HETATM    9  C   UNL     1     -40.515  52.158 -52.864  1.00  0.00     0.005 A 
HETATM   10  C   UNL     1     -39.408  50.286 -51.746  1.00  0.00     0.146 A 
HETATM   11  C   UNL     1     -40.431  51.458 -54.085  1.00  0.00     0.056 A 
HETATM   12  C   UNL     1     -39.841  50.190 -54.100  1.00  0.00     0.120 A 
HETATM   13  C   UNL     1     -39.333  49.602 -52.953  1.00  0.00     0.086 A 
HETATM   14  F   UNL     1     -39.765  49.526 -55.263  1.00  0.00    -0.206 F 
HETATM   15  F   UNL     1     -38.922  49.733 -50.627  1.00  0.00    -0.204 F 
ENDBRANCH   2   3
ENDBRANCH   1   2
BRANCH   1  16
HETATM   16  N   UNL     1     -43.912  55.289 -54.189  1.00  0.00    -0.343 N 
HETATM   17  C   UNL     1     -43.954  56.599 -53.792  1.00  0.00     0.320 C 
HETATM   18  N   UNL     1     -43.989  56.786 -52.436  1.00  0.00    -0.303 N 
HETATM   19  O   UNL     1     -43.996  57.472 -54.653  1.00  0.00    -0.247 OA
HETATM   20  H   UNL     1     -44.501  56.098 -51.910  1.00  0.00     0.171 HD
HETATM   21  H   UNL     1     -43.788  55.258 -55.196  1.00  0.00     0.164 HD
BRANCH  18  22
HETATM   22  C   UNL     1     -43.762  58.009 -51.829  1.00  0.00     0.115 A 
HETATM   23  C   UNL     1     -44.655  59.041 -51.465  1.00  0.00     0.212 A 
HETATM   24  N   UNL     1     -44.043  60.093 -50.922  1.00  0.00    -0.145 NA
HETATM   25  N   UNL     1     -42.746  59.731 -50.924  1.00  0.00    -0.274 N 
HETATM   26  C   UNL     1     -41.769  60.649 -50.383  1.00  0.00     0.180 C 
HETATM   27  C   UNL     1     -42.513  58.495 -51.484  1.00  0.00     0.057 A 
HETATM   28  C   UNL     1     -41.166  57.884 -51.608  1.00  0.00     0.072 C 
BRANCH  23  29
HETATM   29  O   UNL     1     -45.968  59.126 -51.761  1.00  0.00    -0.337 OA
HETATM   30  C   UNL     1     -46.469  60.448 -51.622  1.00  0.00     0.212 C 
ENDBRANCH  23  29
ENDBRANCH  18  22
ENDBRANCH   1  16
TORSDOF 5
ENDMDL
MODEL 10
REMARK VINA RESULT:      -8.2      1.727      2.303
REMARK  5 active torsions:
REMARK  status: ('A' for Active; 'I' for Inactive)
REMARK    1  A    between atoms: C_7  and  C_8 
REMARK    2  A    between atoms: C_8  and  C_9 
REMARK    3  A    between atoms: C_9  and  N_10 
REMARK       I    between atoms: N_10  and  C_11 
REMARK       I    between atoms: C_11  and  N_12 
REMARK    4  A    between atoms: N_12  and  C_13 
REMARK    5  A    between atoms: C_14  and  O_15 
ROOT
HETATM    1  C   UNL     1     -42.845  55.106 -56.277  1.00  0.00     0.129 C 
ENDROOT
BRANCH   1   2
HETATM    2  C   UNL     1     -43.175  53.932 -55.349  1.00  0.00     0.061 C 
BRANCH   2   3
HETATM    3  C   UNL     1     -42.386  53.940 -54.071  1.00  0.00    -0.022 A 
HETATM    4  C   UNL     1     -42.542  54.821 -53.010  1.00  0.00     0.013 A 
HETATM    5  C   UNL     1     -43.474  55.964 -52.822  1.00  0.00     0.068 C 
HETATM    6  N   UNL     1     -41.642  54.469 -52.034  1.00  0.00    -0.356 N 
HETATM    7  H   UNL     1     -41.532  54.928 -51.139  1.00  0.00     0.166 HD
HETATM    8  C   UNL     1     -40.904  53.384 -52.435  1.00  0.00     0.082 A 
HETATM    9  C   UNL     1     -41.340  53.029 -53.711  1.00  0.00     0.005 A 
HETATM   10  C   UNL     1     -39.891  52.691 -51.769  1.00  0.00     0.146 A 
HETATM   11  C   UNL     1     -40.723  51.929 -54.342  1.00  0.00     0.056 A 
HETATM   12  C   UNL     1     -39.711  51.240 -53.667  1.00  0.00     0.120 A 
HETATM   13  C   UNL     1     -39.292  51.606 -52.398  1.00  0.00     0.086 A 
HETATM   14  F   UNL     1     -39.129  50.192 -54.270  1.00  0.00    -0.206 F 
HETATM   15  F   UNL     1     -39.498  53.060 -50.543  1.00  0.00    -0.204 F 
ENDBRANCH   2   3
ENDBRANCH   1   2
BRANCH   1  16
HETATM   16  N   UNL     1     -43.730  56.247 -56.081  1.00  0.00    -0.343 N 
HETATM   17  C   UNL     1     -43.655  57.411 -56.798  1.00  0.00     0.320 C 
HETATM   18  N   UNL     1     -42.390  57.771 -57.178  1.00  0.00    -0.303 N 
HETATM   19  O   UNL     1     -44.687  58.043 -57.000  1.00  0.00    -0.247 OA
HETATM   20  H   UNL     1     -41.654  57.546 -56.529  1.00  0.00     0.171 HD
HETATM   21  H   UNL     1     -44.708  56.017 -55.934  1.00  0.00     0.164 HD
BRANCH  18  22
HETATM   22  C   UNL     1     -42.126  58.747 -58.124  1.00  0.00     0.115 A 
HETATM   23  C   UNL     1     -41.704  60.087 -57.976  1.00  0.00     0.212 A 
HETATM   24  N   UNL     1     -41.587  60.728 -59.139  1.00  0.00    -0.145 NA
HETATM   25  N   UNL     1     -41.924  59.789 -60.044  1.00  0.00    -0.274 N 
HETATM   26  C   UNL     1     -41.899  60.138 -61.446  1.00  0.00     0.180 C 
HETATM   27  C   UNL     1     -42.285  58.582 -59.488  1.00  0.00     0.057 A 
HETATM   28  C   UNL     1     -42.705  57.400 -60.281  1.00  0.00     0.072 C 
BRANCH  23  29
HETATM   29  O   UNL     1     -41.587  60.783 -56.828  1.00  0.00    -0.337 OA
HETATM   30  C   UNL     1     -42.830  61.311 -56.386  1.00  0.00     0.212 C 
ENDBRANCH  23  29
ENDBRANCH  18  22
ENDBRANCH   1  16
TORSDOF 5
ENDMDL
