MODEL 1
REMARK VINA RESULT:      -8.2      0.000      0.000
REMARK  5 active torsions:
REMARK  status: ('A' for Active; 'I' for Inactive)
REMARK    1  A    between atoms: C_2  and  C_3 
REMARK    2  A    between atoms: C_6  and  C_7 
REMARK    3  A    between atoms: C_7  and  N_8 
REMARK    4  A    between atoms: C_7  and  C_21 
REMARK       I    between atoms: N_8  and  C_9 
REMARK       I    between atoms: C_9  and  N_10 
REMARK    5  A    between atoms: N_10  and  N_11 
ROOT
HETATM    1  N   UNL     1     -42.736  55.704 -53.949  1.00  0.00    -0.333 N 
HETATM    2  C   UNL     1     -42.262  54.695 -53.172  1.00  0.00     0.335 C 
HETATM    3  N   UNL     1     -40.936  54.419 -53.302  1.00  0.00    -0.244 N 
HETATM    4  O   UNL     1     -43.028  54.123 -52.405  1.00  0.00    -0.246 OA
HETATM    5  H   UNL     1     -43.732  55.844 -53.834  1.00  0.00     0.165 HD
HETATM    6  H   UNL     1     -40.531  54.470 -54.226  1.00  0.00     0.192 HD
ENDROOT
BRANCH   1   7
HETATM    7  C   UNL     1     -41.989  56.672 -54.746  1.00  0.00     0.122 C 
BRANCH   7   8
HETATM    8  C   UNL     1     -42.475  56.741 -56.187  1.00  0.00    -0.035 A 
HETATM    9  C   UNL     1     -42.506  57.938 -56.917  1.00  0.00     0.010 A 
HETATM   10  C   UNL     1     -42.903  57.948 -58.258  1.00  0.00     0.007 A 
HETATM   11  C   UNL     1     -43.279  56.763 -58.901  1.00  0.00    -0.059 A 
HETATM   12  C   UNL     1     -43.253  55.567 -58.178  1.00  0.00     0.007 A 
HETATM   13  C   UNL     1     -42.859  55.556 -56.836  1.00  0.00     0.010 A 
BRANCH  11  14
HETATM   14  C   UNL     1     -43.656  56.767 -60.360  1.00  0.00     0.034 C 
HETATM   15  C   UNL     1     -44.635  55.651 -60.693  1.00  0.00     0.010 C 
ENDBRANCH  11  14
ENDBRANCH   7   8
BRANCH   7  16
HETATM   16  C   UNL     1     -41.940  58.071 -54.070  1.00  0.00     0.005 C 
HETATM   17  C   UNL     1     -43.122  58.358 -53.137  1.00  0.00     0.012 C 
HETATM   18  C   UNL     1     -40.622  58.263 -53.310  1.00  0.00     0.012 C 
ENDBRANCH   7  16
ENDBRANCH   1   7
BRANCH   3  19
HETATM   19  N   UNL     1     -40.394  53.460 -52.517  1.00  0.00    -0.244 N 
HETATM   20  C   UNL     1     -40.187  52.175 -52.931  1.00  0.00     0.086 A 
HETATM   21  C   UNL     1     -39.783  51.529 -51.763  1.00  0.00     0.086 A 
HETATM   22  C   UNL     1     -40.308  51.524 -54.164  1.00  0.00     0.034 A 
HETATM   23  C   UNL     1     -39.468  50.163 -51.815  1.00  0.00     0.034 A 
HETATM   24  N   UNL     1     -39.775  52.392 -50.687  1.00  0.00    -0.240 NA
HETATM   25  C   UNL     1     -39.577  49.490 -53.039  1.00  0.00     0.002 A 
HETATM   26  C   UNL     1     -39.992  50.161 -54.191  1.00  0.00     0.002 A 
HETATM   27  C   UNL     1     -40.152  53.554 -51.180  1.00  0.00     0.234 A 
ENDBRANCH   3  19
TORSDOF 5
ENDMDL
MODEL 2
REMARK VINA RESULT:      -8.2      2.136      7.257
REMARK  5 active torsions:
REMARK  status: ('A' for Active; 'I' for Inactive)
REMARK    1  A    between atoms: C_2  and  C_3 
REMARK    2  A    between atoms: C_6  and  C_7 
REMARK    3  A    between atoms: C_7  and  N_8 
REMARK    4  A    between atoms: C_7  and  C_21 
REMARK       I    between atoms: N_8  and  C_9 
REMARK       I    between atoms: C_9  and  N_10 
REMARK    5  A    between atoms: N_10  and  N_11 
ROOT
HETATM    1  N   UNL     1     -41.696  56.685 -53.618  1.00  0.00    -0.333 N 
HETATM    2  C   UNL     1     -42.264  57.270 -54.705  1.00  0.00     0.335 C 
HETATM    3  N   UNL     1     -43.375  56.657 -55.196  1.00  0.00    -0.244 N 
HETATM    4  O   UNL     1     -41.771  58.299 -55.153  1.00  0.00    -0.246 OA
HETATM    5  H   UNL     1     -40.858  57.164 -53.316  1.00  0.00     0.165 HD
HETATM    6  H   UNL     1     -43.395  55.648 -55.198  1.00  0.00     0.192 HD
ENDROOT
BRANCH   1   7
HETATM    7  C   UNL     1     -42.223  55.616 -52.775  1.00  0.00     0.122 C 
BRANCH   7   8
HETATM    8  C   UNL     1     -41.434  54.321 -52.912  1.00  0.00    -0.035 A 
HETATM    9  C   UNL     1     -40.693  53.773 -51.855  1.00  0.00     0.010 A 
HETATM   10  C   UNL     1     -40.031  52.550 -52.005  1.00  0.00     0.007 A 
HETATM   11  C   UNL     1     -40.093  51.847 -53.213  1.00  0.00    -0.059 A 
HETATM   12  C   UNL     1     -40.827  52.389 -54.272  1.00  0.00     0.007 A 
HETATM   13  C   UNL     1     -41.487  53.613 -54.124  1.00  0.00     0.010 A 
BRANCH  11  14
HETATM   14  C   UNL     1     -39.423  50.505 -53.355  1.00  0.00     0.034 C 
HETATM   15  C   UNL     1     -39.797  49.822 -54.662  1.00  0.00     0.010 C 
ENDBRANCH  11  14
ENDBRANCH   7   8
BRANCH   7  16
HETATM   16  C   UNL     1     -42.377  56.062 -51.295  1.00  0.00     0.005 C 
HETATM   17  C   UNL     1     -41.506  57.263 -50.908  1.00  0.00     0.012 C 
HETATM   18  C   UNL     1     -43.844  56.358 -50.964  1.00  0.00     0.012 C 
ENDBRANCH   7  16
ENDBRANCH   1   7
BRANCH   3  19
HETATM   19  N   UNL     1     -44.015  57.223 -56.245  1.00  0.00    -0.244 N 
HETATM   20  C   UNL     1     -43.756  56.903 -57.547  1.00  0.00     0.086 A 
HETATM   21  C   UNL     1     -44.512  57.836 -58.257  1.00  0.00     0.086 A 
HETATM   22  C   UNL     1     -42.963  55.930 -58.166  1.00  0.00     0.034 A 
HETATM   23  C   UNL     1     -44.496  57.800 -59.659  1.00  0.00     0.034 A 
HETATM   24  N   UNL     1     -45.177  58.695 -57.408  1.00  0.00    -0.240 NA
HETATM   25  C   UNL     1     -43.712  56.832 -60.302  1.00  0.00     0.002 A 
HETATM   26  C   UNL     1     -42.959  55.916 -59.565  1.00  0.00     0.002 A 
HETATM   27  C   UNL     1     -44.852  58.296 -56.195  1.00  0.00     0.234 A 
ENDBRANCH   3  19
TORSDOF 5
ENDMDL
MODEL 3
REMARK VINA RESULT:      -8.1      3.044      8.032
REMARK  5 active torsions:
REMARK  status: ('A' for Active; 'I' for Inactive)
REMARK    1  A    between atoms: C_2  and  C_3 
REMARK    2  A    between atoms: C_6  and  C_7 
REMARK    3  A    between atoms: C_7  and  N_8 
REMARK    4  A    between atoms: C_7  and  C_21 
REMARK       I    between atoms: N_8  and  C_9 
REMARK       I    between atoms: C_9  and  N_10 
REMARK    5  A    between atoms: N_10  and  N_11 
ROOT
HETATM    1  N   UNL     1     -42.184  56.801 -56.552  1.00  0.00    -0.333 N 
HETATM    2  C   UNL     1     -42.734  56.670 -57.788  1.00  0.00     0.335 C 
HETATM    3  N   UNL     1     -43.802  55.832 -57.876  1.00  0.00    -0.244 N 
HETATM    4  O   UNL     1     -42.264  57.312 -58.720  1.00  0.00    -0.246 OA
HETATM    5  H   UNL     1     -41.376  57.410 -56.553  1.00  0.00     0.165 HD
HETATM    6  H   UNL     1     -43.785  54.985 -57.326  1.00  0.00     0.192 HD
ENDROOT
BRANCH   1   7
HETATM    7  C   UNL     1     -42.701  56.339 -55.268  1.00  0.00     0.122 C 
BRANCH   7   8
HETATM    8  C   UNL     1     -41.923  55.152 -54.718  1.00  0.00    -0.035 A 
HETATM    9  C   UNL     1     -42.353  54.416 -53.604  1.00  0.00     0.010 A 
HETATM   10  C   UNL     1     -41.640  53.296 -53.168  1.00  0.00     0.007 A 
HETATM   11  C   UNL     1     -40.480  52.882 -53.833  1.00  0.00    -0.059 A 
HETATM   12  C   UNL     1     -40.044  53.612 -54.943  1.00  0.00     0.007 A 
HETATM   13  C   UNL     1     -40.755  54.735 -55.378  1.00  0.00     0.010 A 
BRANCH  11  14
HETATM   14  C   UNL     1     -39.743  51.644 -53.394  1.00  0.00     0.034 C 
HETATM   15  C   UNL     1     -40.081  50.445 -54.268  1.00  0.00     0.010 C 
ENDBRANCH  11  14
ENDBRANCH   7   8
BRANCH   7  16
HETATM   16  C   UNL     1     -42.822  57.496 -54.237  1.00  0.00     0.005 C 
HETATM   17  C   UNL     1     -41.919  58.698 -54.535  1.00  0.00     0.012 C 
HETATM   18  C   UNL     1     -44.277  57.960 -54.107  1.00  0.00     0.012 C 
ENDBRANCH   7  16
ENDBRANCH   1   7
BRANCH   3  19
HETATM   19  N   UNL     1     -44.426  55.701 -59.069  1.00  0.00    -0.244 N 
HETATM   20  C   UNL     1     -45.454  56.504 -59.473  1.00  0.00     0.086 A 
HETATM   21  C   UNL     1     -45.877  55.902 -60.659  1.00  0.00     0.086 A 
HETATM   22  C   UNL     1     -46.046  57.657 -58.946  1.00  0.00     0.034 A 
HETATM   23  C   UNL     1     -46.938  56.476 -61.373  1.00  0.00     0.034 A 
HETATM   24  N   UNL     1     -45.143  54.768 -60.936  1.00  0.00    -0.240 NA
HETATM   25  C   UNL     1     -47.546  57.634 -60.868  1.00  0.00     0.002 A 
HETATM   26  C   UNL     1     -47.106  58.211 -59.674  1.00  0.00     0.002 A 
HETATM   27  C   UNL     1     -44.273  54.674 -59.950  1.00  0.00     0.234 A 
ENDBRANCH   3  19
TORSDOF 5
ENDMDL
MODEL 4
REMARK VINA RESULT:      -7.8      2.579      7.383
REMARK  5 active torsions:
REMARK  status: ('A' for Active; 'I' for Inactive)
REMARK    1  A    between atoms: C_2  and  C_3 
REMARK    2  A    between atoms: C_6  and  C_7 
REMARK    3  A    between atoms: C_7  and  N_8 
REMARK    4  A    between atoms: C_7  and  C_21 
REMARK       I    between atoms: N_8  and  C_9 
REMARK       I    between atoms: C_9  and  N_10 
REMARK    5  A    between atoms: N_10  and  N_11 
ROOT
HETATM    1  N   UNL     1     -41.620  57.149 -55.442  1.00  0.00    -0.333 N 
HETATM    2  C   UNL     1     -42.438  57.386 -56.501  1.00  0.00     0.335 C 
HETATM    3  N   UNL     1     -43.685  56.849 -56.419  1.00  0.00    -0.244 N 
HETATM    4  O   UNL     1     -42.026  58.070 -57.431  1.00  0.00    -0.246 OA
HETATM    5  H   UNL     1     -40.698  57.545 -55.572  1.00  0.00     0.165 HD
HETATM    6  H   UNL     1     -43.778  55.931 -56.008  1.00  0.00     0.192 HD
ENDROOT
BRANCH   1   7
HETATM    7  C   UNL     1     -41.952  56.580 -54.140  1.00  0.00     0.122 C 
BRANCH   7   8
HETATM    8  C   UNL     1     -41.301  55.225 -53.910  1.00  0.00    -0.035 A 
HETATM    9  C   UNL     1     -41.312  54.581 -52.664  1.00  0.00     0.010 A 
HETATM   10  C   UNL     1     -40.753  53.309 -52.511  1.00  0.00     0.007 A 
HETATM   11  C   UNL     1     -40.169  52.648 -53.598  1.00  0.00    -0.059 A 
HETATM   12  C   UNL     1     -40.151  53.285 -54.842  1.00  0.00     0.007 A 
HETATM   13  C   UNL     1     -40.707  54.559 -54.996  1.00  0.00     0.010 A 
BRANCH  11  14
HETATM   14  C   UNL     1     -39.615  51.256 -53.442  1.00  0.00     0.034 C 
HETATM   15  C   UNL     1     -40.267  50.278 -54.408  1.00  0.00     0.010 C 
ENDBRANCH  11  14
ENDBRANCH   7   8
BRANCH   7  16
HETATM   16  C   UNL     1     -41.672  57.577 -52.980  1.00  0.00     0.005 C 
HETATM   17  C   UNL     1     -40.624  58.645 -53.311  1.00  0.00     0.012 C 
HETATM   18  C   UNL     1     -42.968  58.249 -52.513  1.00  0.00     0.012 C 
ENDBRANCH   7  16
ENDBRANCH   1   7
BRANCH   3  19
HETATM   19  N   UNL     1     -44.563  57.095 -57.419  1.00  0.00    -0.244 N 
HETATM   20  C   UNL     1     -44.622  56.358 -58.567  1.00  0.00     0.086 A 
HETATM   21  C   UNL     1     -45.533  57.068 -59.350  1.00  0.00     0.086 A 
HETATM   22  C   UNL     1     -43.996  55.183 -58.997  1.00  0.00     0.034 A 
HETATM   23  C   UNL     1     -45.854  56.586 -60.627  1.00  0.00     0.034 A 
HETATM   24  N   UNL     1     -45.979  58.200 -58.701  1.00  0.00    -0.240 NA
HETATM   25  C   UNL     1     -45.243  55.408 -61.079  1.00  0.00     0.002 A 
HETATM   26  C   UNL     1     -44.328  54.722 -60.276  1.00  0.00     0.002 A 
HETATM   27  C   UNL     1     -45.369  58.187 -57.533  1.00  0.00     0.234 A 
ENDBRANCH   3  19
TORSDOF 5
ENDMDL
MODEL 5
REMARK VINA RESULT:      -7.2      2.478      7.881
REMARK  5 active torsions:
REMARK  status: ('A' for Active; 'I' for Inactive)
REMARK    1  A    between atoms: C_2  and  C_3 
REMARK    2  A    between atoms: C_6  and  C_7 
REMARK    3  A    between atoms: C_7  and  N_8 
REMARK    4  A    between atoms: C_7  and  C_21 
REMARK       I    between atoms: N_8  and  C_9 
REMARK       I    between atoms: C_9  and  N_10 
REMARK    5  A    between atoms: N_10  and  N_11 
ROOT
HETATM    1  N   UNL     1     -42.878  55.542 -53.146  1.00  0.00    -0.333 N 
HETATM    2  C   UNL     1     -43.181  56.768 -52.643  1.00  0.00     0.335 C 
HETATM    3  N   UNL     1     -42.194  57.702 -52.721  1.00  0.00    -0.244 N 
HETATM    4  O   UNL     1     -44.300  56.963 -52.182  1.00  0.00    -0.246 OA
HETATM    5  H   UNL     1     -43.635  54.881 -53.032  1.00  0.00     0.165 HD
HETATM    6  H   UNL     1     -41.244  57.400 -52.561  1.00  0.00     0.192 HD
ENDROOT
BRANCH   1   7
HETATM    7  C   UNL     1     -41.724  55.142 -53.945  1.00  0.00     0.122 C 
BRANCH   7   8
HETATM    8  C   UNL     1     -40.992  53.945 -53.357  1.00  0.00    -0.035 A 
HETATM    9  C   UNL     1     -40.829  53.762 -51.975  1.00  0.00     0.010 A 
HETATM   10  C   UNL     1     -40.202  52.618 -51.474  1.00  0.00     0.007 A 
HETATM   11  C   UNL     1     -39.722  51.628 -52.339  1.00  0.00    -0.059 A 
HETATM   12  C   UNL     1     -39.877  51.805 -53.718  1.00  0.00     0.007 A 
HETATM   13  C   UNL     1     -40.502  52.951 -54.220  1.00  0.00     0.010 A 
BRANCH  11  14
HETATM   14  C   UNL     1     -39.093  50.371 -51.796  1.00  0.00     0.034 C 
HETATM   15  C   UNL     1     -39.859  49.830 -50.597  1.00  0.00     0.010 C 
ENDBRANCH  11  14
ENDBRANCH   7   8
BRANCH   7  16
HETATM   16  C   UNL     1     -42.095  54.933 -55.440  1.00  0.00     0.005 C 
HETATM   17  C   UNL     1     -43.375  54.120 -55.661  1.00  0.00     0.012 C 
HETATM   18  C   UNL     1     -42.203  56.278 -56.168  1.00  0.00     0.012 C 
ENDBRANCH   7  16
ENDBRANCH   1   7
BRANCH   3  19
HETATM   19  N   UNL     1     -42.455  58.956 -52.286  1.00  0.00    -0.244 N 
HETATM   20  C   UNL     1     -42.888  59.961 -53.103  1.00  0.00     0.086 A 
HETATM   21  C   UNL     1     -42.855  61.080 -52.269  1.00  0.00     0.086 A 
HETATM   22  C   UNL     1     -43.291  60.015 -54.442  1.00  0.00     0.034 A 
HETATM   23  C   UNL     1     -43.254  62.323 -52.782  1.00  0.00     0.034 A 
HETATM   24  N   UNL     1     -42.395  60.756 -51.010  1.00  0.00    -0.240 NA
HETATM   25  C   UNL     1     -43.666  62.402 -54.120  1.00  0.00     0.002 A 
HETATM   26  C   UNL     1     -43.681  61.267 -54.933  1.00  0.00     0.002 A 
HETATM   27  C   UNL     1     -42.160  59.460 -51.056  1.00  0.00     0.234 A 
ENDBRANCH   3  19
TORSDOF 5
ENDMDL
MODEL 6
REMARK VINA RESULT:      -7.1      5.127      9.587
REMARK  5 active torsions:
REMARK  status: ('A' for Active; 'I' for Inactive)
REMARK    1  A    between atoms: C_2  and  C_3 
REMARK    2  A    between atoms: C_6  and  C_7 
REMARK    3  A    between atoms: C_7  and  N_8 
REMARK    4  A    between atoms: C_7  and  C_21 
REMARK       I    between atoms: N_8  and  C_9 
REMARK       I    between atoms: C_9  and  N_10 
REMARK    5  A    between atoms: N_10  and  N_11 
ROOT
HETATM    1  N   UNL     1     -44.575  57.842 -50.958  1.00  0.00    -0.333 N 
HETATM    2  C   UNL     1     -45.333  58.875 -50.504  1.00  0.00     0.335 C 
HETATM    3  N   UNL     1     -44.654  60.003 -50.161  1.00  0.00    -0.244 N 
HETATM    4  O   UNL     1     -46.551  58.744 -50.454  1.00  0.00    -0.246 OA
HETATM    5  H   UNL     1     -45.129  57.022 -51.168  1.00  0.00     0.165 HD
HETATM    6  H   UNL     1     -43.762  59.896 -49.699  1.00  0.00     0.192 HD
ENDROOT
BRANCH   1   7
HETATM    7  C   UNL     1     -43.163  57.838 -51.328  1.00  0.00     0.122 C 
BRANCH   7   8
HETATM    8  C   UNL     1     -42.480  56.516 -51.010  1.00  0.00    -0.035 A 
HETATM    9  C   UNL     1     -42.968  55.283 -51.466  1.00  0.00     0.010 A 
HETATM   10  C   UNL     1     -42.277  54.097 -51.201  1.00  0.00     0.007 A 
HETATM   11  C   UNL     1     -41.081  54.114 -50.474  1.00  0.00    -0.059 A 
HETATM   12  C   UNL     1     -40.590  55.339 -50.013  1.00  0.00     0.007 A 
HETATM   13  C   UNL     1     -41.282  56.525 -50.275  1.00  0.00     0.010 A 
BRANCH  11  14
HETATM   14  C   UNL     1     -40.310  52.841 -50.235  1.00  0.00     0.034 C 
HETATM   15  C   UNL     1     -39.826  52.221 -51.537  1.00  0.00     0.010 C 
ENDBRANCH  11  14
ENDBRANCH   7   8
BRANCH   7  16
HETATM   16  C   UNL     1     -42.946  58.277 -52.803  1.00  0.00     0.005 C 
HETATM   17  C   UNL     1     -44.211  58.223 -53.666  1.00  0.00     0.012 C 
HETATM   18  C   UNL     1     -42.333  59.681 -52.869  1.00  0.00     0.012 C 
ENDBRANCH   7  16
ENDBRANCH   1   7
BRANCH   3  19
HETATM   19  N   UNL     1     -45.358  61.083 -49.753  1.00  0.00    -0.244 N 
HETATM   20  C   UNL     1     -45.651  61.340 -48.444  1.00  0.00     0.086 A 
HETATM   21  C   UNL     1     -46.514  62.434 -48.523  1.00  0.00     0.086 A 
HETATM   22  C   UNL     1     -45.270  60.752 -47.233  1.00  0.00     0.034 A 
HETATM   23  C   UNL     1     -47.022  62.988 -47.339  1.00  0.00     0.034 A 
HETATM   24  N   UNL     1     -46.745  62.798 -49.833  1.00  0.00    -0.240 NA
HETATM   25  C   UNL     1     -46.652  62.418 -46.113  1.00  0.00     0.002 A 
HETATM   26  C   UNL     1     -45.793  61.318 -46.064  1.00  0.00     0.002 A 
HETATM   27  C   UNL     1     -46.030  61.957 -50.553  1.00  0.00     0.234 A 
ENDBRANCH   3  19
TORSDOF 5
ENDMDL
MODEL 7
REMARK VINA RESULT:      -7.1     14.530     17.828
REMARK  5 active torsions:
REMARK  status: ('A' for Active; 'I' for Inactive)
REMARK    1  A    between atoms: C_2  and  C_3 
REMARK    2  A    between atoms: C_6  and  C_7 
REMARK    3  A    between atoms: C_7  and  N_8 
REMARK    4  A    between atoms: C_7  and  C_21 
REMARK       I    between atoms: N_8  and  C_9 
REMARK       I    between atoms: C_9  and  N_10 
REMARK    5  A    between atoms: N_10  and  N_11 
ROOT
HETATM    1  N   UNL     1     -33.382  40.716 -54.088  1.00  0.00    -0.333 N 
HETATM    2  C   UNL     1     -33.639  40.431 -55.391  1.00  0.00     0.335 C 
HETATM    3  N   UNL     1     -34.828  39.819 -55.642  1.00  0.00    -0.244 N 
HETATM    4  O   UNL     1     -32.819  40.753 -56.244  1.00  0.00    -0.246 OA
HETATM    5  H   UNL     1     -32.473  41.141 -53.958  1.00  0.00     0.165 HD
HETATM    6  H   UNL     1     -35.149  39.124 -54.984  1.00  0.00     0.192 HD
ENDROOT
BRANCH   1   7
HETATM    7  C   UNL     1     -34.285  40.651 -52.943  1.00  0.00     0.122 C 
BRANCH   7   8
HETATM    8  C   UNL     1     -33.592  40.166 -51.678  1.00  0.00    -0.035 A 
HETATM    9  C   UNL     1     -32.221  40.354 -51.447  1.00  0.00     0.010 A 
HETATM   10  C   UNL     1     -31.636  39.946 -50.245  1.00  0.00     0.007 A 
HETATM   11  C   UNL     1     -32.404  39.338 -49.245  1.00  0.00    -0.059 A 
HETATM   12  C   UNL     1     -33.770  39.144 -49.471  1.00  0.00     0.007 A 
HETATM   13  C   UNL     1     -34.357  39.549 -50.673  1.00  0.00     0.010 A 
BRANCH  11  14
HETATM   14  C   UNL     1     -31.782  38.946 -47.930  1.00  0.00     0.034 C 
HETATM   15  C   UNL     1     -30.859  40.032 -47.396  1.00  0.00     0.010 C 
ENDBRANCH  11  14
ENDBRANCH   7   8
BRANCH   7  16
HETATM   16  C   UNL     1     -35.047  41.988 -52.725  1.00  0.00     0.005 C 
HETATM   17  C   UNL     1     -36.573  41.852 -52.752  1.00  0.00     0.012 C 
HETATM   18  C   UNL     1     -34.610  42.658 -51.417  1.00  0.00     0.012 C 
ENDBRANCH   7  16
ENDBRANCH   1   7
BRANCH   3  19
HETATM   19  N   UNL     1     -35.163  39.559 -56.926  1.00  0.00    -0.244 N 
HETATM   20  C   UNL     1     -35.890  40.416 -57.703  1.00  0.00     0.086 A 
HETATM   21  C   UNL     1     -36.128  39.669 -58.858  1.00  0.00     0.086 A 
HETATM   22  C   UNL     1     -36.354  41.724 -57.528  1.00  0.00     0.034 A 
HETATM   23  C   UNL     1     -36.857  40.250 -59.906  1.00  0.00     0.034 A 
HETATM   24  N   UNL     1     -35.585  38.405 -58.760  1.00  0.00    -0.240 NA
HETATM   25  C   UNL     1     -37.329  41.561 -59.756  1.00  0.00     0.002 A 
HETATM   26  C   UNL     1     -37.082  42.282 -58.585  1.00  0.00     0.002 A 
HETATM   27  C   UNL     1     -35.009  38.372 -57.575  1.00  0.00     0.234 A 
ENDBRANCH   3  19
TORSDOF 5
ENDMDL
MODEL 8
REMARK VINA RESULT:      -7.0     14.781     17.813
REMARK  5 active torsions:
REMARK  status: ('A' for Active; 'I' for Inactive)
REMARK    1  A    between atoms: C_2  and  C_3 
REMARK    2  A    between atoms: C_6  and  C_7 
REMARK    3  A    between atoms: C_7  and  N_8 
REMARK    4  A    between atoms: C_7  and  C_21 
REMARK       I    between atoms: N_8  and  C_9 
REMARK       I    between atoms: C_9  and  N_10 
REMARK    5  A    between atoms: N_10  and  N_11 
ROOT
HETATM    1  N   UNL     1     -35.369  41.049 -51.410  1.00  0.00    -0.333 N 
HETATM    2  C   UNL     1     -35.340  41.517 -52.686  1.00  0.00     0.335 C 
HETATM    3  N   UNL     1     -35.013  40.607 -53.644  1.00  0.00    -0.244 N 
HETATM    4  O   UNL     1     -35.624  42.691 -52.897  1.00  0.00    -0.246 OA
HETATM    5  H   UNL     1     -35.587  41.775 -50.739  1.00  0.00     0.165 HD
HETATM    6  H   UNL     1     -34.301  39.926 -53.425  1.00  0.00     0.192 HD
ENDROOT
BRANCH   1   7
HETATM    7  C   UNL     1     -35.306  39.668 -50.941  1.00  0.00     0.122 C 
BRANCH   7   8
HETATM    8  C   UNL     1     -34.141  39.426 -49.993  1.00  0.00    -0.035 A 
HETATM    9  C   UNL     1     -33.010  40.256 -49.957  1.00  0.00     0.010 A 
HETATM   10  C   UNL     1     -31.988  40.032 -49.029  1.00  0.00     0.007 A 
HETATM   11  C   UNL     1     -32.071  38.976 -48.115  1.00  0.00    -0.059 A 
HETATM   12  C   UNL     1     -33.194  38.143 -48.148  1.00  0.00     0.007 A 
HETATM   13  C   UNL     1     -34.214  38.363 -49.077  1.00  0.00     0.010 A 
BRANCH  11  14
HETATM   14  C   UNL     1     -30.994  38.769 -47.081  1.00  0.00     0.034 C 
HETATM   15  C   UNL     1     -30.443  40.090 -46.567  1.00  0.00     0.010 C 
ENDBRANCH  11  14
ENDBRANCH   7   8
BRANCH   7  16
HETATM   16  C   UNL     1     -36.661  39.191 -50.349  1.00  0.00     0.005 C 
HETATM   17  C   UNL     1     -37.094  39.946 -49.086  1.00  0.00     0.012 C 
HETATM   18  C   UNL     1     -37.773  39.263 -51.402  1.00  0.00     0.012 C 
ENDBRANCH   7  16
ENDBRANCH   1   7
BRANCH   3  19
HETATM   19  N   UNL     1     -35.020  41.001 -54.938  1.00  0.00    -0.244 N 
HETATM   20  C   UNL     1     -36.135  40.977 -55.726  1.00  0.00     0.086 A 
HETATM   21  C   UNL     1     -35.635  41.298 -56.989  1.00  0.00     0.086 A 
HETATM   22  C   UNL     1     -37.488  40.715 -55.482  1.00  0.00     0.034 A 
HETATM   23  C   UNL     1     -36.522  41.377 -58.072  1.00  0.00     0.034 A 
HETATM   24  N   UNL     1     -34.269  41.481 -56.957  1.00  0.00    -0.240 NA
HETATM   25  C   UNL     1     -37.883  41.122 -57.852  1.00  0.00     0.002 A 
HETATM   26  C   UNL     1     -38.354  40.795 -56.579  1.00  0.00     0.002 A 
HETATM   27  C   UNL     1     -33.928  41.291 -55.699  1.00  0.00     0.234 A 
ENDBRANCH   3  19
TORSDOF 5
ENDMDL
MODEL 9
REMARK VINA RESULT:      -7.0      2.466      7.956
REMARK  5 active torsions:
REMARK  status: ('A' for Active; 'I' for Inactive)
REMARK    1  A    between atoms: C_2  and  C_3 
REMARK    2  A    between atoms: C_6  and  C_7 
REMARK    3  A    between atoms: C_7  and  N_8 
REMARK    4  A    between atoms: C_7  and  C_21 
REMARK       I    between atoms: N_8  and  C_9 
REMARK       I    between atoms: C_9  and  N_10 
REMARK    5  A    between atoms: N_10  and  N_11 
ROOT
HETATM    1  N   UNL     1     -42.865  55.491 -53.249  1.00  0.00    -0.333 N 
HETATM    2  C   UNL     1     -43.274  56.778 -53.095  1.00  0.00     0.335 C 
HETATM    3  N   UNL     1     -42.429  57.730 -53.575  1.00  0.00    -0.244 N 
HETATM    4  O   UNL     1     -44.358  56.999 -52.568  1.00  0.00    -0.246 OA
HETATM    5  H   UNL     1     -43.516  54.829 -52.846  1.00  0.00     0.165 HD
HETATM    6  H   UNL     1     -41.437  57.584 -53.460  1.00  0.00     0.192 HD
ENDROOT
BRANCH   1   7
HETATM    7  C   UNL     1     -41.752  54.974 -54.040  1.00  0.00     0.122 C 
BRANCH   7   8
HETATM    8  C   UNL     1     -40.994  53.864 -53.326  1.00  0.00    -0.035 A 
HETATM    9  C   UNL     1     -40.836  53.830 -51.933  1.00  0.00     0.010 A 
HETATM   10  C   UNL     1     -40.184  52.761 -51.312  1.00  0.00     0.007 A 
HETATM   11  C   UNL     1     -39.673  51.699 -52.068  1.00  0.00    -0.059 A 
HETATM   12  C   UNL     1     -39.823  51.728 -53.458  1.00  0.00     0.007 A 
HETATM   13  C   UNL     1     -40.473  52.798 -54.080  1.00  0.00     0.010 A 
BRANCH  11  14
HETATM   14  C   UNL     1     -39.017  50.523 -51.393  1.00  0.00     0.034 C 
HETATM   15  C   UNL     1     -40.033  49.465 -50.988  1.00  0.00     0.010 C 
ENDBRANCH  11  14
ENDBRANCH   7   8
BRANCH   7  16
HETATM   16  C   UNL     1     -42.196  54.563 -55.471  1.00  0.00     0.005 C 
HETATM   17  C   UNL     1     -43.572  53.889 -55.532  1.00  0.00     0.012 C 
HETATM   18  C   UNL     1     -42.167  55.768 -56.419  1.00  0.00     0.012 C 
ENDBRANCH   7  16
ENDBRANCH   1   7
BRANCH   3  19
HETATM   19  N   UNL     1     -42.806  59.027 -53.499  1.00  0.00    -0.244 N 
HETATM   20  C   UNL     1     -42.675  59.784 -52.369  1.00  0.00     0.086 A 
HETATM   21  C   UNL     1     -43.336  60.966 -52.704  1.00  0.00     0.086 A 
HETATM   22  C   UNL     1     -42.070  59.571 -51.125  1.00  0.00     0.034 A 
HETATM   23  C   UNL     1     -43.395  62.004 -51.762  1.00  0.00     0.034 A 
HETATM   24  N   UNL     1     -43.863  60.905 -53.977  1.00  0.00    -0.240 NA
HETATM   25  C   UNL     1     -42.794  61.815 -50.510  1.00  0.00     0.002 A 
HETATM   26  C   UNL     1     -42.145  60.618 -50.200  1.00  0.00     0.002 A 
HETATM   27  C   UNL     1     -43.525  59.714 -54.429  1.00  0.00     0.234 A 
ENDBRANCH   3  19
TORSDOF 5
ENDMDL
MODEL 10
REMARK VINA RESULT:      -6.9      3.125      6.182
REMARK  5 active torsions:
REMARK  status: ('A' for Active; 'I' for Inactive)
REMARK    1  A    between atoms: C_2  and  C_3 
REMARK    2  A    between atoms: C_6  and  C_7 
REMARK    3  A    between atoms: C_7  and  N_8 
REMARK    4  A    between atoms: C_7  and  C_21 
REMARK       I    between atoms: N_8  and  C_9 
REMARK       I    between atoms: C_9  and  N_10 
REMARK    5  A    between atoms: N_10  and  N_11 
ROOT
HETATM    1  N   UNL     1     -42.474  58.058 -52.735  1.00  0.00    -0.333 N 
HETATM    2  C   UNL     1     -41.561  57.068 -52.551  1.00  0.00     0.335 C 
HETATM    3  N   UNL     1     -41.944  56.051 -51.733  1.00  0.00    -0.244 N 
HETATM    4  O   UNL     1     -40.484  57.136 -53.134  1.00  0.00    -0.246 OA
HETATM    5  H   UNL     1     -42.123  58.801 -53.326  1.00  0.00     0.165 HD
HETATM    6  H   UNL     1     -42.490  56.283 -50.916  1.00  0.00     0.192 HD
ENDROOT
BRANCH   1   7
HETATM    7  C   UNL     1     -43.882  58.085 -52.351  1.00  0.00     0.122 C 
BRANCH   7   8
HETATM    8  C   UNL     1     -44.182  59.147 -51.304  1.00  0.00    -0.035 A 
HETATM    9  C   UNL     1     -45.407  59.214 -50.625  1.00  0.00     0.010 A 
HETATM   10  C   UNL     1     -45.620  60.170 -49.626  1.00  0.00     0.007 A 
HETATM   11  C   UNL     1     -44.615  61.081 -49.283  1.00  0.00    -0.059 A 
HETATM   12  C   UNL     1     -43.392  61.022 -49.958  1.00  0.00     0.007 A 
HETATM   13  C   UNL     1     -43.179  60.069 -50.958  1.00  0.00     0.010 A 
BRANCH  11  14
HETATM   14  C   UNL     1     -44.828  62.076 -48.171  1.00  0.00     0.034 C 
HETATM   15  C   UNL     1     -44.933  61.393 -46.815  1.00  0.00     0.010 C 
ENDBRANCH  11  14
ENDBRANCH   7   8
BRANCH   7  16
HETATM   16  C   UNL     1     -44.821  58.188 -53.586  1.00  0.00     0.005 C 
HETATM   17  C   UNL     1     -44.559  59.411 -54.472  1.00  0.00     0.012 C 
HETATM   18  C   UNL     1     -44.753  56.911 -54.431  1.00  0.00     0.012 C 
ENDBRANCH   7  16
ENDBRANCH   1   7
BRANCH   3  19
HETATM   19  N   UNL     1     -41.098  55.011 -51.554  1.00  0.00    -0.244 N 
HETATM   20  C   UNL     1     -40.951  53.997 -52.456  1.00  0.00     0.086 A 
HETATM   21  C   UNL     1     -40.126  53.094 -51.784  1.00  0.00     0.086 A 
HETATM   22  C   UNL     1     -41.436  53.773 -53.750  1.00  0.00     0.034 A 
HETATM   23  C   UNL     1     -39.748  51.907 -52.428  1.00  0.00     0.034 A 
HETATM   24  N   UNL     1     -39.815  53.544 -50.518  1.00  0.00    -0.240 NA
HETATM   25  C   UNL     1     -40.218  51.663 -53.726  1.00  0.00     0.002 A 
HETATM   26  C   UNL     1     -41.049  52.580 -54.371  1.00  0.00     0.002 A 
HETATM   27  C   UNL     1     -40.423  54.708 -50.411  1.00  0.00     0.234 A 
ENDBRANCH   3  19
TORSDOF 5
ENDMDL
