MODEL 1
REMARK VINA RESULT:      -7.8      0.000      0.000
REMARK  3 active torsions:
REMARK  status: ('A' for Active; 'I' for Inactive)
REMARK    1  A    between atoms: C_4  and  C_5 
REMARK    2  A    between atoms: C_12  and  N_13 
REMARK       I    between atoms: N_13  and  C_14 
REMARK    3  A    between atoms: C_14  and  C_15 
ROOT
HETATM    1  C   UNL     1     -39.991  52.452 -52.357  1.00  0.00     0.048 C 
HETATM    2  C   UNL     1     -41.059  53.484 -52.571  1.00  0.00    -0.060 A 
HETATM    3  C   UNL     1     -41.287  54.024 -53.837  1.00  0.00     0.023 A 
HETATM    4  C   UNL     1     -42.311  54.961 -54.048  1.00  0.00     0.020 A 
HETATM    5  C   UNL     1     -43.130  55.372 -52.966  1.00  0.00     0.053 A 
HETATM    6  C   UNL     1     -42.956  54.774 -51.701  1.00  0.00    -0.034 A 
HETATM    7  C   UNL     1     -43.909  54.917 -50.544  1.00  0.00     0.050 C 
HETATM    8  C   UNL     1     -41.898  53.859 -51.518  1.00  0.00     0.015 A 
ENDROOT
BRANCH   5   9
HETATM    9  N   UNL     1     -44.215  56.219 -53.261  1.00  0.00    -0.322 N 
HETATM   10  C   UNL     1     -44.483  57.517 -52.936  1.00  0.00     0.278 C 
HETATM   11  O   UNL     1     -45.625  57.925 -53.198  1.00  0.00    -0.268 OA
HETATM   12  H   UNL     1     -44.897  55.851 -53.918  1.00  0.00     0.169 HD
BRANCH  10  13
HETATM   13  C   UNL     1     -43.401  58.512 -52.431  1.00  0.00     0.366 C 
HETATM   14  O   UNL     1     -42.923  58.469 -51.087  1.00  0.00    -0.308 OA
HETATM   15  C   UNL     1     -41.596  58.699 -51.267  1.00  0.00     0.106 A 
HETATM   16  C   UNL     1     -41.243  58.666 -52.595  1.00  0.00     0.106 A 
HETATM   17  C   UNL     1     -40.672  58.946 -50.275  1.00  0.00     0.040 A 
HETATM   18  O   UNL     1     -42.312  58.429 -53.397  1.00  0.00    -0.308 OA
HETATM   19  C   UNL     1     -39.943  58.864 -53.007  1.00  0.00     0.040 A 
HETATM   20  C   UNL     1     -38.985  59.125 -52.024  1.00  0.00     0.003 A 
HETATM   21  C   UNL     1     -39.349  59.170 -50.665  1.00  0.00     0.003 A 
ENDBRANCH  10  13
ENDBRANCH   5   9
BRANCH   4  22
HETATM   22  C   UNL     1     -42.477  55.492 -55.402  1.00  0.00     0.064 A 
HETATM   23  N   UNL     1     -42.092  56.756 -55.773  1.00  0.00    -0.277 N 
HETATM   24  H   UNL     1     -41.663  57.470 -55.194  1.00  0.00     0.189 HD
HETATM   25  N   UNL     1     -42.337  57.040 -57.063  1.00  0.00    -0.179 NA
HETATM   26  C   UNL     1     -42.876  55.917 -57.548  1.00  0.00     0.053 A 
HETATM   27  C   UNL     1     -43.283  55.826 -58.971  1.00  0.00     0.072 C 
HETATM   28  C   UNL     1     -42.972  54.917 -56.554  1.00  0.00     0.060 A 
ENDBRANCH   4  22
TORSDOF 3
ENDMDL
MODEL 2
REMARK VINA RESULT:      -7.6      3.201      6.373
REMARK  3 active torsions:
REMARK  status: ('A' for Active; 'I' for Inactive)
REMARK    1  A    between atoms: C_4  and  C_5 
REMARK    2  A    between atoms: C_12  and  N_13 
REMARK       I    between atoms: N_13  and  C_14 
REMARK    3  A    between atoms: C_14  and  C_15 
ROOT
HETATM    1  C   UNL     1     -45.005  59.249 -53.900  1.00  0.00     0.048 C 
HETATM    2  C   UNL     1     -44.152  58.494 -52.924  1.00  0.00    -0.060 A 
HETATM    3  C   UNL     1     -42.866  58.932 -52.610  1.00  0.00     0.023 A 
HETATM    4  C   UNL     1     -42.080  58.248 -51.669  1.00  0.00     0.020 A 
HETATM    5  C   UNL     1     -42.591  57.093 -51.023  1.00  0.00     0.053 A 
HETATM    6  C   UNL     1     -43.917  56.690 -51.277  1.00  0.00    -0.034 A 
HETATM    7  C   UNL     1     -44.669  55.656 -50.481  1.00  0.00     0.050 C 
HETATM    8  C   UNL     1     -44.667  57.382 -52.252  1.00  0.00     0.015 A 
ENDROOT
BRANCH   5   9
HETATM    9  N   UNL     1     -41.807  56.523 -50.003  1.00  0.00    -0.322 N 
HETATM   10  C   UNL     1     -41.481  55.231 -49.708  1.00  0.00     0.278 C 
HETATM   11  O   UNL     1     -40.914  55.042 -48.621  1.00  0.00    -0.268 OA
HETATM   12  H   UNL     1     -41.298  57.179 -49.418  1.00  0.00     0.169 HD
BRANCH  10  13
HETATM   13  C   UNL     1     -41.630  54.060 -50.719  1.00  0.00     0.366 C 
HETATM   14  O   UNL     1     -41.617  54.291 -52.127  1.00  0.00    -0.308 OA
HETATM   15  C   UNL     1     -40.887  53.232 -52.565  1.00  0.00     0.106 A 
HETATM   16  C   UNL     1     -40.315  52.536 -51.527  1.00  0.00     0.106 A 
HETATM   17  C   UNL     1     -40.712  52.853 -53.878  1.00  0.00     0.040 A 
HETATM   18  O   UNL     1     -40.636  53.071 -50.321  1.00  0.00    -0.308 OA
HETATM   19  C   UNL     1     -39.522  51.429 -51.742  1.00  0.00     0.040 A 
HETATM   20  C   UNL     1     -39.334  51.015 -53.064  1.00  0.00     0.003 A 
HETATM   21  C   UNL     1     -39.930  51.722 -54.126  1.00  0.00     0.003 A 
ENDBRANCH  10  13
ENDBRANCH   5   9
BRANCH   4  22
HETATM   22  C   UNL     1     -40.735  58.762 -51.405  1.00  0.00     0.064 A 
HETATM   23  N   UNL     1     -39.772  58.900 -52.373  1.00  0.00    -0.277 N 
HETATM   24  H   UNL     1     -39.847  58.673 -53.359  1.00  0.00     0.189 HD
HETATM   25  N   UNL     1     -38.608  59.389 -51.915  1.00  0.00    -0.179 NA
HETATM   26  C   UNL     1     -38.832  59.598 -50.613  1.00  0.00     0.053 A 
HETATM   27  C   UNL     1     -37.769  60.154 -49.742  1.00  0.00     0.072 C 
HETATM   28  C   UNL     1     -40.148  59.235 -50.249  1.00  0.00     0.060 A 
ENDBRANCH   4  22
TORSDOF 3
ENDMDL
MODEL 3
REMARK VINA RESULT:      -7.4      2.613      6.095
REMARK  3 active torsions:
REMARK  status: ('A' for Active; 'I' for Inactive)
REMARK    1  A    between atoms: C_4  and  C_5 
REMARK    2  A    between atoms: C_12  and  N_13 
REMARK       I    between atoms: N_13  and  C_14 
REMARK    3  A    between atoms: C_14  and  C_15 
ROOT
HETATM    1  C   UNL     1     -42.166  60.171 -57.070  1.00  0.00     0.048 C 
HETATM    2  C   UNL     1     -42.400  59.373 -55.821  1.00  0.00    -0.060 A 
HETATM    3  C   UNL     1     -41.651  59.614 -54.668  1.00  0.00     0.023 A 
HETATM    4  C   UNL     1     -41.894  58.896 -53.487  1.00  0.00     0.020 A 
HETATM    5  C   UNL     1     -42.910  57.907 -53.454  1.00  0.00     0.053 A 
HETATM    6  C   UNL     1     -43.721  57.711 -54.590  1.00  0.00    -0.034 A 
HETATM    7  C   UNL     1     -44.987  56.896 -54.614  1.00  0.00     0.050 C 
HETATM    8  C   UNL     1     -43.429  58.429 -55.769  1.00  0.00     0.015 A 
ENDROOT
BRANCH   5   9
HETATM    9  N   UNL     1     -43.188  57.306 -52.212  1.00  0.00    -0.322 N 
HETATM   10  C   UNL     1     -42.763  56.144 -51.637  1.00  0.00     0.278 C 
HETATM   11  O   UNL     1     -43.341  55.803 -50.594  1.00  0.00    -0.268 OA
HETATM   12  H   UNL     1     -43.730  57.868 -51.561  1.00  0.00     0.169 HD
BRANCH  10  13
HETATM   13  C   UNL     1     -41.515  55.357 -52.125  1.00  0.00     0.366 C 
HETATM   14  O   UNL     1     -40.817  54.462 -51.260  1.00  0.00    -0.308 OA
HETATM   15  C   UNL     1     -40.533  53.438 -52.106  1.00  0.00     0.106 A 
HETATM   16  C   UNL     1     -41.177  53.573 -53.313  1.00  0.00     0.106 A 
HETATM   17  C   UNL     1     -39.704  52.370 -51.840  1.00  0.00     0.040 A 
HETATM   18  O   UNL     1     -41.923  54.706 -53.364  1.00  0.00    -0.308 OA
HETATM   19  C   UNL     1     -41.040  52.642 -54.319  1.00  0.00     0.040 A 
HETATM   20  C   UNL     1     -40.198  51.552 -54.081  1.00  0.00     0.003 A 
HETATM   21  C   UNL     1     -39.530  51.420 -52.849  1.00  0.00     0.003 A 
ENDBRANCH  10  13
ENDBRANCH   5   9
BRANCH   4  22
HETATM   22  C   UNL     1     -41.057  59.197 -52.325  1.00  0.00     0.064 A 
HETATM   23  N   UNL     1     -41.542  59.729 -51.157  1.00  0.00    -0.277 N 
HETATM   24  H   UNL     1     -42.501  59.982 -50.942  1.00  0.00     0.189 HD
HETATM   25  N   UNL     1     -40.602  59.928 -50.219  1.00  0.00    -0.179 NA
HETATM   26  C   UNL     1     -39.475  59.487 -50.789  1.00  0.00     0.053 A 
HETATM   27  C   UNL     1     -38.188  59.530 -50.052  1.00  0.00     0.072 C 
HETATM   28  C   UNL     1     -39.708  59.009 -52.097  1.00  0.00     0.060 A 
ENDBRANCH   4  22
TORSDOF 3
ENDMDL
MODEL 4
REMARK VINA RESULT:      -7.4      2.400      5.132
REMARK  3 active torsions:
REMARK  status: ('A' for Active; 'I' for Inactive)
REMARK    1  A    between atoms: C_4  and  C_5 
REMARK    2  A    between atoms: C_12  and  N_13 
REMARK       I    between atoms: N_13  and  C_14 
REMARK    3  A    between atoms: C_14  and  C_15 
ROOT
HETATM    1  C   UNL     1     -39.155  59.617 -50.587  1.00  0.00     0.048 C 
HETATM    2  C   UNL     1     -40.226  58.718 -51.131  1.00  0.00    -0.060 A 
HETATM    3  C   UNL     1     -40.681  58.860 -52.442  1.00  0.00     0.023 A 
HETATM    4  C   UNL     1     -41.655  57.995 -52.965  1.00  0.00     0.020 A 
HETATM    5  C   UNL     1     -42.193  56.960 -52.158  1.00  0.00     0.053 A 
HETATM    6  C   UNL     1     -41.683  56.762 -50.859  1.00  0.00    -0.034 A 
HETATM    7  C   UNL     1     -41.966  55.559 -49.998  1.00  0.00     0.050 C 
HETATM    8  C   UNL     1     -40.726  57.668 -50.355  1.00  0.00     0.015 A 
ENDROOT
BRANCH   5   9
HETATM    9  N   UNL     1     -43.075  56.052 -52.773  1.00  0.00    -0.322 N 
HETATM   10  C   UNL     1     -42.865  54.923 -53.510  1.00  0.00     0.278 C 
HETATM   11  O   UNL     1     -43.860  54.441 -54.073  1.00  0.00    -0.268 OA
HETATM   12  H   UNL     1     -44.061  56.184 -52.567  1.00  0.00     0.169 HD
BRANCH  10  13
HETATM   13  C   UNL     1     -41.515  54.152 -53.526  1.00  0.00     0.366 C 
HETATM   14  O   UNL     1     -40.913  53.687 -52.319  1.00  0.00    -0.308 OA
HETATM   15  C   UNL     1     -40.445  52.471 -52.704  1.00  0.00     0.106 A 
HETATM   16  C   UNL     1     -40.900  52.116 -53.952  1.00  0.00     0.106 A 
HETATM   17  C   UNL     1     -39.610  51.653 -51.975  1.00  0.00     0.040 A 
HETATM   18  O   UNL     1     -41.690  53.078 -54.495  1.00  0.00    -0.308 OA
HETATM   19  C   UNL     1     -40.559  50.916 -54.537  1.00  0.00     0.040 A 
HETATM   20  C   UNL     1     -39.705  50.069 -53.824  1.00  0.00     0.003 A 
HETATM   21  C   UNL     1     -39.231  50.438 -52.551  1.00  0.00     0.003 A 
ENDBRANCH  10  13
ENDBRANCH   5   9
BRANCH   4  22
HETATM   22  C   UNL     1     -42.092  58.219 -54.344  1.00  0.00     0.064 A 
HETATM   23  N   UNL     1     -42.944  59.227 -54.716  1.00  0.00    -0.277 N 
HETATM   24  H   UNL     1     -43.377  59.926 -54.121  1.00  0.00     0.189 HD
HETATM   25  N   UNL     1     -43.215  59.251 -56.032  1.00  0.00    -0.179 NA
HETATM   26  C   UNL     1     -42.496  58.240 -56.531  1.00  0.00     0.053 A 
HETATM   27  C   UNL     1     -42.520  57.940 -57.983  1.00  0.00     0.072 C 
HETATM   28  C   UNL     1     -41.768  57.574 -55.521  1.00  0.00     0.060 A 
ENDBRANCH   4  22
TORSDOF 3
ENDMDL
MODEL 5
REMARK VINA RESULT:      -7.3      2.733      5.946
REMARK  3 active torsions:
REMARK  status: ('A' for Active; 'I' for Inactive)
REMARK    1  A    between atoms: C_4  and  C_5 
REMARK    2  A    between atoms: C_12  and  N_13 
REMARK       I    between atoms: N_13  and  C_14 
REMARK    3  A    between atoms: C_14  and  C_15 
ROOT
HETATM    1  C   UNL     1     -41.363  60.650 -57.747  1.00  0.00     0.048 C 
HETATM    2  C   UNL     1     -41.990  59.438 -57.124  1.00  0.00    -0.060 A 
HETATM    3  C   UNL     1     -42.427  59.461 -55.799  1.00  0.00     0.023 A 
HETATM    4  C   UNL     1     -43.049  58.341 -55.226  1.00  0.00     0.020 A 
HETATM    5  C   UNL     1     -43.238  57.163 -55.993  1.00  0.00     0.053 A 
HETATM    6  C   UNL     1     -42.869  57.159 -57.353  1.00  0.00    -0.034 A 
HETATM    7  C   UNL     1     -43.246  56.088 -58.343  1.00  0.00     0.050 C 
HETATM    8  C   UNL     1     -42.219  58.291 -57.888  1.00  0.00     0.015 A 
ENDROOT
BRANCH   5   9
HETATM    9  N   UNL     1     -43.974  56.118 -55.403  1.00  0.00    -0.322 N 
HETATM   10  C   UNL     1     -43.595  54.978 -54.756  1.00  0.00     0.278 C 
HETATM   11  O   UNL     1     -44.495  54.160 -54.512  1.00  0.00    -0.268 OA
HETATM   12  H   UNL     1     -44.979  56.260 -55.352  1.00  0.00     0.169 HD
BRANCH  10  13
HETATM   13  C   UNL     1     -42.168  54.756 -54.183  1.00  0.00     0.366 C 
HETATM   14  O   UNL     1     -41.897  54.904 -52.790  1.00  0.00    -0.308 OA
HETATM   15  C   UNL     1     -41.042  53.871 -52.572  1.00  0.00     0.106 A 
HETATM   16  C   UNL     1     -40.961  53.031 -53.657  1.00  0.00     0.106 A 
HETATM   17  C   UNL     1     -40.316  53.645 -51.423  1.00  0.00     0.040 A 
HETATM   18  O   UNL     1     -41.743  53.455 -54.683  1.00  0.00    -0.308 OA
HETATM   19  C   UNL     1     -40.160  51.910 -53.652  1.00  0.00     0.040 A 
HETATM   20  C   UNL     1     -39.404  51.661 -52.503  1.00  0.00     0.003 A 
HETATM   21  C   UNL     1     -39.479  52.527 -51.396  1.00  0.00     0.003 A 
ENDBRANCH  10  13
ENDBRANCH   5   9
BRANCH   4  22
HETATM   22  C   UNL     1     -43.466  58.438 -53.826  1.00  0.00     0.064 A 
HETATM   23  N   UNL     1     -42.690  58.025 -52.772  1.00  0.00    -0.277 N 
HETATM   24  H   UNL     1     -41.765  57.611 -52.808  1.00  0.00     0.189 HD
HETATM   25  N   UNL     1     -43.266  58.205 -51.572  1.00  0.00    -0.179 NA
HETATM   26  C   UNL     1     -44.442  58.774 -51.855  1.00  0.00     0.053 A 
HETATM   27  C   UNL     1     -45.384  59.144 -50.772  1.00  0.00     0.072 C 
HETATM   28  C   UNL     1     -44.608  58.953 -53.247  1.00  0.00     0.060 A 
ENDBRANCH   4  22
TORSDOF 3
ENDMDL
MODEL 6
REMARK VINA RESULT:      -7.3      2.614      4.818
REMARK  3 active torsions:
REMARK  status: ('A' for Active; 'I' for Inactive)
REMARK    1  A    between atoms: C_4  and  C_5 
REMARK    2  A    between atoms: C_12  and  N_13 
REMARK       I    between atoms: N_13  and  C_14 
REMARK    3  A    between atoms: C_14  and  C_15 
ROOT
HETATM    1  C   UNL     1     -42.610  61.304 -53.356  1.00  0.00     0.048 C 
HETATM    2  C   UNL     1     -43.189  59.940 -53.589  1.00  0.00    -0.060 A 
HETATM    3  C   UNL     1     -43.202  59.378 -54.866  1.00  0.00     0.023 A 
HETATM    4  C   UNL     1     -43.708  58.086 -55.080  1.00  0.00     0.020 A 
HETATM    5  C   UNL     1     -44.218  57.334 -53.990  1.00  0.00     0.053 A 
HETATM    6  C   UNL     1     -44.137  57.864 -52.687  1.00  0.00    -0.034 A 
HETATM    7  C   UNL     1     -44.392  57.085 -51.424  1.00  0.00     0.050 C 
HETATM    8  C   UNL     1     -43.651  59.177 -52.513  1.00  0.00     0.015 A 
ENDROOT
BRANCH   5   9
HETATM    9  N   UNL     1     -44.598  56.003 -54.245  1.00  0.00    -0.322 N 
HETATM   10  C   UNL     1     -43.888  54.839 -54.307  1.00  0.00     0.278 C 
HETATM   11  O   UNL     1     -44.494  53.847 -54.739  1.00  0.00    -0.268 OA
HETATM   12  H   UNL     1     -45.598  55.833 -54.306  1.00  0.00     0.169 HD
BRANCH  10  13
HETATM   13  C   UNL     1     -42.460  54.678 -53.714  1.00  0.00     0.366 C 
HETATM   14  O   UNL     1     -42.255  54.490 -52.315  1.00  0.00    -0.308 OA
HETATM   15  C   UNL     1     -41.257  53.567 -52.312  1.00  0.00     0.106 A 
HETATM   16  C   UNL     1     -41.017  53.065 -53.569  1.00  0.00     0.106 A 
HETATM   17  C   UNL     1     -40.537  53.152 -51.213  1.00  0.00     0.040 A 
HETATM   18  O   UNL     1     -41.826  53.629 -54.502  1.00  0.00    -0.308 OA
HETATM   19  C   UNL     1     -40.053  52.108 -53.798  1.00  0.00     0.040 A 
HETATM   20  C   UNL     1     -39.300  51.673 -52.703  1.00  0.00     0.003 A 
HETATM   21  C   UNL     1     -39.539  52.196 -51.418  1.00  0.00     0.003 A 
ENDBRANCH  10  13
ENDBRANCH   5   9
BRANCH   4  22
HETATM   22  C   UNL     1     -43.701  57.572 -56.450  1.00  0.00     0.064 A 
HETATM   23  N   UNL     1     -44.788  57.626 -57.287  1.00  0.00    -0.277 N 
HETATM   24  H   UNL     1     -45.707  58.007 -57.086  1.00  0.00     0.189 HD
HETATM   25  N   UNL     1     -44.564  57.097 -58.501  1.00  0.00    -0.179 NA
HETATM   26  C   UNL     1     -43.285  56.709 -58.458  1.00  0.00     0.053 A 
HETATM   27  C   UNL     1     -42.648  56.073 -59.635  1.00  0.00     0.072 C 
HETATM   28  C   UNL     1     -42.699  56.995 -57.205  1.00  0.00     0.060 A 
ENDBRANCH   4  22
TORSDOF 3
ENDMDL
MODEL 7
REMARK VINA RESULT:      -7.2      2.386      5.441
REMARK  3 active torsions:
REMARK  status: ('A' for Active; 'I' for Inactive)
REMARK    1  A    between atoms: C_4  and  C_5 
REMARK    2  A    between atoms: C_12  and  N_13 
REMARK       I    between atoms: N_13  and  C_14 
REMARK    3  A    between atoms: C_14  and  C_15 
ROOT
HETATM    1  C   UNL     1     -39.563  51.764 -53.593  1.00  0.00     0.048 C 
HETATM    2  C   UNL     1     -40.603  52.844 -53.647  1.00  0.00    -0.060 A 
HETATM    3  C   UNL     1     -40.500  53.976 -52.838  1.00  0.00     0.023 A 
HETATM    4  C   UNL     1     -41.451  55.005 -52.914  1.00  0.00     0.020 A 
HETATM    5  C   UNL     1     -42.536  54.904 -53.821  1.00  0.00     0.053 A 
HETATM    6  C   UNL     1     -42.604  53.800 -54.696  1.00  0.00    -0.034 A 
HETATM    7  C   UNL     1     -43.537  53.692 -55.873  1.00  0.00     0.050 C 
HETATM    8  C   UNL     1     -41.649  52.770 -54.571  1.00  0.00     0.015 A 
ENDROOT
BRANCH   5   9
HETATM    9  N   UNL     1     -43.387  56.018 -53.939  1.00  0.00    -0.322 N 
HETATM   10  C   UNL     1     -43.340  57.132 -54.726  1.00  0.00     0.278 C 
HETATM   11  O   UNL     1     -44.153  58.030 -54.459  1.00  0.00    -0.268 OA
HETATM   12  H   UNL     1     -44.259  55.966 -53.420  1.00  0.00     0.169 HD
BRANCH  10  13
HETATM   13  C   UNL     1     -42.459  57.238 -56.002  1.00  0.00     0.366 C 
HETATM   14  O   UNL     1     -42.759  56.484 -57.176  1.00  0.00    -0.308 OA
HETATM   15  C   UNL     1     -42.496  57.392 -58.152  1.00  0.00     0.106 A 
HETATM   16  C   UNL     1     -42.272  58.647 -57.642  1.00  0.00     0.106 A 
HETATM   17  C   UNL     1     -42.444  57.137 -59.505  1.00  0.00     0.040 A 
HETATM   18  O   UNL     1     -42.352  58.664 -56.286  1.00  0.00    -0.308 OA
HETATM   19  C   UNL     1     -41.996  59.725 -58.454  1.00  0.00     0.040 A 
HETATM   20  C   UNL     1     -41.927  59.496 -59.831  1.00  0.00     0.003 A 
HETATM   21  C   UNL     1     -42.146  58.207 -60.353  1.00  0.00     0.003 A 
ENDBRANCH  10  13
ENDBRANCH   5   9
BRANCH   4  22
HETATM   22  C   UNL     1     -41.282  56.153 -52.021  1.00  0.00     0.064 A 
HETATM   23  N   UNL     1     -41.527  56.107 -50.672  1.00  0.00    -0.277 N 
HETATM   24  H   UNL     1     -41.847  55.314 -50.125  1.00  0.00     0.189 HD
HETATM   25  N   UNL     1     -41.309  57.273 -50.041  1.00  0.00    -0.179 NA
HETATM   26  C   UNL     1     -40.887  58.094 -51.008  1.00  0.00     0.053 A 
HETATM   27  C   UNL     1     -40.528  59.500 -50.705  1.00  0.00     0.072 C 
HETATM   28  C   UNL     1     -40.841  57.439 -52.259  1.00  0.00     0.060 A 
ENDBRANCH   4  22
TORSDOF 3
ENDMDL
MODEL 8
REMARK VINA RESULT:      -7.0      2.253      4.291
REMARK  3 active torsions:
REMARK  status: ('A' for Active; 'I' for Inactive)
REMARK    1  A    between atoms: C_4  and  C_5 
REMARK    2  A    between atoms: C_12  and  N_13 
REMARK       I    between atoms: N_13  and  C_14 
REMARK    3  A    between atoms: C_14  and  C_15 
ROOT
HETATM    1  C   UNL     1     -44.859  62.041 -54.414  1.00  0.00     0.048 C 
HETATM    2  C   UNL     1     -44.877  60.540 -54.424  1.00  0.00    -0.060 A 
HETATM    3  C   UNL     1     -44.625  59.830 -55.598  1.00  0.00     0.023 A 
HETATM    4  C   UNL     1     -44.604  58.427 -55.601  1.00  0.00     0.020 A 
HETATM    5  C   UNL     1     -44.843  57.710 -54.400  1.00  0.00     0.053 A 
HETATM    6  C   UNL     1     -45.021  58.421 -53.196  1.00  0.00    -0.034 A 
HETATM    7  C   UNL     1     -45.021  57.801 -51.823  1.00  0.00     0.050 C 
HETATM    8  C   UNL     1     -45.067  59.830 -53.235  1.00  0.00     0.015 A 
ENDROOT
BRANCH   5   9
HETATM    9  N   UNL     1     -44.689  56.312 -54.440  1.00  0.00    -0.322 N 
HETATM   10  C   UNL     1     -43.591  55.505 -54.359  1.00  0.00     0.278 C 
HETATM   11  O   UNL     1     -43.771  54.305 -54.615  1.00  0.00    -0.268 OA
HETATM   12  H   UNL     1     -45.550  55.772 -54.432  1.00  0.00     0.169 HD
BRANCH  10  13
HETATM   13  C   UNL     1     -42.218  55.984 -53.811  1.00  0.00     0.366 C 
HETATM   14  O   UNL     1     -41.622  57.199 -54.262  1.00  0.00    -0.308 OA
HETATM   15  C   UNL     1     -41.111  57.694 -53.105  1.00  0.00     0.106 A 
HETATM   16  C   UNL     1     -41.533  56.980 -52.009  1.00  0.00     0.106 A 
HETATM   17  C   UNL     1     -40.263  58.773 -52.987  1.00  0.00     0.040 A 
HETATM   18  O   UNL     1     -42.343  55.948 -52.359  1.00  0.00    -0.308 OA
HETATM   19  C   UNL     1     -41.144  57.313 -50.730  1.00  0.00     0.040 A 
HETATM   20  C   UNL     1     -40.277  58.398 -50.579  1.00  0.00     0.003 A 
HETATM   21  C   UNL     1     -39.836  59.122 -51.703  1.00  0.00     0.003 A 
ENDBRANCH  10  13
ENDBRANCH   5   9
BRANCH   4  22
HETATM   22  C   UNL     1     -44.347  57.754 -56.876  1.00  0.00     0.064 A 
HETATM   23  N   UNL     1     -45.333  57.426 -57.772  1.00  0.00    -0.277 N 
HETATM   24  H   UNL     1     -46.331  57.589 -57.685  1.00  0.00     0.189 HD
HETATM   25  N   UNL     1     -44.878  56.813 -58.877  1.00  0.00    -0.179 NA
HETATM   26  C   UNL     1     -43.553  56.764 -58.702  1.00  0.00     0.053 A 
HETATM   27  C   UNL     1     -42.676  56.156 -59.731  1.00  0.00     0.072 C 
HETATM   28  C   UNL     1     -43.171  57.350 -57.475  1.00  0.00     0.060 A 
ENDBRANCH   4  22
TORSDOF 3
ENDMDL
MODEL 9
REMARK VINA RESULT:      -6.9     16.520     19.353
REMARK  3 active torsions:
REMARK  status: ('A' for Active; 'I' for Inactive)
REMARK    1  A    between atoms: C_4  and  C_5 
REMARK    2  A    between atoms: C_12  and  N_13 
REMARK       I    between atoms: N_13  and  C_14 
REMARK    3  A    between atoms: C_14  and  C_15 
ROOT
HETATM    1  C   UNL     1     -30.606  38.932 -56.846  1.00  0.00     0.048 C 
HETATM    2  C   UNL     1     -31.699  39.550 -56.024  1.00  0.00    -0.060 A 
HETATM    3  C   UNL     1     -31.737  39.377 -54.640  1.00  0.00     0.023 A 
HETATM    4  C   UNL     1     -32.737  39.986 -53.865  1.00  0.00     0.020 A 
HETATM    5  C   UNL     1     -33.728  40.787 -54.487  1.00  0.00     0.053 A 
HETATM    6  C   UNL     1     -33.651  41.029 -55.874  1.00  0.00    -0.034 A 
HETATM    7  C   UNL     1     -34.467  42.055 -56.614  1.00  0.00     0.050 C 
HETATM    8  C   UNL     1     -32.652  40.376 -56.626  1.00  0.00     0.015 A 
ENDROOT
BRANCH   5   9
HETATM    9  N   UNL     1     -34.630  41.467 -53.648  1.00  0.00    -0.322 N 
HETATM   10  C   UNL     1     -35.992  41.551 -53.637  1.00  0.00     0.278 C 
HETATM   11  O   UNL     1     -36.486  42.391 -52.869  1.00  0.00    -0.268 OA
HETATM   12  H   UNL     1     -34.223  41.913 -52.830  1.00  0.00     0.169 HD
BRANCH  10  13
HETATM   13  C   UNL     1     -36.914  40.552 -54.390  1.00  0.00     0.366 C 
HETATM   14  O   UNL     1     -37.509  40.891 -55.642  1.00  0.00    -0.308 OA
HETATM   15  C   UNL     1     -37.392  39.719 -56.320  1.00  0.00     0.106 A 
HETATM   16  C   UNL     1     -36.610  38.811 -55.648  1.00  0.00     0.106 A 
HETATM   17  C   UNL     1     -37.972  39.422 -57.534  1.00  0.00     0.040 A 
HETATM   18  O   UNL     1     -36.162  39.306 -54.466  1.00  0.00    -0.308 OA
HETATM   19  C   UNL     1     -36.349  37.557 -56.157  1.00  0.00     0.040 A 
HETATM   20  C   UNL     1     -36.931  37.224 -57.384  1.00  0.00     0.003 A 
HETATM   21  C   UNL     1     -37.741  38.151 -58.066  1.00  0.00     0.003 A 
ENDBRANCH  10  13
ENDBRANCH   5   9
BRANCH   4  22
HETATM   22  C   UNL     1     -32.718  39.745 -52.421  1.00  0.00     0.064 A 
HETATM   23  N   UNL     1     -33.473  38.780 -51.803  1.00  0.00    -0.277 N 
HETATM   24  H   UNL     1     -34.123  38.130 -52.233  1.00  0.00     0.189 HD
HETATM   25  N   UNL     1     -33.304  38.730 -50.471  1.00  0.00    -0.179 NA
HETATM   26  C   UNL     1     -32.392  39.676 -50.222  1.00  0.00     0.053 A 
HETATM   27  C   UNL     1     -31.923  39.929 -48.838  1.00  0.00     0.072 C 
HETATM   28  C   UNL     1     -31.985  40.328 -51.407  1.00  0.00     0.060 A 
ENDBRANCH   4  22
TORSDOF 3
ENDMDL
MODEL 10
REMARK VINA RESULT:      -6.9      2.782      6.446
REMARK  3 active torsions:
REMARK  status: ('A' for Active; 'I' for Inactive)
REMARK    1  A    between atoms: C_4  and  C_5 
REMARK    2  A    between atoms: C_12  and  N_13 
REMARK       I    between atoms: N_13  and  C_14 
REMARK    3  A    between atoms: C_14  and  C_15 
ROOT
HETATM    1  C   UNL     1     -38.833  59.559 -50.177  1.00  0.00     0.048 C 
HETATM    2  C   UNL     1     -40.153  59.583 -50.889  1.00  0.00    -0.060 A 
HETATM    3  C   UNL     1     -41.308  60.019 -50.240  1.00  0.00     0.023 A 
HETATM    4  C   UNL     1     -42.537  60.078 -50.915  1.00  0.00     0.020 A 
HETATM    5  C   UNL     1     -42.618  59.690 -52.277  1.00  0.00     0.053 A 
HETATM    6  C   UNL     1     -41.442  59.321 -52.961  1.00  0.00    -0.034 A 
HETATM    7  C   UNL     1     -41.335  59.142 -54.453  1.00  0.00     0.050 C 
HETATM    8  C   UNL     1     -40.230  59.244 -52.243  1.00  0.00     0.015 A 
ENDROOT
BRANCH   5   9
HETATM    9  N   UNL     1     -43.848  59.885 -52.933  1.00  0.00    -0.322 N 
HETATM   10  C   UNL     1     -44.709  59.023 -53.547  1.00  0.00     0.278 C 
HETATM   11  O   UNL     1     -45.631  59.538 -54.199  1.00  0.00    -0.268 OA
HETATM   12  H   UNL     1     -44.238  60.821 -52.871  1.00  0.00     0.169 HD
BRANCH  10  13
HETATM   13  C   UNL     1     -44.683  57.486 -53.323  1.00  0.00     0.366 C 
HETATM   14  O   UNL     1     -43.797  56.644 -54.060  1.00  0.00    -0.308 OA
HETATM   15  C   UNL     1     -43.401  55.767 -53.100  1.00  0.00     0.106 A 
HETATM   16  C   UNL     1     -43.817  56.150 -51.848  1.00  0.00     0.106 A 
HETATM   17  C   UNL     1     -42.673  54.615 -53.303  1.00  0.00     0.040 A 
HETATM   18  O   UNL     1     -44.535  57.302 -51.884  1.00  0.00    -0.308 OA
HETATM   19  C   UNL     1     -43.518  55.412 -50.724  1.00  0.00     0.040 A 
HETATM   20  C   UNL     1     -42.789  54.233 -50.899  1.00  0.00     0.003 A 
HETATM   21  C   UNL     1     -42.372  53.835 -52.184  1.00  0.00     0.003 A 
ENDBRANCH  10  13
ENDBRANCH   5   9
BRANCH   4  22
HETATM   22  C   UNL     1     -43.706  60.533 -50.160  1.00  0.00     0.064 A 
HETATM   23  N   UNL     1     -44.779  59.730 -49.867  1.00  0.00    -0.277 N 
HETATM   24  H   UNL     1     -44.914  58.757 -50.120  1.00  0.00     0.189 HD
HETATM   25  N   UNL     1     -45.743  60.348 -49.165  1.00  0.00    -0.179 NA
HETATM   26  C   UNL     1     -45.269  61.584 -48.977  1.00  0.00     0.053 A 
HETATM   27  C   UNL     1     -46.054  62.589 -48.222  1.00  0.00     0.072 C 
HETATM   28  C   UNL     1     -43.995  61.745 -49.567  1.00  0.00     0.060 A 
ENDBRANCH   4  22
TORSDOF 3
ENDMDL
