MODEL 1
REMARK VINA RESULT:      -9.2      0.000      0.000
REMARK  5 active torsions:
REMARK  status: ('A' for Active; 'I' for Inactive)
REMARK    1  A    between atoms: C_5  and  N_6 
REMARK       I    between atoms: N_6  and  C_7 
REMARK       I    between atoms: C_7  and  N_8 
REMARK    2  A    between atoms: N_8  and  C_9 
REMARK    3  A    between atoms: C_11  and  C_12 
REMARK       I    between atoms: C_12  and  N_13 
REMARK    4  A    between atoms: N_13  and  C_14 
REMARK    5  A    between atoms: C_14  and  C_15 
ROOT
HETATM    1  C   UNL     1     -42.803  55.255 -55.905  1.00  0.00     0.175 A 
HETATM    2  S   UNL     1     -43.287  54.046 -54.822  1.00  0.00    -0.044 SA
HETATM    3  C   UNL     1     -42.567  54.913 -53.527  1.00  0.00     0.100 A 
HETATM    4  C   UNL     1     -41.908  56.024 -54.052  1.00  0.00     0.056 A 
HETATM    5  C   UNL     1     -41.083  57.009 -53.297  1.00  0.00     0.072 C 
HETATM    6  N   UNL     1     -42.067  56.221 -55.422  1.00  0.00    -0.228 NA
ENDROOT
BRANCH   1   7
HETATM    7  N   UNL     1     -43.250  55.081 -57.178  1.00  0.00    -0.287 N 
HETATM    8  C   UNL     1     -43.154  55.968 -58.208  1.00  0.00     0.326 C 
HETATM    9  N   UNL     1     -42.460  57.124 -57.974  1.00  0.00    -0.309 N 
HETATM   10  O   UNL     1     -43.686  55.645 -59.270  1.00  0.00    -0.247 OA
HETATM   11  H   UNL     1     -42.019  57.185 -57.060  1.00  0.00     0.170 HD
HETATM   12  H   UNL     1     -43.748  54.231 -57.393  1.00  0.00     0.172 HD
BRANCH   9  13
HETATM   13  C   UNL     1     -42.235  58.193 -58.863  1.00  0.00     0.036 A 
HETATM   14  C   UNL     1     -41.993  58.029 -60.228  1.00  0.00     0.030 A 
HETATM   15  C   UNL     1     -41.774  59.141 -61.050  1.00  0.00     0.009 A 
HETATM   16  C   UNL     1     -41.791  60.434 -60.520  1.00  0.00    -0.062 A 
HETATM   17  C   UNL     1     -41.521  61.610 -61.410  1.00  0.00     0.048 C 
HETATM   18  C   UNL     1     -42.031  60.599 -59.153  1.00  0.00     0.009 A 
HETATM   19  C   UNL     1     -42.262  59.487 -58.335  1.00  0.00     0.030 A 
ENDBRANCH   9  13
ENDBRANCH   1   7
BRANCH   3  20
HETATM   20  C   UNL     1     -42.558  54.462 -52.144  1.00  0.00     0.260 C 
HETATM   21  N   UNL     1     -41.457  53.880 -51.559  1.00  0.00    -0.352 N 
HETATM   22  H   UNL     1     -41.615  53.681 -50.576  1.00  0.00     0.163 HD
HETATM   23  O   UNL     1     -43.559  54.551 -51.428  1.00  0.00    -0.267 OA
BRANCH  21  24
HETATM   24  C   UNL     1     -40.166  53.532 -52.114  1.00  0.00     0.167 C 
BRANCH  24  25
HETATM   25  C   UNL     1     -40.020  52.112 -52.586  1.00  0.00     0.037 A 
HETATM   26  C   UNL     1     -39.982  51.867 -53.964  1.00  0.00     0.127 A 
HETATM   27  F   UNL     1     -40.132  52.887 -54.821  1.00  0.00    -0.205 F 
HETATM   28  C   UNL     1     -39.778  50.589 -54.481  1.00  0.00     0.043 A 
HETATM   29  C   UNL     1     -39.593  49.516 -53.614  1.00  0.00     0.006 A 
HETATM   30  C   UNL     1     -39.611  49.735 -52.238  1.00  0.00     0.043 A 
HETATM   31  C   UNL     1     -39.814  51.023 -51.740  1.00  0.00     0.127 A 
HETATM   32  F   UNL     1     -39.805  51.195 -50.410  1.00  0.00    -0.205 F 
ENDBRANCH  24  25
ENDBRANCH  21  24
ENDBRANCH   3  20
TORSDOF 5
ENDMDL
MODEL 2
REMARK VINA RESULT:      -9.0      2.957      3.850
REMARK  5 active torsions:
REMARK  status: ('A' for Active; 'I' for Inactive)
REMARK    1  A    between atoms: C_5  and  N_6 
REMARK       I    between atoms: N_6  and  C_7 
REMARK       I    between atoms: C_7  and  N_8 
REMARK    2  A    between atoms: N_8  and  C_9 
REMARK    3  A    between atoms: C_11  and  C_12 
REMARK       I    between atoms: C_12  and  N_13 
REMARK    4  A    between atoms: N_13  and  C_14 
REMARK    5  A    between atoms: C_14  and  C_15 
ROOT
HETATM    1  C   UNL     1     -42.293  58.499 -53.517  1.00  0.00     0.175 A 
HETATM    2  S   UNL     1     -41.027  57.706 -52.719  1.00  0.00    -0.044 SA
HETATM    3  C   UNL     1     -42.141  57.059 -51.585  1.00  0.00     0.100 A 
HETATM    4  C   UNL     1     -43.400  57.599 -51.847  1.00  0.00     0.056 A 
HETATM    5  C   UNL     1     -44.646  57.375 -51.059  1.00  0.00     0.072 C 
HETATM    6  N   UNL     1     -43.479  58.413 -52.974  1.00  0.00    -0.228 NA
ENDROOT
BRANCH   1   7
HETATM    7  N   UNL     1     -41.924  59.143 -54.655  1.00  0.00    -0.287 N 
HETATM    8  C   UNL     1     -42.264  58.810 -55.933  1.00  0.00     0.326 C 
HETATM    9  N   UNL     1     -43.140  57.772 -56.095  1.00  0.00    -0.309 N 
HETATM   10  O   UNL     1     -41.765  59.485 -56.834  1.00  0.00    -0.247 OA
HETATM   11  H   UNL     1     -43.512  57.382 -55.232  1.00  0.00     0.170 HD
HETATM   12  H   UNL     1     -41.294  59.927 -54.574  1.00  0.00     0.172 HD
BRANCH   9  13
HETATM   13  C   UNL     1     -43.629  57.233 -57.300  1.00  0.00     0.036 A 
HETATM   14  C   UNL     1     -44.663  57.805 -58.043  1.00  0.00     0.030 A 
HETATM   15  C   UNL     1     -45.099  57.210 -59.232  1.00  0.00     0.009 A 
HETATM   16  C   UNL     1     -44.510  56.030 -59.697  1.00  0.00    -0.062 A 
HETATM   17  C   UNL     1     -45.013  55.389 -60.955  1.00  0.00     0.048 C 
HETATM   18  C   UNL     1     -43.476  55.455 -58.954  1.00  0.00     0.009 A 
HETATM   19  C   UNL     1     -43.033  56.059 -57.770  1.00  0.00     0.030 A 
ENDBRANCH   9  13
ENDBRANCH   1   7
BRANCH   3  20
HETATM   20  C   UNL     1     -41.771  56.197 -50.473  1.00  0.00     0.260 C 
HETATM   21  N   UNL     1     -41.996  54.840 -50.477  1.00  0.00    -0.352 N 
HETATM   22  H   UNL     1     -41.624  54.394 -49.645  1.00  0.00     0.163 HD
HETATM   23  O   UNL     1     -41.261  56.650 -49.445  1.00  0.00    -0.267 OA
BRANCH  21  24
HETATM   24  C   UNL     1     -42.651  53.994 -51.454  1.00  0.00     0.167 C 
BRANCH  24  25
HETATM   25  C   UNL     1     -41.870  53.723 -52.709  1.00  0.00     0.037 A 
HETATM   26  C   UNL     1     -42.297  54.317 -53.903  1.00  0.00     0.127 A 
HETATM   27  F   UNL     1     -43.412  55.061 -53.908  1.00  0.00    -0.205 F 
HETATM   28  C   UNL     1     -41.588  54.173 -55.094  1.00  0.00     0.043 A 
HETATM   29  C   UNL     1     -40.412  53.428 -55.111  1.00  0.00     0.006 A 
HETATM   30  C   UNL     1     -39.957  52.839 -53.933  1.00  0.00     0.043 A 
HETATM   31  C   UNL     1     -40.681  52.997 -52.750  1.00  0.00     0.127 A 
HETATM   32  F   UNL     1     -40.198  52.430 -51.634  1.00  0.00    -0.205 F 
ENDBRANCH  24  25
ENDBRANCH  21  24
ENDBRANCH   3  20
TORSDOF 5
ENDMDL
MODEL 3
REMARK VINA RESULT:      -9.0      4.303      8.189
REMARK  5 active torsions:
REMARK  status: ('A' for Active; 'I' for Inactive)
REMARK    1  A    between atoms: C_5  and  N_6 
REMARK       I    between atoms: N_6  and  C_7 
REMARK       I    between atoms: C_7  and  N_8 
REMARK    2  A    between atoms: N_8  and  C_9 
REMARK    3  A    between atoms: C_11  and  C_12 
REMARK       I    between atoms: C_12  and  N_13 
REMARK    4  A    between atoms: N_13  and  C_14 
REMARK    5  A    between atoms: C_14  and  C_15 
ROOT
HETATM    1  C   UNL     1     -41.723  56.674 -50.344  1.00  0.00     0.175 A 
HETATM    2  S   UNL     1     -40.993  58.167 -50.666  1.00  0.00    -0.044 SA
HETATM    3  C   UNL     1     -42.478  58.767 -51.281  1.00  0.00     0.100 A 
HETATM    4  C   UNL     1     -43.404  57.723 -51.292  1.00  0.00     0.056 A 
HETATM    5  C   UNL     1     -44.798  57.775 -51.819  1.00  0.00     0.072 C 
HETATM    6  N   UNL     1     -42.963  56.527 -50.731  1.00  0.00    -0.228 NA
ENDROOT
BRANCH   1   7
HETATM    7  N   UNL     1     -40.922  55.783 -49.701  1.00  0.00    -0.287 N 
HETATM    8  C   UNL     1     -40.466  54.593 -50.186  1.00  0.00     0.326 C 
HETATM    9  N   UNL     1     -40.767  54.292 -51.486  1.00  0.00    -0.309 N 
HETATM   10  O   UNL     1     -39.805  53.896 -49.416  1.00  0.00    -0.247 OA
HETATM   11  H   UNL     1     -41.255  55.025 -51.997  1.00  0.00     0.170 HD
HETATM   12  H   UNL     1     -40.662  55.981 -48.748  1.00  0.00     0.172 HD
BRANCH   9  13
HETATM   13  C   UNL     1     -40.427  53.131 -52.207  1.00  0.00     0.036 A 
HETATM   14  C   UNL     1     -39.833  52.006 -51.632  1.00  0.00     0.030 A 
HETATM   15  C   UNL     1     -39.520  50.889 -52.414  1.00  0.00     0.009 A 
HETATM   16  C   UNL     1     -39.793  50.878 -53.784  1.00  0.00    -0.062 A 
HETATM   17  C   UNL     1     -39.420  49.685 -54.612  1.00  0.00     0.048 C 
HETATM   18  C   UNL     1     -40.386  52.004 -54.362  1.00  0.00     0.009 A 
HETATM   19  C   UNL     1     -40.710  53.117 -53.576  1.00  0.00     0.030 A 
ENDBRANCH   9  13
ENDBRANCH   1   7
BRANCH   3  20
HETATM   20  C   UNL     1     -42.664  60.108 -51.812  1.00  0.00     0.260 C 
HETATM   21  N   UNL     1     -42.254  60.471 -53.075  1.00  0.00    -0.352 N 
HETATM   22  H   UNL     1     -42.516  61.427 -53.294  1.00  0.00     0.163 HD
HETATM   23  O   UNL     1     -43.176  61.006 -51.139  1.00  0.00    -0.267 OA
BRANCH  21  24
HETATM   24  C   UNL     1     -41.543  59.721 -54.089  1.00  0.00     0.167 C 
BRANCH  24  25
HETATM   25  C   UNL     1     -42.269  58.529 -54.648  1.00  0.00     0.037 A 
HETATM   26  C   UNL     1     -41.719  57.257 -54.446  1.00  0.00     0.127 A 
HETATM   27  F   UNL     1     -40.542  57.139 -53.815  1.00  0.00    -0.205 F 
HETATM   28  C   UNL     1     -42.366  56.097 -54.870  1.00  0.00     0.043 A 
HETATM   29  C   UNL     1     -43.602  56.190 -55.504  1.00  0.00     0.006 A 
HETATM   30  C   UNL     1     -44.178  57.443 -55.703  1.00  0.00     0.043 A 
HETATM   31  C   UNL     1     -43.515  58.592 -55.270  1.00  0.00     0.127 A 
HETATM   32  F   UNL     1     -44.113  59.777 -55.462  1.00  0.00    -0.205 F 
ENDBRANCH  24  25
ENDBRANCH  21  24
ENDBRANCH   3  20
TORSDOF 5
ENDMDL
MODEL 4
REMARK VINA RESULT:      -8.9      4.516      6.439
REMARK  5 active torsions:
REMARK  status: ('A' for Active; 'I' for Inactive)
REMARK    1  A    between atoms: C_5  and  N_6 
REMARK       I    between atoms: N_6  and  C_7 
REMARK       I    between atoms: C_7  and  N_8 
REMARK    2  A    between atoms: N_8  and  C_9 
REMARK    3  A    between atoms: C_11  and  C_12 
REMARK       I    between atoms: C_12  and  N_13 
REMARK    4  A    between atoms: N_13  and  C_14 
REMARK    5  A    between atoms: C_14  and  C_15 
ROOT
HETATM    1  C   UNL     1     -41.766  56.976 -51.588  1.00  0.00     0.175 A 
HETATM    2  S   UNL     1     -41.381  56.614 -53.197  1.00  0.00    -0.044 SA
HETATM    3  C   UNL     1     -42.326  55.185 -53.106  1.00  0.00     0.100 A 
HETATM    4  C   UNL     1     -42.780  55.039 -51.795  1.00  0.00     0.056 A 
HETATM    5  C   UNL     1     -43.569  53.898 -51.248  1.00  0.00     0.072 C 
HETATM    6  N   UNL     1     -42.467  56.087 -50.934  1.00  0.00    -0.228 NA
ENDROOT
BRANCH   1   7
HETATM    7  N   UNL     1     -41.296  58.176 -51.153  1.00  0.00    -0.287 N 
HETATM    8  C   UNL     1     -42.026  59.298 -50.899  1.00  0.00     0.326 C 
HETATM    9  N   UNL     1     -43.386  59.196 -51.005  1.00  0.00    -0.309 N 
HETATM   10  O   UNL     1     -41.399  60.308 -50.579  1.00  0.00    -0.247 OA
HETATM   11  H   UNL     1     -43.734  58.260 -51.202  1.00  0.00     0.170 HD
HETATM   12  H   UNL     1     -40.299  58.284 -51.044  1.00  0.00     0.172 HD
BRANCH   9  13
HETATM   13  C   UNL     1     -44.348  60.205 -50.808  1.00  0.00     0.036 A 
HETATM   14  C   UNL     1     -44.905  60.517 -49.567  1.00  0.00     0.030 A 
HETATM   15  C   UNL     1     -45.860  61.533 -49.451  1.00  0.00     0.009 A 
HETATM   16  C   UNL     1     -46.276  62.253 -50.574  1.00  0.00    -0.062 A 
HETATM   17  C   UNL     1     -47.325  63.316 -50.435  1.00  0.00     0.048 C 
HETATM   18  C   UNL     1     -45.721  61.942 -51.818  1.00  0.00     0.009 A 
HETATM   19  C   UNL     1     -44.756  60.933 -51.931  1.00  0.00     0.030 A 
ENDBRANCH   9  13
ENDBRANCH   1   7
BRANCH   3  20
HETATM   20  C   UNL     1     -42.494  54.242 -54.201  1.00  0.00     0.260 C 
HETATM   21  N   UNL     1     -41.507  53.361 -54.582  1.00  0.00    -0.352 N 
HETATM   22  H   UNL     1     -41.820  52.744 -55.324  1.00  0.00     0.163 HD
HETATM   23  O   UNL     1     -43.529  54.206 -54.871  1.00  0.00    -0.267 OA
BRANCH  21  24
HETATM   24  C   UNL     1     -40.153  53.192 -54.095  1.00  0.00     0.167 C 
BRANCH  24  25
HETATM   25  C   UNL     1     -39.922  51.995 -53.216  1.00  0.00     0.037 A 
HETATM   26  C   UNL     1     -39.914  52.178 -51.828  1.00  0.00     0.127 A 
HETATM   27  F   UNL     1     -40.057  53.412 -51.323  1.00  0.00    -0.205 F 
HETATM   28  C   UNL     1     -39.777  51.110 -50.943  1.00  0.00     0.043 A 
HETATM   29  C   UNL     1     -39.655  49.815 -51.439  1.00  0.00     0.006 A 
HETATM   30  C   UNL     1     -39.674  49.604 -52.816  1.00  0.00     0.043 A 
HETATM   31  C   UNL     1     -39.815  50.687 -53.686  1.00  0.00     0.127 A 
HETATM   32  F   UNL     1     -39.849  50.439 -55.004  1.00  0.00    -0.205 F 
ENDBRANCH  24  25
ENDBRANCH  21  24
ENDBRANCH   3  20
TORSDOF 5
ENDMDL
MODEL 5
REMARK VINA RESULT:      -8.9      2.863      4.149
REMARK  5 active torsions:
REMARK  status: ('A' for Active; 'I' for Inactive)
REMARK    1  A    between atoms: C_5  and  N_6 
REMARK       I    between atoms: N_6  and  C_7 
REMARK       I    between atoms: C_7  and  N_8 
REMARK    2  A    between atoms: N_8  and  C_9 
REMARK    3  A    between atoms: C_11  and  C_12 
REMARK       I    between atoms: C_12  and  N_13 
REMARK    4  A    between atoms: N_13  and  C_14 
REMARK    5  A    between atoms: C_14  and  C_15 
ROOT
HETATM    1  C   UNL     1     -42.273  59.127 -54.310  1.00  0.00     0.175 A 
HETATM    2  S   UNL     1     -40.938  58.575 -53.427  1.00  0.00    -0.044 SA
HETATM    3  C   UNL     1     -41.984  58.001 -52.195  1.00  0.00     0.100 A 
HETATM    4  C   UNL     1     -43.288  58.381 -52.511  1.00  0.00     0.056 A 
HETATM    5  C   UNL     1     -44.506  58.161 -51.680  1.00  0.00     0.072 C 
HETATM    6  N   UNL     1     -43.445  59.013 -53.742  1.00  0.00    -0.228 NA
ENDROOT
BRANCH   1   7
HETATM    7  N   UNL     1     -41.967  59.632 -55.536  1.00  0.00    -0.287 N 
HETATM    8  C   UNL     1     -42.331  59.120 -56.746  1.00  0.00     0.326 C 
HETATM    9  N   UNL     1     -43.164  58.035 -56.741  1.00  0.00    -0.309 N 
HETATM   10  O   UNL     1     -41.891  59.691 -57.744  1.00  0.00    -0.247 OA
HETATM   11  H   UNL     1     -43.491  57.747 -55.822  1.00  0.00     0.170 HD
HETATM   12  H   UNL     1     -41.372  60.444 -55.579  1.00  0.00     0.172 HD
BRANCH   9  13
HETATM   13  C   UNL     1     -43.665  57.324 -57.848  1.00  0.00     0.036 A 
HETATM   14  C   UNL     1     -44.844  57.657 -58.516  1.00  0.00     0.030 A 
HETATM   15  C   UNL     1     -45.281  56.900 -59.608  1.00  0.00     0.009 A 
HETATM   16  C   UNL     1     -44.548  55.795 -60.050  1.00  0.00    -0.062 A 
HETATM   17  C   UNL     1     -45.050  54.976 -61.201  1.00  0.00     0.048 C 
HETATM   18  C   UNL     1     -43.367  55.459 -59.382  1.00  0.00     0.009 A 
HETATM   19  C   UNL     1     -42.925  56.225 -58.296  1.00  0.00     0.030 A 
ENDBRANCH   9  13
ENDBRANCH   1   7
BRANCH   3  20
HETATM   20  C   UNL     1     -41.534  57.346 -50.977  1.00  0.00     0.260 C 
HETATM   21  N   UNL     1     -41.744  56.008 -50.731  1.00  0.00    -0.352 N 
HETATM   22  H   UNL     1     -41.313  55.714 -49.860  1.00  0.00     0.163 HD
HETATM   23  O   UNL     1     -40.964  57.970 -50.079  1.00  0.00    -0.267 OA
BRANCH  21  24
HETATM   24  C   UNL     1     -42.450  55.006 -51.501  1.00  0.00     0.167 C 
BRANCH  24  25
HETATM   25  C   UNL     1     -41.650  54.326 -52.576  1.00  0.00     0.037 A 
HETATM   26  C   UNL     1     -40.844  53.238 -52.221  1.00  0.00     0.127 A 
HETATM   27  F   UNL     1     -40.763  52.867 -50.935  1.00  0.00    -0.205 F 
HETATM   28  C   UNL     1     -40.127  52.509 -53.169  1.00  0.00     0.043 A 
HETATM   29  C   UNL     1     -40.215  52.855 -54.515  1.00  0.00     0.006 A 
HETATM   30  C   UNL     1     -41.022  53.925 -54.896  1.00  0.00     0.043 A 
HETATM   31  C   UNL     1     -41.733  54.640 -53.932  1.00  0.00     0.127 A 
HETATM   32  F   UNL     1     -42.515  55.650 -54.342  1.00  0.00    -0.205 F 
ENDBRANCH  24  25
ENDBRANCH  21  24
ENDBRANCH   3  20
TORSDOF 5
ENDMDL
MODEL 6
REMARK VINA RESULT:      -8.8      3.461      8.285
REMARK  5 active torsions:
REMARK  status: ('A' for Active; 'I' for Inactive)
REMARK    1  A    between atoms: C_5  and  N_6 
REMARK       I    between atoms: N_6  and  C_7 
REMARK       I    between atoms: C_7  and  N_8 
REMARK    2  A    between atoms: N_8  and  C_9 
REMARK    3  A    between atoms: C_11  and  C_12 
REMARK       I    between atoms: C_12  and  N_13 
REMARK    4  A    between atoms: N_13  and  C_14 
REMARK    5  A    between atoms: C_14  and  C_15 
ROOT
HETATM    1  C   UNL     1     -42.629  57.300 -51.379  1.00  0.00     0.175 A 
HETATM    2  S   UNL     1     -44.242  57.795 -51.523  1.00  0.00    -0.044 SA
HETATM    3  C   UNL     1     -43.809  58.849 -52.805  1.00  0.00     0.100 A 
HETATM    4  C   UNL     1     -42.422  58.820 -52.951  1.00  0.00     0.056 A 
HETATM    5  C   UNL     1     -41.608  59.641 -53.892  1.00  0.00     0.072 C 
HETATM    6  N   UNL     1     -41.754  57.908 -52.137  1.00  0.00    -0.228 NA
ENDROOT
BRANCH   1   7
HETATM    7  N   UNL     1     -42.425  56.302 -50.478  1.00  0.00    -0.287 N 
HETATM    8  C   UNL     1     -41.924  55.060 -50.730  1.00  0.00     0.326 C 
HETATM    9  N   UNL     1     -41.496  54.805 -52.004  1.00  0.00    -0.309 N 
HETATM   10  O   UNL     1     -41.883  54.275 -49.782  1.00  0.00    -0.247 OA
HETATM   11  H   UNL     1     -41.532  55.601 -52.638  1.00  0.00     0.170 HD
HETATM   12  H   UNL     1     -42.709  56.460 -49.523  1.00  0.00     0.172 HD
BRANCH   9  13
HETATM   13  C   UNL     1     -40.959  53.608 -52.514  1.00  0.00     0.036 A 
HETATM   14  C   UNL     1     -40.025  52.825 -51.833  1.00  0.00     0.030 A 
HETATM   15  C   UNL     1     -39.532  51.647 -52.406  1.00  0.00     0.009 A 
HETATM   16  C   UNL     1     -39.963  51.233 -53.670  1.00  0.00    -0.062 A 
HETATM   17  C   UNL     1     -39.399  49.986 -54.281  1.00  0.00     0.048 C 
HETATM   18  C   UNL     1     -40.897  52.017 -54.353  1.00  0.00     0.009 A 
HETATM   19  C   UNL     1     -41.398  53.189 -53.773  1.00  0.00     0.030 A 
ENDBRANCH   9  13
ENDBRANCH   1   7
BRANCH   3  20
HETATM   20  C   UNL     1     -44.745  59.711 -53.509  1.00  0.00     0.260 C 
HETATM   21  N   UNL     1     -45.501  59.275 -54.574  1.00  0.00    -0.352 N 
HETATM   22  H   UNL     1     -46.137  59.994 -54.903  1.00  0.00     0.163 HD
HETATM   23  O   UNL     1     -44.888  60.898 -53.205  1.00  0.00    -0.267 OA
BRANCH  21  24
HETATM   24  C   UNL     1     -45.523  57.997 -55.256  1.00  0.00     0.167 C 
BRANCH  24  25
HETATM   25  C   UNL     1     -44.516  57.829 -56.359  1.00  0.00     0.037 A 
HETATM   26  C   UNL     1     -43.433  56.966 -56.149  1.00  0.00     0.127 A 
HETATM   27  F   UNL     1     -43.293  56.358 -54.962  1.00  0.00    -0.205 F 
HETATM   28  C   UNL     1     -42.496  56.700 -57.146  1.00  0.00     0.043 A 
HETATM   29  C   UNL     1     -42.633  57.296 -58.397  1.00  0.00     0.006 A 
HETATM   30  C   UNL     1     -43.709  58.148 -58.636  1.00  0.00     0.043 A 
HETATM   31  C   UNL     1     -44.638  58.399 -57.625  1.00  0.00     0.127 A 
HETATM   32  F   UNL     1     -45.671  59.209 -57.902  1.00  0.00    -0.205 F 
ENDBRANCH  24  25
ENDBRANCH  21  24
ENDBRANCH   3  20
TORSDOF 5
ENDMDL
MODEL 7
REMARK VINA RESULT:      -8.7      3.008      8.028
REMARK  5 active torsions:
REMARK  status: ('A' for Active; 'I' for Inactive)
REMARK    1  A    between atoms: C_5  and  N_6 
REMARK       I    between atoms: N_6  and  C_7 
REMARK       I    between atoms: C_7  and  N_8 
REMARK    2  A    between atoms: N_8  and  C_9 
REMARK    3  A    between atoms: C_11  and  C_12 
REMARK       I    between atoms: C_12  and  N_13 
REMARK    4  A    between atoms: N_13  and  C_14 
REMARK    5  A    between atoms: C_14  and  C_15 
ROOT
HETATM    1  C   UNL     1     -43.561  57.025 -52.847  1.00  0.00     0.175 A 
HETATM    2  S   UNL     1     -44.620  57.275 -54.144  1.00  0.00    -0.044 SA
HETATM    3  C   UNL     1     -43.634  58.563 -54.706  1.00  0.00     0.100 A 
HETATM    4  C   UNL     1     -42.613  58.773 -53.779  1.00  0.00     0.056 A 
HETATM    5  C   UNL     1     -41.575  59.843 -53.825  1.00  0.00     0.072 C 
HETATM    6  N   UNL     1     -42.570  57.868 -52.721  1.00  0.00    -0.228 NA
ENDROOT
BRANCH   1   7
HETATM    7  N   UNL     1     -43.866  55.950 -52.072  1.00  0.00    -0.287 N 
HETATM    8  C   UNL     1     -43.253  54.732 -52.081  1.00  0.00     0.326 C 
HETATM    9  N   UNL     1     -42.158  54.591 -52.889  1.00  0.00    -0.309 N 
HETATM   10  O   UNL     1     -43.728  53.866 -51.347  1.00  0.00    -0.247 OA
HETATM   11  H   UNL     1     -41.860  55.439 -53.364  1.00  0.00     0.170 HD
HETATM   12  H   UNL     1     -44.655  56.023 -51.448  1.00  0.00     0.172 HD
BRANCH   9  13
HETATM   13  C   UNL     1     -41.369  53.441 -53.083  1.00  0.00     0.036 A 
HETATM   14  C   UNL     1     -40.472  52.946 -52.135  1.00  0.00     0.030 A 
HETATM   15  C   UNL     1     -39.718  51.798 -52.401  1.00  0.00     0.009 A 
HETATM   16  C   UNL     1     -39.846  51.126 -53.619  1.00  0.00    -0.062 A 
HETATM   17  C   UNL     1     -39.005  49.917 -53.899  1.00  0.00     0.048 C 
HETATM   18  C   UNL     1     -40.743  51.621 -54.571  1.00  0.00     0.009 A 
HETATM   19  C   UNL     1     -41.505  52.763 -54.298  1.00  0.00     0.030 A 
ENDBRANCH   9  13
ENDBRANCH   1   7
BRANCH   3  20
HETATM   20  C   UNL     1     -43.922  59.361 -55.888  1.00  0.00     0.260 C 
HETATM   21  N   UNL     1     -43.476  59.018 -57.143  1.00  0.00    -0.352 N 
HETATM   22  H   UNL     1     -43.819  59.658 -57.852  1.00  0.00     0.163 HD
HETATM   23  O   UNL     1     -44.562  60.413 -55.818  1.00  0.00    -0.267 OA
BRANCH  21  24
HETATM   24  C   UNL     1     -42.633  57.924 -57.580  1.00  0.00     0.167 C 
BRANCH  24  25
HETATM   25  C   UNL     1     -43.297  56.897 -58.453  1.00  0.00     0.037 A 
HETATM   26  C   UNL     1     -43.766  57.293 -59.711  1.00  0.00     0.127 A 
HETATM   27  F   UNL     1     -43.663  58.578 -60.081  1.00  0.00    -0.205 F 
HETATM   28  C   UNL     1     -44.329  56.387 -60.609  1.00  0.00     0.043 A 
HETATM   29  C   UNL     1     -44.424  55.042 -60.262  1.00  0.00     0.006 A 
HETATM   30  C   UNL     1     -43.951  54.619 -59.022  1.00  0.00     0.043 A 
HETATM   31  C   UNL     1     -43.388  55.542 -58.138  1.00  0.00     0.127 A 
HETATM   32  F   UNL     1     -42.926  55.091 -56.962  1.00  0.00    -0.205 F 
ENDBRANCH  24  25
ENDBRANCH  21  24
ENDBRANCH   3  20
TORSDOF 5
ENDMDL
MODEL 8
REMARK VINA RESULT:      -8.4      3.061      3.577
REMARK  5 active torsions:
REMARK  status: ('A' for Active; 'I' for Inactive)
REMARK    1  A    between atoms: C_5  and  N_6 
REMARK       I    between atoms: N_6  and  C_7 
REMARK       I    between atoms: C_7  and  N_8 
REMARK    2  A    between atoms: N_8  and  C_9 
REMARK    3  A    between atoms: C_11  and  C_12 
REMARK       I    between atoms: C_12  and  N_13 
REMARK    4  A    between atoms: N_13  and  C_14 
REMARK    5  A    between atoms: C_14  and  C_15 
ROOT
HETATM    1  C   UNL     1     -42.361  57.454 -57.273  1.00  0.00     0.175 A 
HETATM    2  S   UNL     1     -42.584  56.045 -56.361  1.00  0.00    -0.044 SA
HETATM    3  C   UNL     1     -42.857  56.992 -54.956  1.00  0.00     0.100 A 
HETATM    4  C   UNL     1     -42.645  58.333 -55.280  1.00  0.00     0.056 A 
HETATM    5  C   UNL     1     -42.695  59.493 -54.345  1.00  0.00     0.072 C 
HETATM    6  N   UNL     1     -42.378  58.588 -56.623  1.00  0.00    -0.228 NA
ENDROOT
BRANCH   1   7
HETATM    7  N   UNL     1     -42.192  57.240 -58.605  1.00  0.00    -0.287 N 
HETATM    8  C   UNL     1     -43.165  57.200 -59.559  1.00  0.00     0.326 C 
HETATM    9  N   UNL     1     -44.442  57.489 -59.161  1.00  0.00    -0.309 N 
HETATM   10  O   UNL     1     -42.809  56.921 -60.704  1.00  0.00    -0.247 OA
HETATM   11  H   UNL     1     -44.536  57.776 -58.189  1.00  0.00     0.170 HD
HETATM   12  H   UNL     1     -41.261  57.043 -58.939  1.00  0.00     0.172 HD
BRANCH   9  13
HETATM   13  C   UNL     1     -45.611  57.500 -59.946  1.00  0.00     0.036 A 
HETATM   14  C   UNL     1     -46.270  56.347 -60.374  1.00  0.00     0.030 A 
HETATM   15  C   UNL     1     -47.427  56.437 -61.156  1.00  0.00     0.009 A 
HETATM   16  C   UNL     1     -47.944  57.683 -61.525  1.00  0.00    -0.062 A 
HETATM   17  C   UNL     1     -49.165  57.759 -62.391  1.00  0.00     0.048 C 
HETATM   18  C   UNL     1     -47.284  58.839 -61.098  1.00  0.00     0.009 A 
HETATM   19  C   UNL     1     -46.133  58.747 -60.306  1.00  0.00     0.030 A 
ENDBRANCH   9  13
ENDBRANCH   1   7
BRANCH   3  20
HETATM   20  C   UNL     1     -43.134  56.443 -53.638  1.00  0.00     0.260 C 
HETATM   21  N   UNL     1     -42.195  55.752 -52.908  1.00  0.00    -0.352 N 
HETATM   22  H   UNL     1     -42.546  55.493 -51.992  1.00  0.00     0.163 HD
HETATM   23  O   UNL     1     -44.247  56.544 -53.116  1.00  0.00    -0.267 OA
BRANCH  21  24
HETATM   24  C   UNL     1     -40.839  55.365 -53.239  1.00  0.00     0.167 C 
BRANCH  24  25
HETATM   25  C   UNL     1     -40.491  53.925 -52.983  1.00  0.00     0.037 A 
HETATM   26  C   UNL     1     -40.290  53.081 -54.082  1.00  0.00     0.127 A 
HETATM   27  F   UNL     1     -40.464  53.559 -55.323  1.00  0.00    -0.205 F 
HETATM   28  C   UNL     1     -39.895  51.753 -53.931  1.00  0.00     0.043 A 
HETATM   29  C   UNL     1     -39.680  51.239 -52.655  1.00  0.00     0.006 A 
HETATM   30  C   UNL     1     -39.860  52.062 -51.546  1.00  0.00     0.043 A 
HETATM   31  C   UNL     1     -40.253  53.390 -51.718  1.00  0.00     0.127 A 
HETATM   32  F   UNL     1     -40.395  54.154 -50.626  1.00  0.00    -0.205 F 
ENDBRANCH  24  25
ENDBRANCH  21  24
ENDBRANCH   3  20
TORSDOF 5
ENDMDL
MODEL 9
REMARK VINA RESULT:      -8.4      3.971      8.572
REMARK  5 active torsions:
REMARK  status: ('A' for Active; 'I' for Inactive)
REMARK    1  A    between atoms: C_5  and  N_6 
REMARK       I    between atoms: N_6  and  C_7 
REMARK       I    between atoms: C_7  and  N_8 
REMARK    2  A    between atoms: N_8  and  C_9 
REMARK    3  A    between atoms: C_11  and  C_12 
REMARK       I    between atoms: C_12  and  N_13 
REMARK    4  A    between atoms: N_13  and  C_14 
REMARK    5  A    between atoms: C_14  and  C_15 
ROOT
HETATM    1  C   UNL     1     -41.958  57.285 -50.864  1.00  0.00     0.175 A 
HETATM    2  S   UNL     1     -41.170  58.751 -51.175  1.00  0.00    -0.044 SA
HETATM    3  C   UNL     1     -42.551  59.319 -52.021  1.00  0.00     0.100 A 
HETATM    4  C   UNL     1     -43.481  58.282 -52.093  1.00  0.00     0.056 A 
HETATM    5  C   UNL     1     -44.790  58.308 -52.806  1.00  0.00     0.072 C 
HETATM    6  N   UNL     1     -43.137  57.121 -51.406  1.00  0.00    -0.228 NA
ENDROOT
BRANCH   1   7
HETATM    7  N   UNL     1     -41.263  56.431 -50.066  1.00  0.00    -0.287 N 
HETATM    8  C   UNL     1     -40.789  55.198 -50.402  1.00  0.00     0.326 C 
HETATM    9  N   UNL     1     -40.946  54.801 -51.702  1.00  0.00    -0.309 N 
HETATM   10  O   UNL     1     -40.243  54.551 -49.508  1.00  0.00    -0.247 OA
HETATM   11  H   UNL     1     -41.350  55.501 -52.320  1.00  0.00     0.170 HD
HETATM   12  H   UNL     1     -41.109  56.698 -49.106  1.00  0.00     0.172 HD
BRANCH   9  13
HETATM   13  C   UNL     1     -40.559  53.580 -52.286  1.00  0.00     0.036 A 
HETATM   14  C   UNL     1     -39.834  52.594 -51.616  1.00  0.00     0.030 A 
HETATM   15  C   UNL     1     -39.481  51.405 -52.265  1.00  0.00     0.009 A 
HETATM   16  C   UNL     1     -39.845  51.184 -53.597  1.00  0.00    -0.062 A 
HETATM   17  C   UNL     1     -39.429  49.919 -54.286  1.00  0.00     0.048 C 
HETATM   18  C   UNL     1     -40.570  52.172 -54.270  1.00  0.00     0.009 A 
HETATM   19  C   UNL     1     -40.932  53.356 -53.615  1.00  0.00     0.030 A 
ENDBRANCH   9  13
ENDBRANCH   1   7
BRANCH   3  20
HETATM   20  C   UNL     1     -42.645  60.625 -52.654  1.00  0.00     0.260 C 
HETATM   21  N   UNL     1     -42.284  60.845 -53.963  1.00  0.00    -0.352 N 
HETATM   22  H   UNL     1     -42.470  61.801 -54.249  1.00  0.00     0.163 HD
HETATM   23  O   UNL     1     -43.027  61.619 -52.032  1.00  0.00    -0.267 OA
BRANCH  21  24
HETATM   24  C   UNL     1     -41.712  59.950 -54.948  1.00  0.00     0.167 C 
BRANCH  24  25
HETATM   25  C   UNL     1     -42.697  59.224 -55.820  1.00  0.00     0.037 A 
HETATM   26  C   UNL     1     -42.740  57.826 -55.758  1.00  0.00     0.127 A 
HETATM   27  F   UNL     1     -41.873  57.172 -54.972  1.00  0.00    -0.205 F 
HETATM   28  C   UNL     1     -43.672  57.083 -56.481  1.00  0.00     0.043 A 
HETATM   29  C   UNL     1     -44.602  57.737 -57.284  1.00  0.00     0.006 A 
HETATM   30  C   UNL     1     -44.590  59.129 -57.351  1.00  0.00     0.043 A 
HETATM   31  C   UNL     1     -43.650  59.855 -56.618  1.00  0.00     0.127 A 
HETATM   32  F   UNL     1     -43.686  61.193 -56.695  1.00  0.00    -0.205 F 
ENDBRANCH  24  25
ENDBRANCH  21  24
ENDBRANCH   3  20
TORSDOF 5
ENDMDL
MODEL 10
REMARK VINA RESULT:      -8.4      3.080      8.347
REMARK  5 active torsions:
REMARK  status: ('A' for Active; 'I' for Inactive)
REMARK    1  A    between atoms: C_5  and  N_6 
REMARK       I    between atoms: N_6  and  C_7 
REMARK       I    between atoms: C_7  and  N_8 
REMARK    2  A    between atoms: N_8  and  C_9 
REMARK    3  A    between atoms: C_11  and  C_12 
REMARK       I    between atoms: C_12  and  N_13 
REMARK    4  A    between atoms: N_13  and  C_14 
REMARK    5  A    between atoms: C_14  and  C_15 
ROOT
HETATM    1  C   UNL     1     -42.604  57.865 -53.253  1.00  0.00     0.175 A 
HETATM    2  S   UNL     1     -41.759  59.055 -54.112  1.00  0.00    -0.044 SA
HETATM    3  C   UNL     1     -43.102  59.256 -55.162  1.00  0.00     0.100 A 
HETATM    4  C   UNL     1     -44.066  58.303 -54.833  1.00  0.00     0.056 A 
HETATM    5  C   UNL     1     -45.358  58.064 -55.538  1.00  0.00     0.072 C 
HETATM    6  N   UNL     1     -43.776  57.519 -53.719  1.00  0.00    -0.228 NA
ENDROOT
BRANCH   1   7
HETATM    7  N   UNL     1     -41.956  57.399 -52.152  1.00  0.00    -0.287 N 
HETATM    8  C   UNL     1     -41.403  56.164 -51.988  1.00  0.00     0.326 C 
HETATM    9  N   UNL     1     -41.417  55.325 -53.069  1.00  0.00    -0.309 N 
HETATM   10  O   UNL     1     -40.920  55.914 -50.884  1.00  0.00    -0.247 OA
HETATM   11  H   UNL     1     -41.787  55.731 -53.926  1.00  0.00     0.170 HD
HETATM   12  H   UNL     1     -41.907  57.997 -51.342  1.00  0.00     0.172 HD
BRANCH   9  13
HETATM   13  C   UNL     1     -40.927  54.007 -53.148  1.00  0.00     0.036 A 
HETATM   14  C   UNL     1     -40.315  53.342 -52.085  1.00  0.00     0.030 A 
HETATM   15  C   UNL     1     -39.848  52.032 -52.240  1.00  0.00     0.009 A 
HETATM   16  C   UNL     1     -39.983  51.366 -53.461  1.00  0.00    -0.062 A 
HETATM   17  C   UNL     1     -39.446  49.975 -53.618  1.00  0.00     0.048 C 
HETATM   18  C   UNL     1     -40.594  52.031 -54.527  1.00  0.00     0.009 A 
HETATM   19  C   UNL     1     -41.071  53.338 -54.367  1.00  0.00     0.030 A 
ENDBRANCH   9  13
ENDBRANCH   1   7
BRANCH   3  20
HETATM   20  C   UNL     1     -43.137  60.189 -56.278  1.00  0.00     0.260 C 
HETATM   21  N   UNL     1     -42.553  59.916 -57.494  1.00  0.00    -0.352 N 
HETATM   22  H   UNL     1     -42.726  60.654 -58.168  1.00  0.00     0.163 HD
HETATM   23  O   UNL     1     -43.670  61.297 -56.179  1.00  0.00    -0.267 OA
BRANCH  21  24
HETATM   24  C   UNL     1     -41.772  58.777 -57.932  1.00  0.00     0.167 C 
BRANCH  24  25
HETATM   25  C   UNL     1     -42.542  57.678 -58.606  1.00  0.00     0.037 A 
HETATM   26  C   UNL     1     -42.776  56.494 -57.896  1.00  0.00     0.127 A 
HETATM   27  F   UNL     1     -42.266  56.350 -56.664  1.00  0.00    -0.205 F 
HETATM   28  C   UNL     1     -43.543  55.455 -58.423  1.00  0.00     0.043 A 
HETATM   29  C   UNL     1     -44.108  55.589 -59.688  1.00  0.00     0.006 A 
HETATM   30  C   UNL     1     -43.902  56.763 -60.409  1.00  0.00     0.043 A 
HETATM   31  C   UNL     1     -43.134  57.792 -59.863  1.00  0.00     0.127 A 
HETATM   32  F   UNL     1     -42.977  58.914 -60.582  1.00  0.00    -0.205 F 
ENDBRANCH  24  25
ENDBRANCH  21  24
ENDBRANCH   3  20
TORSDOF 5
ENDMDL
