MODEL 1
REMARK VINA RESULT:      -9.1      0.000      0.000
REMARK  7 active torsions:
REMARK  status: ('A' for Active; 'I' for Inactive)
REMARK    1  A    between atoms: C_2  and  N_3 
REMARK       I    between atoms: N_3  and  C_4 
REMARK    2  A    between atoms: C_4  and  C_5 
REMARK    3  A    between atoms: C_8  and  C_9 
REMARK       I    between atoms: C_9  and  N_10 
REMARK    4  A    between atoms: N_13  and  C_14 
REMARK    5  A    between atoms: C_15  and  O_16 
REMARK    6  A    between atoms: N_26  and  C_27 
REMARK    7  A    between atoms: C_27  and  C_28 
ROOT
HETATM    1  C   UNL     1     -42.532  56.794 -55.967  1.00  0.00     0.098 A 
HETATM    2  C   UNL     1     -42.078  57.931 -55.115  1.00  0.00     0.206 A 
HETATM    3  O   UNL     1     -42.511  59.068 -55.298  1.00  0.00    -0.286 OA
HETATM    4  C   UNL     1     -41.068  57.644 -54.057  1.00  0.00     0.098 A 
HETATM    5  C   UNL     1     -40.561  56.402 -54.001  1.00  0.00     0.111 A 
HETATM    6  N   UNL     1     -40.897  55.367 -54.866  1.00  0.00    -0.364 N 
HETATM    7  C   UNL     1     -41.904  55.616 -55.796  1.00  0.00     0.111 A 
ENDROOT
BRANCH   4   8
HETATM    8  C   UNL     1     -40.831  58.586 -52.943  1.00  0.00     0.259 C 
HETATM    9  N   UNL     1     -41.745  58.679 -51.912  1.00  0.00    -0.345 N 
HETATM   10  C   UNL     1     -41.589  59.767 -50.939  1.00  0.00     0.146 C 
HETATM   11  C   UNL     1     -43.031  57.976 -51.771  1.00  0.00     0.146 C 
HETATM   12  C   UNL     1     -42.725  60.792 -51.105  1.00  0.00     0.143 C 
HETATM   13  N   UNL     1     -44.043  60.112 -50.973  1.00  0.00    -0.376 N 
HETATM   14  C   UNL     1     -44.214  58.970 -51.898  1.00  0.00     0.143 C 
HETATM   15  O   UNL     1     -39.834  59.306 -53.004  1.00  0.00    -0.267 OA
BRANCH  13  16
HETATM   16  C   UNL     1     -45.110  61.023 -50.809  1.00  0.00     0.064 A 
HETATM   17  C   UNL     1     -45.426  61.553 -49.528  1.00  0.00     0.094 A 
HETATM   18  C   UNL     1     -46.473  62.474 -49.376  1.00  0.00     0.039 A 
HETATM   19  C   UNL     1     -47.218  62.887 -50.480  1.00  0.00     0.003 A 
HETATM   20  C   UNL     1     -46.932  62.372 -51.737  1.00  0.00     0.002 A 
HETATM   21  C   UNL     1     -45.895  61.448 -51.898  1.00  0.00     0.032 A 
BRANCH  17  22
HETATM   22  O   UNL     1     -44.697  61.069 -48.464  1.00  0.00    -0.354 OA
HETATM   23  C   UNL     1     -45.323  61.080 -47.189  1.00  0.00     0.210 C 
ENDBRANCH  17  22
ENDBRANCH  13  16
ENDBRANCH   4   8
BRANCH   1  24
HETATM   24  C   UNL     1     -43.648  56.866 -56.955  1.00  0.00     0.257 C 
HETATM   25  N   UNL     1     -43.512  56.055 -58.054  1.00  0.00    -0.353 N 
HETATM   26  H   UNL     1     -42.686  55.456 -58.100  1.00  0.00     0.163 HD
HETATM   27  O   UNL     1     -44.597  57.628 -56.788  1.00  0.00    -0.267 OA
BRANCH  25  28
HETATM   28  C   UNL     1     -44.393  56.062 -59.214  1.00  0.00     0.076 C 
HETATM   29  C   UNL     1     -44.574  54.663 -59.799  1.00  0.00     0.032 C 
HETATM   30  C   UNL     1     -43.956  57.064 -60.280  1.00  0.00     0.032 C 
ENDBRANCH  25  28
ENDBRANCH   1  24
BRANCH   6  31
HETATM   31  C   UNL     1     -40.276  54.026 -54.774  1.00  0.00     0.132 C 
BRANCH  31  32
HETATM   32  C   UNL     1     -41.161  52.980 -54.055  1.00  0.00     0.004 C 
HETATM   33  C   UNL     1     -40.709  51.526 -54.268  1.00  0.00     0.006 C 
HETATM   34  C   UNL     1     -39.427  51.185 -53.517  1.00  0.00     0.000 C 
HETATM   35  C   UNL     1     -39.563  51.483 -52.028  1.00  0.00     0.000 C 
HETATM   36  C   UNL     1     -39.987  52.926 -51.775  1.00  0.00     0.000 C 
HETATM   37  C   UNL     1     -41.254  53.290 -52.549  1.00  0.00     0.006 C 
ENDBRANCH  31  32
ENDBRANCH   6  31
TORSDOF 7
ENDMDL
MODEL 2
REMARK VINA RESULT:      -8.5      2.751      7.834
REMARK  7 active torsions:
REMARK  status: ('A' for Active; 'I' for Inactive)
REMARK    1  A    between atoms: C_2  and  N_3 
REMARK       I    between atoms: N_3  and  C_4 
REMARK    2  A    between atoms: C_4  and  C_5 
REMARK    3  A    between atoms: C_8  and  C_9 
REMARK       I    between atoms: C_9  and  N_10 
REMARK    4  A    between atoms: N_13  and  C_14 
REMARK    5  A    between atoms: C_15  and  O_16 
REMARK    6  A    between atoms: N_26  and  C_27 
REMARK    7  A    between atoms: C_27  and  C_28 
ROOT
HETATM    1  C   UNL     1     -45.613  60.568 -54.457  1.00  0.00     0.098 A 
HETATM    2  C   UNL     1     -45.121  59.922 -53.206  1.00  0.00     0.206 A 
HETATM    3  O   UNL     1     -45.257  60.475 -52.116  1.00  0.00    -0.286 OA
HETATM    4  C   UNL     1     -44.438  58.603 -53.329  1.00  0.00     0.098 A 
HETATM    5  C   UNL     1     -44.226  58.125 -54.567  1.00  0.00     0.111 A 
HETATM    6  N   UNL     1     -44.583  58.777 -55.742  1.00  0.00    -0.364 N 
HETATM    7  C   UNL     1     -45.296  59.967 -55.618  1.00  0.00     0.111 A 
ENDROOT
BRANCH   4   8
HETATM    8  C   UNL     1     -44.249  57.721 -52.158  1.00  0.00     0.259 C 
HETATM    9  N   UNL     1     -42.998  57.209 -51.875  1.00  0.00    -0.345 N 
HETATM   10  C   UNL     1     -42.887  56.176 -50.840  1.00  0.00     0.146 C 
HETATM   11  C   UNL     1     -41.753  57.374 -52.643  1.00  0.00     0.146 C 
HETATM   12  C   UNL     1     -42.528  54.823 -51.479  1.00  0.00     0.143 C 
HETATM   13  N   UNL     1     -41.273  54.955 -52.269  1.00  0.00    -0.376 N 
HETATM   14  C   UNL     1     -41.325  56.030 -53.285  1.00  0.00     0.143 C 
HETATM   15  O   UNL     1     -45.245  57.428 -51.496  1.00  0.00    -0.267 OA
BRANCH  13  16
HETATM   16  C   UNL     1     -40.722  53.705 -52.627  1.00  0.00     0.064 A 
HETATM   17  C   UNL     1     -39.940  52.961 -51.701  1.00  0.00     0.094 A 
HETATM   18  C   UNL     1     -39.414  51.710 -52.055  1.00  0.00     0.039 A 
HETATM   19  C   UNL     1     -39.653  51.174 -53.319  1.00  0.00     0.003 A 
HETATM   20  C   UNL     1     -40.404  51.890 -54.242  1.00  0.00     0.002 A 
HETATM   21  C   UNL     1     -40.927  53.141 -53.900  1.00  0.00     0.032 A 
BRANCH  17  22
HETATM   22  O   UNL     1     -39.687  53.561 -50.487  1.00  0.00    -0.354 OA
HETATM   23  C   UNL     1     -40.364  53.041 -49.351  1.00  0.00     0.210 C 
ENDBRANCH  17  22
ENDBRANCH  13  16
ENDBRANCH   4   8
BRANCH   1  24
HETATM   24  C   UNL     1     -46.457  61.799 -54.502  1.00  0.00     0.257 C 
HETATM   25  N   UNL     1     -47.524  61.810 -53.641  1.00  0.00    -0.353 N 
HETATM   26  H   UNL     1     -47.645  61.003 -53.027  1.00  0.00     0.163 HD
HETATM   27  O   UNL     1     -46.208  62.711 -55.287  1.00  0.00    -0.267 OA
BRANCH  25  28
HETATM   28  C   UNL     1     -48.565  62.829 -53.610  1.00  0.00     0.076 C 
HETATM   29  C   UNL     1     -48.229  63.955 -52.633  1.00  0.00     0.032 C 
HETATM   30  C   UNL     1     -49.951  62.249 -53.343  1.00  0.00     0.032 C 
ENDBRANCH  25  28
ENDBRANCH   1  24
BRANCH   6  31
HETATM   31  C   UNL     1     -44.290  58.213 -57.078  1.00  0.00     0.132 C 
BRANCH  31  32
HETATM   32  C   UNL     1     -42.916  57.508 -57.168  1.00  0.00     0.004 C 
HETATM   33  C   UNL     1     -43.005  55.983 -57.348  1.00  0.00     0.006 C 
HETATM   34  C   UNL     1     -43.478  55.575 -58.739  1.00  0.00     0.000 C 
HETATM   35  C   UNL     1     -42.596  56.185 -59.823  1.00  0.00     0.000 C 
HETATM   36  C   UNL     1     -42.503  57.701 -59.691  1.00  0.00     0.000 C 
HETATM   37  C   UNL     1     -42.061  58.125 -58.291  1.00  0.00     0.006 C 
ENDBRANCH  31  32
ENDBRANCH   6  31
TORSDOF 7
ENDMDL
MODEL 3
REMARK VINA RESULT:      -8.2      2.823      9.017
REMARK  7 active torsions:
REMARK  status: ('A' for Active; 'I' for Inactive)
REMARK    1  A    between atoms: C_2  and  N_3 
REMARK       I    between atoms: N_3  and  C_4 
REMARK    2  A    between atoms: C_4  and  C_5 
REMARK    3  A    between atoms: C_8  and  C_9 
REMARK       I    between atoms: C_9  and  N_10 
REMARK    4  A    between atoms: N_13  and  C_14 
REMARK    5  A    between atoms: C_15  and  O_16 
REMARK    6  A    between atoms: N_26  and  C_27 
REMARK    7  A    between atoms: C_27  and  C_28 
ROOT
HETATM    1  C   UNL     1     -46.383  61.779 -51.914  1.00  0.00     0.098 A 
HETATM    2  C   UNL     1     -45.542  60.941 -52.817  1.00  0.00     0.206 A 
HETATM    3  O   UNL     1     -45.892  60.713 -53.974  1.00  0.00    -0.286 OA
HETATM    4  C   UNL     1     -44.283  60.371 -52.259  1.00  0.00     0.098 A 
HETATM    5  C   UNL     1     -44.034  60.570 -50.955  1.00  0.00     0.111 A 
HETATM    6  N   UNL     1     -44.871  61.255 -50.082  1.00  0.00    -0.364 N 
HETATM    7  C   UNL     1     -46.002  61.858 -50.627  1.00  0.00     0.111 A 
ENDROOT
BRANCH   4   8
HETATM    8  C   UNL     1     -43.216  59.853 -53.141  1.00  0.00     0.259 C 
HETATM    9  N   UNL     1     -43.184  58.512 -53.472  1.00  0.00    -0.345 N 
HETATM   10  C   UNL     1     -42.001  57.995 -54.169  1.00  0.00     0.146 C 
HETATM   11  C   UNL     1     -44.079  57.440 -53.007  1.00  0.00     0.146 C 
HETATM   12  C   UNL     1     -41.204  57.066 -53.237  1.00  0.00     0.143 C 
HETATM   13  N   UNL     1     -42.082  55.969 -52.744  1.00  0.00    -0.376 N 
HETATM   14  C   UNL     1     -43.318  56.452 -52.087  1.00  0.00     0.143 C 
HETATM   15  O   UNL     1     -42.346  60.641 -53.511  1.00  0.00    -0.267 OA
BRANCH  13  16
HETATM   16  C   UNL     1     -41.355  54.920 -52.139  1.00  0.00     0.064 A 
HETATM   17  C   UNL     1     -40.913  53.805 -52.903  1.00  0.00     0.094 A 
HETATM   18  C   UNL     1     -40.173  52.777 -52.301  1.00  0.00     0.039 A 
HETATM   19  C   UNL     1     -39.854  52.835 -50.946  1.00  0.00     0.003 A 
HETATM   20  C   UNL     1     -40.285  53.910 -50.180  1.00  0.00     0.002 A 
HETATM   21  C   UNL     1     -41.030  54.936 -50.770  1.00  0.00     0.032 A 
BRANCH  17  22
HETATM   22  O   UNL     1     -41.304  53.769 -54.224  1.00  0.00    -0.354 OA
HETATM   23  C   UNL     1     -40.291  53.933 -55.206  1.00  0.00     0.210 C 
ENDBRANCH  17  22
ENDBRANCH  13  16
ENDBRANCH   4   8
BRANCH   1  24
HETATM   24  C   UNL     1     -47.581  62.557 -52.349  1.00  0.00     0.257 C 
HETATM   25  N   UNL     1     -48.558  61.826 -52.977  1.00  0.00    -0.353 N 
HETATM   26  H   UNL     1     -48.408  60.821 -53.075  1.00  0.00     0.163 HD
HETATM   27  O   UNL     1     -47.649  63.771 -52.172  1.00  0.00    -0.267 OA
BRANCH  25  28
HETATM   28  C   UNL     1     -49.742  62.386 -53.616  1.00  0.00     0.076 C 
HETATM   29  C   UNL     1     -51.016  61.663 -53.184  1.00  0.00     0.032 C 
HETATM   30  C   UNL     1     -49.618  62.448 -55.136  1.00  0.00     0.032 C 
ENDBRANCH  25  28
ENDBRANCH   1  24
BRANCH   6  31
HETATM   31  C   UNL     1     -44.556  61.412 -48.644  1.00  0.00     0.132 C 
BRANCH  31  32
HETATM   32  C   UNL     1     -45.808  61.464 -47.736  1.00  0.00     0.004 C 
HETATM   33  C   UNL     1     -45.726  60.548 -46.504  1.00  0.00     0.006 C 
HETATM   34  C   UNL     1     -44.750  61.056 -45.449  1.00  0.00     0.000 C 
HETATM   35  C   UNL     1     -45.086  62.482 -45.026  1.00  0.00     0.000 C 
HETATM   36  C   UNL     1     -45.153  63.427 -46.222  1.00  0.00     0.000 C 
HETATM   37  C   UNL     1     -46.104  62.912 -47.302  1.00  0.00     0.006 C 
ENDBRANCH  31  32
ENDBRANCH   6  31
TORSDOF 7
ENDMDL
MODEL 4
REMARK VINA RESULT:      -8.2      2.456      8.270
REMARK  7 active torsions:
REMARK  status: ('A' for Active; 'I' for Inactive)
REMARK    1  A    between atoms: C_2  and  N_3 
REMARK       I    between atoms: N_3  and  C_4 
REMARK    2  A    between atoms: C_4  and  C_5 
REMARK    3  A    between atoms: C_8  and  C_9 
REMARK       I    between atoms: C_9  and  N_10 
REMARK    4  A    between atoms: N_13  and  C_14 
REMARK    5  A    between atoms: C_15  and  O_16 
REMARK    6  A    between atoms: N_26  and  C_27 
REMARK    7  A    between atoms: C_27  and  C_28 
ROOT
HETATM    1  C   UNL     1     -44.375  59.006 -54.741  1.00  0.00     0.098 A 
HETATM    2  C   UNL     1     -44.547  57.875 -53.784  1.00  0.00     0.206 A 
HETATM    3  O   UNL     1     -44.853  56.752 -54.184  1.00  0.00    -0.286 OA
HETATM    4  C   UNL     1     -44.362  58.161 -52.333  1.00  0.00     0.098 A 
HETATM    5  C   UNL     1     -44.145  59.436 -51.973  1.00  0.00     0.111 A 
HETATM    6  N   UNL     1     -44.095  60.512 -52.851  1.00  0.00    -0.364 N 
HETATM    7  C   UNL     1     -44.183  60.228 -54.212  1.00  0.00     0.111 A 
ENDROOT
BRANCH   4   8
HETATM    8  C   UNL     1     -44.145  57.073 -51.356  1.00  0.00     0.259 C 
HETATM    9  N   UNL     1     -42.892  56.511 -51.216  1.00  0.00    -0.345 N 
HETATM   10  C   UNL     1     -42.760  55.300 -50.398  1.00  0.00     0.146 C 
HETATM   11  C   UNL     1     -41.670  56.811 -51.980  1.00  0.00     0.146 C 
HETATM   12  C   UNL     1     -42.436  54.090 -51.292  1.00  0.00     0.143 C 
HETATM   13  N   UNL     1     -41.205  54.363 -52.084  1.00  0.00    -0.376 N 
HETATM   14  C   UNL     1     -41.277  55.610 -52.877  1.00  0.00     0.143 C 
HETATM   15  O   UNL     1     -45.123  56.665 -50.729  1.00  0.00    -0.267 OA
BRANCH  13  16
HETATM   16  C   UNL     1     -40.679  53.200 -52.689  1.00  0.00     0.064 A 
HETATM   17  C   UNL     1     -40.032  52.202 -51.909  1.00  0.00     0.094 A 
HETATM   18  C   UNL     1     -39.531  51.039 -52.513  1.00  0.00     0.039 A 
HETATM   19  C   UNL     1     -39.664  50.842 -53.887  1.00  0.00     0.003 A 
HETATM   20  C   UNL     1     -40.282  51.810 -54.667  1.00  0.00     0.002 A 
HETATM   21  C   UNL     1     -40.778  52.976 -54.075  1.00  0.00     0.032 A 
BRANCH  17  22
HETATM   22  O   UNL     1     -39.877  52.473 -50.567  1.00  0.00    -0.354 OA
HETATM   23  C   UNL     1     -40.419  51.535 -49.649  1.00  0.00     0.210 C 
ENDBRANCH  17  22
ENDBRANCH  13  16
ENDBRANCH   4   8
BRANCH   1  24
HETATM   24  C   UNL     1     -44.361  58.866 -56.228  1.00  0.00     0.257 C 
HETATM   25  N   UNL     1     -43.647  57.799 -56.710  1.00  0.00    -0.353 N 
HETATM   26  H   UNL     1     -43.209  57.177 -56.028  1.00  0.00     0.163 HD
HETATM   27  O   UNL     1     -44.932  59.682 -56.947  1.00  0.00    -0.267 OA
BRANCH  25  28
HETATM   28  C   UNL     1     -43.369  57.544 -58.117  1.00  0.00     0.076 C 
HETATM   29  C   UNL     1     -43.595  56.078 -58.485  1.00  0.00     0.032 C 
HETATM   30  C   UNL     1     -41.983  58.022 -58.541  1.00  0.00     0.032 C 
ENDBRANCH  25  28
ENDBRANCH   1  24
BRANCH   6  31
HETATM   31  C   UNL     1     -43.886  61.902 -52.387  1.00  0.00     0.132 C 
BRANCH  31  32
HETATM   32  C   UNL     1     -43.831  62.042 -50.848  1.00  0.00     0.004 C 
HETATM   33  C   UNL     1     -42.831  63.098 -50.350  1.00  0.00     0.006 C 
HETATM   34  C   UNL     1     -43.292  64.527 -50.617  1.00  0.00     0.000 C 
HETATM   35  C   UNL     1     -44.671  64.782 -50.020  1.00  0.00     0.000 C 
HETATM   36  C   UNL     1     -45.698  63.767 -50.510  1.00  0.00     0.000 C 
HETATM   37  C   UNL     1     -45.233  62.329 -50.278  1.00  0.00     0.006 C 
ENDBRANCH  31  32
ENDBRANCH   6  31
TORSDOF 7
ENDMDL
MODEL 5
REMARK VINA RESULT:      -8.0      2.363      7.663
REMARK  7 active torsions:
REMARK  status: ('A' for Active; 'I' for Inactive)
REMARK    1  A    between atoms: C_2  and  N_3 
REMARK       I    between atoms: N_3  and  C_4 
REMARK    2  A    between atoms: C_4  and  C_5 
REMARK    3  A    between atoms: C_8  and  C_9 
REMARK       I    between atoms: C_9  and  N_10 
REMARK    4  A    between atoms: N_13  and  C_14 
REMARK    5  A    between atoms: C_15  and  O_16 
REMARK    6  A    between atoms: N_26  and  C_27 
REMARK    7  A    between atoms: C_27  and  C_28 
ROOT
HETATM    1  C   UNL     1     -42.320  59.522 -52.215  1.00  0.00     0.098 A 
HETATM    2  C   UNL     1     -42.781  60.113 -53.505  1.00  0.00     0.206 A 
HETATM    3  O   UNL     1     -43.409  61.171 -53.524  1.00  0.00    -0.286 OA
HETATM    4  C   UNL     1     -42.476  59.366 -54.758  1.00  0.00     0.098 A 
HETATM    5  C   UNL     1     -41.891  58.163 -54.638  1.00  0.00     0.111 A 
HETATM    6  N   UNL     1     -41.561  57.557 -53.432  1.00  0.00    -0.364 N 
HETATM    7  C   UNL     1     -41.769  58.296 -52.270  1.00  0.00     0.111 A 
ENDROOT
BRANCH   4   8
HETATM    8  C   UNL     1     -42.552  60.019 -56.082  1.00  0.00     0.259 C 
HETATM    9  N   UNL     1     -43.772  60.164 -56.712  1.00  0.00    -0.345 N 
HETATM   10  C   UNL     1     -43.786  60.619 -58.106  1.00  0.00     0.146 C 
HETATM   11  C   UNL     1     -45.089  59.686 -56.261  1.00  0.00     0.146 C 
HETATM   12  C   UNL     1     -44.230  59.474 -59.033  1.00  0.00     0.143 C 
HETATM   13  N   UNL     1     -45.561  58.963 -58.601  1.00  0.00    -0.376 N 
HETATM   14  C   UNL     1     -45.603  58.549 -57.181  1.00  0.00     0.143 C 
HETATM   15  O   UNL     1     -41.495  60.370 -56.608  1.00  0.00    -0.267 OA
BRANCH  13  16
HETATM   16  C   UNL     1     -46.165  58.133 -59.572  1.00  0.00     0.064 A 
HETATM   17  C   UNL     1     -45.721  56.796 -59.764  1.00  0.00     0.094 A 
HETATM   18  C   UNL     1     -46.339  55.969 -60.715  1.00  0.00     0.039 A 
HETATM   19  C   UNL     1     -47.402  56.445 -61.481  1.00  0.00     0.003 A 
HETATM   20  C   UNL     1     -47.843  57.751 -61.316  1.00  0.00     0.002 A 
HETATM   21  C   UNL     1     -47.228  58.584 -60.376  1.00  0.00     0.032 A 
BRANCH  17  22
HETATM   22  O   UNL     1     -44.631  56.395 -59.022  1.00  0.00    -0.354 OA
HETATM   23  C   UNL     1     -43.635  55.634 -59.690  1.00  0.00     0.210 C 
ENDBRANCH  17  22
ENDBRANCH  13  16
ENDBRANCH   4   8
BRANCH   1  24
HETATM   24  C   UNL     1     -42.393  60.209 -50.892  1.00  0.00     0.257 C 
HETATM   25  N   UNL     1     -43.600  60.792 -50.599  1.00  0.00    -0.353 N 
HETATM   26  H   UNL     1     -44.351  60.692 -51.284  1.00  0.00     0.163 HD
HETATM   27  O   UNL     1     -41.416  60.261 -50.148  1.00  0.00    -0.267 OA
BRANCH  25  28
HETATM   28  C   UNL     1     -43.863  61.638 -49.443  1.00  0.00     0.076 C 
HETATM   29  C   UNL     1     -45.098  61.177 -48.671  1.00  0.00     0.032 C 
HETATM   30  C   UNL     1     -43.946  63.119 -49.802  1.00  0.00     0.032 C 
ENDBRANCH  25  28
ENDBRANCH   1  24
BRANCH   6  31
HETATM   31  C   UNL     1     -40.947  56.211 -53.365  1.00  0.00     0.132 C 
BRANCH  31  32
HETATM   32  C   UNL     1     -41.887  55.076 -53.835  1.00  0.00     0.004 C 
HETATM   33  C   UNL     1     -41.530  54.498 -55.214  1.00  0.00     0.006 C 
HETATM   34  C   UNL     1     -40.263  53.651 -55.195  1.00  0.00     0.000 C 
HETATM   35  C   UNL     1     -40.362  52.532 -54.164  1.00  0.00     0.000 C 
HETATM   36  C   UNL     1     -40.691  53.070 -52.775  1.00  0.00     0.000 C 
HETATM   37  C   UNL     1     -41.942  53.948 -52.787  1.00  0.00     0.006 C 
ENDBRANCH  31  32
ENDBRANCH   6  31
TORSDOF 7
ENDMDL
MODEL 6
REMARK VINA RESULT:      -8.0      1.873      5.304
REMARK  7 active torsions:
REMARK  status: ('A' for Active; 'I' for Inactive)
REMARK    1  A    between atoms: C_2  and  N_3 
REMARK       I    between atoms: N_3  and  C_4 
REMARK    2  A    between atoms: C_4  and  C_5 
REMARK    3  A    between atoms: C_8  and  C_9 
REMARK       I    between atoms: C_9  and  N_10 
REMARK    4  A    between atoms: N_13  and  C_14 
REMARK    5  A    between atoms: C_15  and  O_16 
REMARK    6  A    between atoms: N_26  and  C_27 
REMARK    7  A    between atoms: C_27  and  C_28 
ROOT
HETATM    1  C   UNL     1     -41.009  54.082 -54.207  1.00  0.00     0.098 A 
HETATM    2  C   UNL     1     -40.986  55.177 -53.194  1.00  0.00     0.206 A 
HETATM    3  O   UNL     1     -40.570  54.973 -52.055  1.00  0.00    -0.286 OA
HETATM    4  C   UNL     1     -41.505  56.512 -53.605  1.00  0.00     0.098 A 
HETATM    5  C   UNL     1     -42.049  56.618 -54.829  1.00  0.00     0.111 A 
HETATM    6  N   UNL     1     -42.176  55.572 -55.735  1.00  0.00    -0.364 N 
HETATM    7  C   UNL     1     -41.611  54.349 -55.379  1.00  0.00     0.111 A 
ENDROOT
BRANCH   4   8
HETATM    8  C   UNL     1     -41.195  57.731 -52.829  1.00  0.00     0.259 C 
HETATM    9  N   UNL     1     -42.033  58.131 -51.807  1.00  0.00    -0.345 N 
HETATM   10  C   UNL     1     -41.814  59.450 -51.203  1.00  0.00     0.146 C 
HETATM   11  C   UNL     1     -43.301  57.518 -51.379  1.00  0.00     0.146 C 
HETATM   12  C   UNL     1     -42.964  60.401 -51.578  1.00  0.00     0.143 C 
HETATM   13  N   UNL     1     -44.265  59.808 -51.162  1.00  0.00    -0.376 N 
HETATM   14  C   UNL     1     -44.496  58.450 -51.703  1.00  0.00     0.143 C 
HETATM   15  O   UNL     1     -40.209  58.388 -53.166  1.00  0.00    -0.267 OA
BRANCH  13  16
HETATM   16  C   UNL     1     -45.323  60.743 -51.193  1.00  0.00     0.064 A 
HETATM   17  C   UNL     1     -45.628  61.537 -50.054  1.00  0.00     0.094 A 
HETATM   18  C   UNL     1     -46.667  62.479 -50.098  1.00  0.00     0.039 A 
HETATM   19  C   UNL     1     -47.412  62.656 -51.263  1.00  0.00     0.003 A 
HETATM   20  C   UNL     1     -47.138  61.882 -52.382  1.00  0.00     0.002 A 
HETATM   21  C   UNL     1     -46.110  60.935 -52.345  1.00  0.00     0.032 A 
BRANCH  17  22
HETATM   22  O   UNL     1     -44.899  61.283 -48.913  1.00  0.00    -0.354 OA
HETATM   23  C   UNL     1     -45.627  61.025 -47.721  1.00  0.00     0.210 C 
ENDBRANCH  17  22
ENDBRANCH  13  16
ENDBRANCH   4   8
BRANCH   1  24
HETATM   24  C   UNL     1     -40.382  52.739 -54.021  1.00  0.00     0.257 C 
HETATM   25  N   UNL     1     -40.270  52.320 -52.720  1.00  0.00    -0.353 N 
HETATM   26  H   UNL     1     -40.639  52.934 -51.991  1.00  0.00     0.163 HD
HETATM   27  O   UNL     1     -39.977  52.089 -54.981  1.00  0.00    -0.267 OA
BRANCH  25  28
HETATM   28  C   UNL     1     -39.564  51.122 -52.284  1.00  0.00     0.076 C 
HETATM   29  C   UNL     1     -39.829  49.937 -53.211  1.00  0.00     0.032 C 
HETATM   30  C   UNL     1     -39.847  50.769 -50.826  1.00  0.00     0.032 C 
ENDBRANCH  25  28
ENDBRANCH   1  24
BRANCH   6  31
HETATM   31  C   UNL     1     -42.817  55.746 -57.058  1.00  0.00     0.132 C 
BRANCH  31  32
HETATM   32  C   UNL     1     -43.006  57.226 -57.467  1.00  0.00     0.004 C 
HETATM   33  C   UNL     1     -42.039  57.702 -58.563  1.00  0.00     0.006 C 
HETATM   34  C   UNL     1     -42.363  57.121 -59.935  1.00  0.00     0.000 C 
HETATM   35  C   UNL     1     -43.804  57.419 -60.336  1.00  0.00     0.000 C 
HETATM   36  C   UNL     1     -44.796  56.940 -59.281  1.00  0.00     0.000 C 
HETATM   37  C   UNL     1     -44.463  57.490 -57.894  1.00  0.00     0.006 C 
ENDBRANCH  31  32
ENDBRANCH   6  31
TORSDOF 7
ENDMDL
MODEL 7
REMARK VINA RESULT:      -7.7      2.690      8.572
REMARK  7 active torsions:
REMARK  status: ('A' for Active; 'I' for Inactive)
REMARK    1  A    between atoms: C_2  and  N_3 
REMARK       I    between atoms: N_3  and  C_4 
REMARK    2  A    between atoms: C_4  and  C_5 
REMARK    3  A    between atoms: C_8  and  C_9 
REMARK       I    between atoms: C_9  and  N_10 
REMARK    4  A    between atoms: N_13  and  C_14 
REMARK    5  A    between atoms: C_15  and  O_16 
REMARK    6  A    between atoms: N_26  and  C_27 
REMARK    7  A    between atoms: C_27  and  C_28 
ROOT
HETATM    1  C   UNL     1     -43.479  60.438 -53.239  1.00  0.00     0.098 A 
HETATM    2  C   UNL     1     -43.107  59.351 -52.288  1.00  0.00     0.206 A 
HETATM    3  O   UNL     1     -42.517  59.606 -51.239  1.00  0.00    -0.286 OA
HETATM    4  C   UNL     1     -43.453  57.952 -52.665  1.00  0.00     0.098 A 
HETATM    5  C   UNL     1     -43.991  57.750 -53.879  1.00  0.00     0.111 A 
HETATM    6  N   UNL     1     -44.236  58.747 -54.816  1.00  0.00    -0.364 N 
HETATM    7  C   UNL     1     -43.991  60.061 -54.424  1.00  0.00     0.111 A 
ENDROOT
BRANCH   4   8
HETATM    8  C   UNL     1     -43.470  56.865 -51.663  1.00  0.00     0.259 C 
HETATM    9  N   UNL     1     -42.322  56.141 -51.410  1.00  0.00    -0.345 N 
HETATM   10  C   UNL     1     -42.426  54.941 -50.573  1.00  0.00     0.146 C 
HETATM   11  C   UNL     1     -41.011  56.257 -52.069  1.00  0.00     0.146 C 
HETATM   12  C   UNL     1     -42.197  53.680 -51.424  1.00  0.00     0.143 C 
HETATM   13  N   UNL     1     -40.878  53.767 -52.110  1.00  0.00    -0.376 N 
HETATM   14  C   UNL     1     -40.712  54.996 -52.918  1.00  0.00     0.143 C 
HETATM   15  O   UNL     1     -44.544  56.606 -51.118  1.00  0.00    -0.267 OA
BRANCH  13  16
HETATM   16  C   UNL     1     -40.467  52.531 -52.657  1.00  0.00     0.064 A 
HETATM   17  C   UNL     1     -39.992  51.485 -51.819  1.00  0.00     0.094 A 
HETATM   18  C   UNL     1     -39.606  50.253 -52.366  1.00  0.00     0.039 A 
HETATM   19  C   UNL     1     -39.687  50.032 -53.740  1.00  0.00     0.003 A 
HETATM   20  C   UNL     1     -40.138  51.044 -54.576  1.00  0.00     0.002 A 
HETATM   21  C   UNL     1     -40.518  52.279 -54.041  1.00  0.00     0.032 A 
BRANCH  17  22
HETATM   22  O   UNL     1     -39.877  51.775 -50.477  1.00  0.00    -0.354 OA
HETATM   23  C   UNL     1     -40.486  50.873 -49.564  1.00  0.00     0.210 C 
ENDBRANCH  17  22
ENDBRANCH  13  16
ENDBRANCH   4   8
BRANCH   1  24
HETATM   24  C   UNL     1     -43.359  61.898 -52.950  1.00  0.00     0.257 C 
HETATM   25  N   UNL     1     -43.632  62.264 -51.656  1.00  0.00    -0.353 N 
HETATM   26  H   UNL     1     -43.867  61.522 -50.995  1.00  0.00     0.163 HD
HETATM   27  O   UNL     1     -43.063  62.698 -53.834  1.00  0.00    -0.267 OA
BRANCH  25  28
HETATM   28  C   UNL     1     -43.724  63.636 -51.176  1.00  0.00     0.076 C 
HETATM   29  C   UNL     1     -43.109  63.794 -49.786  1.00  0.00     0.032 C 
HETATM   30  C   UNL     1     -45.147  64.185 -51.226  1.00  0.00     0.032 C 
ENDBRANCH  25  28
ENDBRANCH   1  24
BRANCH   6  31
HETATM   31  C   UNL     1     -44.800  58.455 -56.153  1.00  0.00     0.132 C 
BRANCH  31  32
HETATM   32  C   UNL     1     -43.965  57.442 -56.972  1.00  0.00     0.004 C 
HETATM   33  C   UNL     1     -44.516  57.172 -58.382  1.00  0.00     0.006 C 
HETATM   34  C   UNL     1     -44.312  58.346 -59.334  1.00  0.00     0.000 C 
HETATM   35  C   UNL     1     -42.844  58.749 -59.409  1.00  0.00     0.000 C 
HETATM   36  C   UNL     1     -42.268  59.048 -58.029  1.00  0.00     0.000 C 
HETATM   37  C   UNL     1     -42.494  57.892 -57.055  1.00  0.00     0.006 C 
ENDBRANCH  31  32
ENDBRANCH   6  31
TORSDOF 7
ENDMDL
MODEL 8
REMARK VINA RESULT:      -7.7      2.578      8.997
REMARK  7 active torsions:
REMARK  status: ('A' for Active; 'I' for Inactive)
REMARK    1  A    between atoms: C_2  and  N_3 
REMARK       I    between atoms: N_3  and  C_4 
REMARK    2  A    between atoms: C_4  and  C_5 
REMARK    3  A    between atoms: C_8  and  C_9 
REMARK       I    between atoms: C_9  and  N_10 
REMARK    4  A    between atoms: N_13  and  C_14 
REMARK    5  A    between atoms: C_15  and  O_16 
REMARK    6  A    between atoms: N_26  and  C_27 
REMARK    7  A    between atoms: C_27  and  C_28 
ROOT
HETATM    1  C   UNL     1     -43.759  57.877 -51.549  1.00  0.00     0.098 A 
HETATM    2  C   UNL     1     -42.922  58.254 -52.723  1.00  0.00     0.206 A 
HETATM    3  O   UNL     1     -42.008  57.525 -53.107  1.00  0.00    -0.286 OA
HETATM    4  C   UNL     1     -43.214  59.552 -53.395  1.00  0.00     0.098 A 
HETATM    5  C   UNL     1     -44.150  60.342 -52.842  1.00  0.00     0.111 A 
HETATM    6  N   UNL     1     -44.855  60.045 -51.682  1.00  0.00    -0.364 N 
HETATM    7  C   UNL     1     -44.639  58.794 -51.108  1.00  0.00     0.111 A 
ENDROOT
BRANCH   4   8
HETATM    8  C   UNL     1     -42.713  59.847 -54.754  1.00  0.00     0.259 C 
HETATM    9  N   UNL     1     -43.567  59.771 -55.836  1.00  0.00    -0.345 N 
HETATM   10  C   UNL     1     -42.993  59.859 -57.184  1.00  0.00     0.146 C 
HETATM   11  C   UNL     1     -44.981  59.361 -55.851  1.00  0.00     0.146 C 
HETATM   12  C   UNL     1     -43.098  58.498 -57.894  1.00  0.00     0.143 C 
HETATM   13  N   UNL     1     -44.518  58.052 -57.922  1.00  0.00    -0.376 N 
HETATM   14  C   UNL     1     -45.151  58.007 -56.586  1.00  0.00     0.143 C 
HETATM   15  O   UNL     1     -41.515  60.102 -54.879  1.00  0.00    -0.267 OA
BRANCH  13  16
HETATM   16  C   UNL     1     -44.731  56.976 -58.813  1.00  0.00     0.064 A 
HETATM   17  C   UNL     1     -45.843  56.974 -59.700  1.00  0.00     0.094 A 
HETATM   18  C   UNL     1     -46.038  55.914 -60.597  1.00  0.00     0.039 A 
HETATM   19  C   UNL     1     -45.141  54.848 -60.638  1.00  0.00     0.003 A 
HETATM   20  C   UNL     1     -44.055  54.826 -59.773  1.00  0.00     0.002 A 
HETATM   21  C   UNL     1     -43.857  55.875 -58.869  1.00  0.00     0.032 A 
BRANCH  17  22
HETATM   22  O   UNL     1     -46.730  58.023 -59.579  1.00  0.00    -0.354 OA
HETATM   23  C   UNL     1     -47.299  58.533 -60.776  1.00  0.00     0.210 C 
ENDBRANCH  17  22
ENDBRANCH  13  16
ENDBRANCH   4   8
BRANCH   1  24
HETATM   24  C   UNL     1     -43.714  56.551 -50.864  1.00  0.00     0.257 C 
HETATM   25  N   UNL     1     -42.457  56.058 -50.623  1.00  0.00    -0.353 N 
HETATM   26  H   UNL     1     -41.661  56.635 -50.902  1.00  0.00     0.163 HD
HETATM   27  O   UNL     1     -44.746  55.950 -50.574  1.00  0.00    -0.267 OA
BRANCH  25  28
HETATM   28  C   UNL     1     -42.163  54.728 -50.106  1.00  0.00     0.076 C 
HETATM   29  C   UNL     1     -41.113  54.769 -48.998  1.00  0.00     0.032 C 
HETATM   30  C   UNL     1     -41.784  53.738 -51.204  1.00  0.00     0.032 C 
ENDBRANCH  25  28
ENDBRANCH   1  24
BRANCH   6  31
HETATM   31  C   UNL     1     -45.851  60.975 -51.102  1.00  0.00     0.132 C 
BRANCH  31  32
HETATM   32  C   UNL     1     -45.227  62.253 -50.495  1.00  0.00     0.004 C 
HETATM   33  C   UNL     1     -46.253  63.213 -49.869  1.00  0.00     0.006 C 
HETATM   34  C   UNL     1     -46.836  62.690 -48.561  1.00  0.00     0.000 C 
HETATM   35  C   UNL     1     -45.736  62.364 -47.557  1.00  0.00     0.000 C 
HETATM   36  C   UNL     1     -44.711  61.394 -48.134  1.00  0.00     0.000 C 
HETATM   37  C   UNL     1     -44.142  61.892 -49.463  1.00  0.00     0.006 C 
ENDBRANCH  31  32
ENDBRANCH   6  31
TORSDOF 7
ENDMDL
MODEL 9
REMARK VINA RESULT:      -7.6      2.339      8.692
REMARK  7 active torsions:
REMARK  status: ('A' for Active; 'I' for Inactive)
REMARK    1  A    between atoms: C_2  and  N_3 
REMARK       I    between atoms: N_3  and  C_4 
REMARK    2  A    between atoms: C_4  and  C_5 
REMARK    3  A    between atoms: C_8  and  C_9 
REMARK       I    between atoms: C_9  and  N_10 
REMARK    4  A    between atoms: N_13  and  C_14 
REMARK    5  A    between atoms: C_15  and  O_16 
REMARK    6  A    between atoms: N_26  and  C_27 
REMARK    7  A    between atoms: C_27  and  C_28 
ROOT
HETATM    1  C   UNL     1     -41.815  58.189 -52.443  1.00  0.00     0.098 A 
HETATM    2  C   UNL     1     -41.795  58.675 -53.853  1.00  0.00     0.206 A 
HETATM    3  O   UNL     1     -41.407  57.947 -54.766  1.00  0.00    -0.286 OA
HETATM    4  C   UNL     1     -42.234  60.076 -54.109  1.00  0.00     0.098 A 
HETATM    5  C   UNL     1     -42.529  60.840 -53.044  1.00  0.00     0.111 A 
HETATM    6  N   UNL     1     -42.442  60.426 -51.721  1.00  0.00    -0.364 N 
HETATM    7  C   UNL     1     -42.114  59.091 -51.492  1.00  0.00     0.111 A 
ENDROOT
BRANCH   4   8
HETATM    8  C   UNL     1     -42.601  60.532 -55.466  1.00  0.00     0.259 C 
HETATM    9  N   UNL     1     -43.738  60.040 -56.076  1.00  0.00    -0.345 N 
HETATM   10  C   UNL     1     -43.956  60.348 -57.494  1.00  0.00     0.146 C 
HETATM   11  C   UNL     1     -44.672  59.021 -55.570  1.00  0.00     0.146 C 
HETATM   12  C   UNL     1     -43.794  59.074 -58.343  1.00  0.00     0.143 C 
HETATM   13  N   UNL     1     -44.724  58.020 -57.853  1.00  0.00    -0.376 N 
HETATM   14  C   UNL     1     -44.575  57.723 -56.411  1.00  0.00     0.143 C 
HETATM   15  O   UNL     1     -41.834  61.311 -56.035  1.00  0.00    -0.267 OA
BRANCH  13  16
HETATM   16  C   UNL     1     -44.852  56.944 -58.760  1.00  0.00     0.064 A 
HETATM   17  C   UNL     1     -46.004  56.819 -59.585  1.00  0.00     0.094 A 
HETATM   18  C   UNL     1     -46.115  55.761 -60.499  1.00  0.00     0.039 A 
HETATM   19  C   UNL     1     -45.095  54.818 -60.617  1.00  0.00     0.003 A 
HETATM   20  C   UNL     1     -43.968  54.916 -59.813  1.00  0.00     0.002 A 
HETATM   21  C   UNL     1     -43.851  55.964 -58.894  1.00  0.00     0.032 A 
BRANCH  17  22
HETATM   22  O   UNL     1     -47.006  57.744 -59.388  1.00  0.00    -0.354 OA
HETATM   23  C   UNL     1     -47.205  58.713 -60.407  1.00  0.00     0.210 C 
ENDBRANCH  17  22
ENDBRANCH  13  16
ENDBRANCH   4   8
BRANCH   1  24
HETATM   24  C   UNL     1     -41.568  56.776 -52.029  1.00  0.00     0.257 C 
HETATM   25  N   UNL     1     -42.070  55.820 -52.875  1.00  0.00    -0.353 N 
HETATM   26  H   UNL     1     -42.543  56.140 -53.722  1.00  0.00     0.163 HD
HETATM   27  O   UNL     1     -40.980  56.515 -50.982  1.00  0.00    -0.267 OA
BRANCH  25  28
HETATM   28  C   UNL     1     -42.083  54.388 -52.608  1.00  0.00     0.076 C 
HETATM   29  C   UNL     1     -41.951  53.569 -53.891  1.00  0.00     0.032 C 
HETATM   30  C   UNL     1     -43.292  53.952 -51.785  1.00  0.00     0.032 C 
ENDBRANCH  25  28
ENDBRANCH   1  24
BRANCH   6  31
HETATM   31  C   UNL     1     -42.749  61.328 -50.588  1.00  0.00     0.132 C 
BRANCH  31  32
HETATM   32  C   UNL     1     -43.737  62.462 -50.948  1.00  0.00     0.004 C 
HETATM   33  C   UNL     1     -44.989  62.508 -50.056  1.00  0.00     0.006 C 
HETATM   34  C   UNL     1     -44.695  63.002 -48.644  1.00  0.00     0.000 C 
HETATM   35  C   UNL     1     -44.012  64.365 -48.666  1.00  0.00     0.000 C 
HETATM   36  C   UNL     1     -42.751  64.353 -49.523  1.00  0.00     0.000 C 
HETATM   37  C   UNL     1     -43.026  63.828 -50.932  1.00  0.00     0.006 C 
ENDBRANCH  31  32
ENDBRANCH   6  31
TORSDOF 7
ENDMDL
MODEL 10
REMARK VINA RESULT:      -7.5      2.802      8.406
REMARK  7 active torsions:
REMARK  status: ('A' for Active; 'I' for Inactive)
REMARK    1  A    between atoms: C_2  and  N_3 
REMARK       I    between atoms: N_3  and  C_4 
REMARK    2  A    between atoms: C_4  and  C_5 
REMARK    3  A    between atoms: C_8  and  C_9 
REMARK       I    between atoms: C_9  and  N_10 
REMARK    4  A    between atoms: N_13  and  C_14 
REMARK    5  A    between atoms: C_15  and  O_16 
REMARK    6  A    between atoms: N_26  and  C_27 
REMARK    7  A    between atoms: C_27  and  C_28 
ROOT
HETATM    1  C   UNL     1     -42.312  57.520 -53.507  1.00  0.00     0.098 A 
HETATM    2  C   UNL     1     -42.093  58.074 -54.874  1.00  0.00     0.206 A 
HETATM    3  O   UNL     1     -41.837  57.332 -55.821  1.00  0.00    -0.286 OA
HETATM    4  C   UNL     1     -42.170  59.553 -55.043  1.00  0.00     0.098 A 
HETATM    5  C   UNL     1     -42.338  60.297 -53.938  1.00  0.00     0.111 A 
HETATM    6  N   UNL     1     -42.429  59.792 -52.646  1.00  0.00    -0.364 N 
HETATM    7  C   UNL     1     -42.443  58.407 -52.504  1.00  0.00     0.111 A 
ENDROOT
BRANCH   4   8
HETATM    8  C   UNL     1     -42.337  60.168 -56.377  1.00  0.00     0.259 C 
HETATM    9  N   UNL     1     -43.599  60.314 -56.917  1.00  0.00    -0.345 N 
HETATM   10  C   UNL     1     -43.713  60.728 -58.319  1.00  0.00     0.146 C 
HETATM   11  C   UNL     1     -44.886  59.871 -56.353  1.00  0.00     0.146 C 
HETATM   12  C   UNL     1     -44.244  59.564 -59.174  1.00  0.00     0.143 C 
HETATM   13  N   UNL     1     -45.545  59.088 -58.627  1.00  0.00    -0.376 N 
HETATM   14  C   UNL     1     -45.484  58.717 -57.196  1.00  0.00     0.143 C 
HETATM   15  O   UNL     1     -41.318  60.484 -56.992  1.00  0.00    -0.267 OA
BRANCH  13  16
HETATM   16  C   UNL     1     -46.233  58.240 -59.523  1.00  0.00     0.064 A 
HETATM   17  C   UNL     1     -47.178  58.767 -60.445  1.00  0.00     0.094 A 
HETATM   18  C   UNL     1     -47.843  57.922 -61.347  1.00  0.00     0.039 A 
HETATM   19  C   UNL     1     -47.583  56.553 -61.355  1.00  0.00     0.003 A 
HETATM   20  C   UNL     1     -46.672  56.017 -60.454  1.00  0.00     0.002 A 
HETATM   21  C   UNL     1     -46.010  56.850 -59.547  1.00  0.00     0.032 A 
BRANCH  17  22
HETATM   22  O   UNL     1     -47.439  60.117 -60.356  1.00  0.00    -0.354 OA
HETATM   23  C   UNL     1     -48.796  60.507 -60.202  1.00  0.00     0.210 C 
ENDBRANCH  17  22
ENDBRANCH  13  16
ENDBRANCH   4   8
BRANCH   1  24
HETATM   24  C   UNL     1     -42.433  56.066 -53.189  1.00  0.00     0.257 C 
HETATM   25  N   UNL     1     -41.322  55.311 -53.464  1.00  0.00    -0.353 N 
HETATM   26  H   UNL     1     -40.502  55.794 -53.835  1.00  0.00     0.163 HD
HETATM   27  O   UNL     1     -43.477  55.599 -52.740  1.00  0.00    -0.267 OA
BRANCH  25  28
HETATM   28  C   UNL     1     -41.254  53.858 -53.378  1.00  0.00     0.076 C 
HETATM   29  C   UNL     1     -40.753  53.393 -52.011  1.00  0.00     0.032 C 
HETATM   30  C   UNL     1     -40.445  53.237 -54.514  1.00  0.00     0.032 C 
ENDBRANCH  25  28
ENDBRANCH   1  24
BRANCH   6  31
HETATM   31  C   UNL     1     -42.580  60.670 -51.464  1.00  0.00     0.132 C 
BRANCH  31  32
HETATM   32  C   UNL     1     -43.782  61.638 -51.557  1.00  0.00     0.004 C 
HETATM   33  C   UNL     1     -44.848  61.420 -50.470  1.00  0.00     0.006 C 
HETATM   34  C   UNL     1     -44.390  61.876 -49.089  1.00  0.00     0.000 C 
HETATM   35  C   UNL     1     -43.945  63.334 -49.108  1.00  0.00     0.000 C 
HETATM   36  C   UNL     1     -42.870  63.585 -50.159  1.00  0.00     0.000 C 
HETATM   37  C   UNL     1     -43.303  63.102 -51.543  1.00  0.00     0.006 C 
ENDBRANCH  31  32
ENDBRANCH   6  31
TORSDOF 7
ENDMDL
