MODEL 1
REMARK VINA RESULT:      -7.7      0.000      0.000
REMARK  5 active torsions:
REMARK  status: ('A' for Active; 'I' for Inactive)
REMARK    1  A    between atoms: C_3  and  N_4 
REMARK       I    between atoms: N_4  and  C_5 
REMARK       I    between atoms: C_5  and  N_6 
REMARK    2  A    between atoms: N_6  and  C_7 
REMARK    3  A    between atoms: C_7  and  C_8 
REMARK    4  A    between atoms: C_8  and  C_9 
REMARK    5  A    between atoms: N_15  and  C_16 
ROOT
HETATM    1  C   UNL     1     -44.822  56.906 -54.342  1.00  0.00     0.054 C 
HETATM    2  C   UNL     1     -43.517  56.203 -54.375  1.00  0.00     0.003 A 
HETATM    3  C   UNL     1     -42.395  56.434 -55.207  1.00  0.00     0.159 A 
HETATM    4  N   UNL     1     -41.411  55.566 -54.955  1.00  0.00    -0.149 NA
HETATM    5  N   UNL     1     -41.864  54.777 -53.941  1.00  0.00    -0.241 N 
HETATM    6  C   UNL     1     -43.147  55.127 -53.597  1.00  0.00     0.129 A 
ENDROOT
BRANCH   3   7
HETATM    7  N   UNL     1     -42.333  57.407 -56.181  1.00  0.00    -0.291 N 
HETATM    8  C   UNL     1     -42.496  57.285 -57.526  1.00  0.00     0.321 C 
HETATM    9  N   UNL     1     -42.610  56.027 -58.030  1.00  0.00    -0.343 N 
HETATM   10  O   UNL     1     -42.494  58.291 -58.233  1.00  0.00    -0.247 OA
HETATM   11  H   UNL     1     -42.758  55.302 -57.328  1.00  0.00     0.164 HD
HETATM   12  H   UNL     1     -42.171  58.356 -55.884  1.00  0.00     0.172 HD
BRANCH   9  13
HETATM   13  C   UNL     1     -42.880  55.750 -59.425  1.00  0.00     0.133 C 
BRANCH  13  14
HETATM   14  C   UNL     1     -44.117  54.887 -59.619  1.00  0.00     0.137 C 
BRANCH  14  15
HETATM   15  C   UNL     1     -45.073  55.553 -60.573  1.00  0.00     0.389 C 
HETATM   16  F   UNL     1     -44.759  56.851 -60.771  1.00  0.00    -0.171 F 
HETATM   17  F   UNL     1     -45.058  54.940 -61.776  1.00  0.00    -0.171 F 
HETATM   18  F   UNL     1     -46.341  55.504 -60.108  1.00  0.00    -0.171 F 
ENDBRANCH  14  15
ENDBRANCH  13  14
ENDBRANCH   9  13
ENDBRANCH   3   7
BRANCH   5  19
HETATM   19  C   UNL     1     -41.053  53.709 -53.455  1.00  0.00     0.079 A 
HETATM   20  C   UNL     1     -40.611  53.586 -52.128  1.00  0.00     0.062 A 
HETATM   21 CL   UNL     1     -40.771  54.797 -50.904  1.00  0.00    -0.082 Cl
HETATM   22  C   UNL     1     -39.875  52.454 -51.742  1.00  0.00     0.026 A 
HETATM   23  C   UNL     1     -39.559  51.453 -52.660  1.00  0.00     0.002 A 
HETATM   24  C   UNL     1     -39.961  51.584 -53.981  1.00  0.00     0.002 A 
HETATM   25  C   UNL     1     -40.694  52.703 -54.379  1.00  0.00     0.033 A 
ENDBRANCH   5  19
TORSDOF 5
ENDMDL
MODEL 2
REMARK VINA RESULT:      -7.5      3.541      5.119
REMARK  5 active torsions:
REMARK  status: ('A' for Active; 'I' for Inactive)
REMARK    1  A    between atoms: C_3  and  N_4 
REMARK       I    between atoms: N_4  and  C_5 
REMARK       I    between atoms: C_5  and  N_6 
REMARK    2  A    between atoms: N_6  and  C_7 
REMARK    3  A    between atoms: C_7  and  C_8 
REMARK    4  A    between atoms: C_8  and  C_9 
REMARK    5  A    between atoms: N_15  and  C_16 
ROOT
HETATM    1  C   UNL     1     -40.625  54.250 -48.077  1.00  0.00     0.054 C 
HETATM    2  C   UNL     1     -40.489  53.893 -49.508  1.00  0.00     0.003 A 
HETATM    3  C   UNL     1     -40.652  54.706 -50.656  1.00  0.00     0.159 A 
HETATM    4  N   UNL     1     -40.476  54.009 -51.781  1.00  0.00    -0.149 NA
HETATM    5  N   UNL     1     -40.169  52.741 -51.387  1.00  0.00    -0.241 N 
HETATM    6  C   UNL     1     -40.201  52.644 -50.017  1.00  0.00     0.129 A 
ENDROOT
BRANCH   3   7
HETATM    7  N   UNL     1     -40.988  56.043 -50.622  1.00  0.00    -0.291 N 
HETATM    8  C   UNL     1     -41.706  56.769 -51.520  1.00  0.00     0.321 C 
HETATM    9  N   UNL     1     -42.050  56.158 -52.685  1.00  0.00    -0.343 N 
HETATM   10  O   UNL     1     -41.982  57.942 -51.272  1.00  0.00    -0.247 OA
HETATM   11  H   UNL     1     -41.903  55.149 -52.694  1.00  0.00     0.164 HD
HETATM   12  H   UNL     1     -40.695  56.578 -49.820  1.00  0.00     0.172 HD
BRANCH   9  13
HETATM   13  C   UNL     1     -42.890  56.776 -53.690  1.00  0.00     0.133 C 
BRANCH  13  14
HETATM   14  C   UNL     1     -43.620  55.754 -54.548  1.00  0.00     0.137 C 
BRANCH  14  15
HETATM   15  C   UNL     1     -42.681  55.159 -55.563  1.00  0.00     0.389 C 
HETATM   16  F   UNL     1     -43.238  55.110 -56.792  1.00  0.00    -0.171 F 
HETATM   17  F   UNL     1     -41.548  55.890 -55.656  1.00  0.00    -0.171 F 
HETATM   18  F   UNL     1     -42.326  53.901 -55.222  1.00  0.00    -0.171 F 
ENDBRANCH  14  15
ENDBRANCH  13  14
ENDBRANCH   9  13
ENDBRANCH   3   7
BRANCH   5  19
HETATM   19  C   UNL     1     -39.954  51.725 -52.365  1.00  0.00     0.079 A 
HETATM   20  C   UNL     1     -39.688  50.379 -52.068  1.00  0.00     0.062 A 
HETATM   21 CL   UNL     1     -39.350  49.750 -50.492  1.00  0.00    -0.082 Cl
HETATM   22  C   UNL     1     -39.563  49.448 -53.112  1.00  0.00     0.026 A 
HETATM   23  C   UNL     1     -39.685  49.839 -54.444  1.00  0.00     0.002 A 
HETATM   24  C   UNL     1     -39.912  51.174 -54.748  1.00  0.00     0.002 A 
HETATM   25  C   UNL     1     -40.039  52.110 -53.721  1.00  0.00     0.033 A 
ENDBRANCH   5  19
TORSDOF 5
ENDMDL
MODEL 3
REMARK VINA RESULT:      -7.4      1.511      1.847
REMARK  5 active torsions:
REMARK  status: ('A' for Active; 'I' for Inactive)
REMARK    1  A    between atoms: C_3  and  N_4 
REMARK       I    between atoms: N_4  and  C_5 
REMARK       I    between atoms: C_5  and  N_6 
REMARK    2  A    between atoms: N_6  and  C_7 
REMARK    3  A    between atoms: C_7  and  C_8 
REMARK    4  A    between atoms: C_8  and  C_9 
REMARK    5  A    between atoms: N_15  and  C_16 
ROOT
HETATM    1  C   UNL     1     -44.005  57.152 -52.080  1.00  0.00     0.054 C 
HETATM    2  C   UNL     1     -42.875  56.346 -52.601  1.00  0.00     0.003 A 
HETATM    3  C   UNL     1     -41.893  56.693 -53.561  1.00  0.00     0.159 A 
HETATM    4  N   UNL     1     -41.054  55.680 -53.791  1.00  0.00    -0.149 NA
HETATM    5  N   UNL     1     -41.456  54.671 -52.969  1.00  0.00    -0.241 N 
HETATM    6  C   UNL     1     -42.574  55.044 -52.263  1.00  0.00     0.129 A 
ENDROOT
BRANCH   3   7
HETATM    7  N   UNL     1     -41.830  57.909 -54.207  1.00  0.00    -0.291 N 
HETATM    8  C   UNL     1     -42.075  58.200 -55.512  1.00  0.00     0.321 C 
HETATM    9  N   UNL     1     -42.292  57.154 -56.355  1.00  0.00    -0.343 N 
HETATM   10  O   UNL     1     -42.054  59.370 -55.889  1.00  0.00    -0.247 OA
HETATM   11  H   UNL     1     -42.443  56.259 -55.889  1.00  0.00     0.164 HD
HETATM   12  H   UNL     1     -41.595  58.719 -53.655  1.00  0.00     0.172 HD
BRANCH   9  13
HETATM   13  C   UNL     1     -42.656  57.317 -57.747  1.00  0.00     0.133 C 
BRANCH  13  14
HETATM   14  C   UNL     1     -43.536  56.184 -58.256  1.00  0.00     0.137 C 
BRANCH  14  15
HETATM   15  C   UNL     1     -43.272  55.935 -59.717  1.00  0.00     0.389 C 
HETATM   16  F   UNL     1     -43.786  56.914 -60.492  1.00  0.00    -0.171 F 
HETATM   17  F   UNL     1     -41.945  55.873 -59.962  1.00  0.00    -0.171 F 
HETATM   18  F   UNL     1     -43.814  54.765 -60.119  1.00  0.00    -0.171 F 
ENDBRANCH  14  15
ENDBRANCH  13  14
ENDBRANCH   9  13
ENDBRANCH   3   7
BRANCH   5  19
HETATM   19  C   UNL     1     -40.778  53.416 -52.999  1.00  0.00     0.079 A 
HETATM   20  C   UNL     1     -40.106  52.849 -51.905  1.00  0.00     0.062 A 
HETATM   21 CL   UNL     1     -39.782  53.648 -50.406  1.00  0.00    -0.082 Cl
HETATM   22  C   UNL     1     -39.532  51.572 -52.027  1.00  0.00     0.026 A 
HETATM   23  C   UNL     1     -39.605  50.861 -53.224  1.00  0.00     0.002 A 
HETATM   24  C   UNL     1     -40.236  51.430 -54.321  1.00  0.00     0.002 A 
HETATM   25  C   UNL     1     -40.811  52.697 -54.215  1.00  0.00     0.033 A 
ENDBRANCH   5  19
TORSDOF 5
ENDMDL
MODEL 4
REMARK VINA RESULT:      -7.3      1.976      2.521
REMARK  5 active torsions:
REMARK  status: ('A' for Active; 'I' for Inactive)
REMARK    1  A    between atoms: C_3  and  N_4 
REMARK       I    between atoms: N_4  and  C_5 
REMARK       I    between atoms: C_5  and  N_6 
REMARK    2  A    between atoms: N_6  and  C_7 
REMARK    3  A    between atoms: C_7  and  C_8 
REMARK    4  A    between atoms: C_8  and  C_9 
REMARK    5  A    between atoms: N_15  and  C_16 
ROOT
HETATM    1  C   UNL     1     -42.208  57.933 -51.210  1.00  0.00     0.054 C 
HETATM    2  C   UNL     1     -42.104  56.597 -51.844  1.00  0.00     0.003 A 
HETATM    3  C   UNL     1     -42.959  55.985 -52.792  1.00  0.00     0.159 A 
HETATM    4  N   UNL     1     -42.547  54.754 -53.102  1.00  0.00    -0.149 NA
HETATM    5  N   UNL     1     -41.406  54.553 -52.385  1.00  0.00    -0.241 N 
HETATM    6  C   UNL     1     -41.138  55.646 -51.595  1.00  0.00     0.129 A 
ENDROOT
BRANCH   3   7
HETATM    7  N   UNL     1     -44.097  56.569 -53.307  1.00  0.00    -0.291 N 
HETATM    8  C   UNL     1     -44.399  56.865 -54.600  1.00  0.00     0.321 C 
HETATM    9  N   UNL     1     -43.418  56.692 -55.526  1.00  0.00    -0.343 N 
HETATM   10  O   UNL     1     -45.512  57.308 -54.878  1.00  0.00    -0.247 OA
HETATM   11  H   UNL     1     -42.607  56.171 -55.191  1.00  0.00     0.164 HD
HETATM   12  H   UNL     1     -44.837  56.799 -52.662  1.00  0.00     0.172 HD
BRANCH   9  13
HETATM   13  C   UNL     1     -43.624  56.877 -56.947  1.00  0.00     0.133 C 
BRANCH  13  14
HETATM   14  C   UNL     1     -42.993  55.769 -57.777  1.00  0.00     0.137 C 
BRANCH  14  15
HETATM   15  C   UNL     1     -43.787  55.545 -59.037  1.00  0.00     0.389 C 
HETATM   16  F   UNL     1     -44.810  56.419 -59.146  1.00  0.00    -0.171 F 
HETATM   17  F   UNL     1     -43.005  55.689 -60.129  1.00  0.00    -0.171 F 
HETATM   18  F   UNL     1     -44.307  54.298 -59.071  1.00  0.00    -0.171 F 
ENDBRANCH  14  15
ENDBRANCH  13  14
ENDBRANCH   9  13
ENDBRANCH   3   7
BRANCH   5  19
HETATM   19  C   UNL     1     -40.726  53.302 -52.464  1.00  0.00     0.079 A 
HETATM   20  C   UNL     1     -40.266  52.575 -51.355  1.00  0.00     0.062 A 
HETATM   21 CL   UNL     1     -40.231  53.153 -49.725  1.00  0.00    -0.082 Cl
HETATM   22  C   UNL     1     -39.671  51.317 -51.545  1.00  0.00     0.026 A 
HETATM   23  C   UNL     1     -39.516  50.780 -52.822  1.00  0.00     0.002 A 
HETATM   24  C   UNL     1     -39.936  51.507 -53.927  1.00  0.00     0.002 A 
HETATM   25  C   UNL     1     -40.528  52.759 -53.753  1.00  0.00     0.033 A 
ENDBRANCH   5  19
TORSDOF 5
ENDMDL
MODEL 5
REMARK VINA RESULT:      -7.2      1.581      1.867
REMARK  5 active torsions:
REMARK  status: ('A' for Active; 'I' for Inactive)
REMARK    1  A    between atoms: C_3  and  N_4 
REMARK       I    between atoms: N_4  and  C_5 
REMARK       I    between atoms: C_5  and  N_6 
REMARK    2  A    between atoms: N_6  and  C_7 
REMARK    3  A    between atoms: C_7  and  C_8 
REMARK    4  A    between atoms: C_8  and  C_9 
REMARK    5  A    between atoms: N_15  and  C_16 
ROOT
HETATM    1  C   UNL     1     -41.863  59.667 -54.538  1.00  0.00     0.054 C 
HETATM    2  C   UNL     1     -41.966  58.188 -54.546  1.00  0.00     0.003 A 
HETATM    3  C   UNL     1     -42.964  57.361 -55.117  1.00  0.00     0.159 A 
HETATM    4  N   UNL     1     -42.722  56.069 -54.886  1.00  0.00    -0.149 NA
HETATM    5  N   UNL     1     -41.552  56.030 -54.187  1.00  0.00    -0.241 N 
HETATM    6  C   UNL     1     -41.095  57.304 -53.946  1.00  0.00     0.129 A 
ENDROOT
BRANCH   3   7
HETATM    7  N   UNL     1     -44.069  57.829 -55.796  1.00  0.00    -0.291 N 
HETATM    8  C   UNL     1     -44.372  57.722 -57.117  1.00  0.00     0.321 C 
HETATM    9  N   UNL     1     -43.419  57.200 -57.936  1.00  0.00    -0.343 N 
HETATM   10  O   UNL     1     -45.457  58.128 -57.527  1.00  0.00    -0.247 OA
HETATM   11  H   UNL     1     -42.639  56.758 -57.450  1.00  0.00     0.164 HD
HETATM   12  H   UNL     1     -44.782  58.299 -55.260  1.00  0.00     0.172 HD
BRANCH   9  13
HETATM   13  C   UNL     1     -43.636  56.942 -59.344  1.00  0.00     0.133 C 
BRANCH  13  14
HETATM   14  C   UNL     1     -43.395  55.485 -59.713  1.00  0.00     0.137 C 
BRANCH  14  15
HETATM   15  C   UNL     1     -44.700  54.807 -60.036  1.00  0.00     0.389 C 
HETATM   16  F   UNL     1     -44.823  54.561 -61.358  1.00  0.00    -0.171 F 
HETATM   17  F   UNL     1     -44.802  53.626 -59.388  1.00  0.00    -0.171 F 
HETATM   18  F   UNL     1     -45.752  55.568 -59.660  1.00  0.00    -0.171 F 
ENDBRANCH  14  15
ENDBRANCH  13  14
ENDBRANCH   9  13
ENDBRANCH   3   7
BRANCH   5  19
HETATM   19  C   UNL     1     -41.028  54.779 -53.747  1.00  0.00     0.079 A 
HETATM   20  C   UNL     1     -40.933  54.385 -52.403  1.00  0.00     0.062 A 
HETATM   21 CL   UNL     1     -41.218  55.408 -51.037  1.00  0.00    -0.082 Cl
HETATM   22  C   UNL     1     -40.466  53.099 -52.086  1.00  0.00     0.026 A 
HETATM   23  C   UNL     1     -40.076  52.208 -53.086  1.00  0.00     0.002 A 
HETATM   24  C   UNL     1     -40.133  52.602 -54.415  1.00  0.00     0.002 A 
HETATM   25  C   UNL     1     -40.596  53.877 -54.744  1.00  0.00     0.033 A 
ENDBRANCH   5  19
TORSDOF 5
ENDMDL
MODEL 6
REMARK VINA RESULT:      -7.1      4.900      7.350
REMARK  5 active torsions:
REMARK  status: ('A' for Active; 'I' for Inactive)
REMARK    1  A    between atoms: C_3  and  N_4 
REMARK       I    between atoms: N_4  and  C_5 
REMARK       I    between atoms: C_5  and  N_6 
REMARK    2  A    between atoms: N_6  and  C_7 
REMARK    3  A    between atoms: C_7  and  C_8 
REMARK    4  A    between atoms: C_8  and  C_9 
REMARK    5  A    between atoms: N_15  and  C_16 
ROOT
HETATM    1  C   UNL     1     -44.109  54.914 -50.592  1.00  0.00     0.054 C 
HETATM    2  C   UNL     1     -43.231  55.504 -51.630  1.00  0.00     0.003 A 
HETATM    3  C   UNL     1     -41.817  55.520 -51.705  1.00  0.00     0.159 A 
HETATM    4  N   UNL     1     -41.391  56.181 -52.784  1.00  0.00    -0.149 NA
HETATM    5  N   UNL     1     -42.515  56.581 -53.443  1.00  0.00    -0.241 N 
HETATM    6  C   UNL     1     -43.638  56.207 -52.744  1.00  0.00     0.129 A 
ENDROOT
BRANCH   3   7
HETATM    7  N   UNL     1     -40.980  54.958 -50.765  1.00  0.00    -0.291 N 
HETATM    8  C   UNL     1     -40.233  53.825 -50.851  1.00  0.00     0.321 C 
HETATM    9  N   UNL     1     -40.407  53.044 -51.952  1.00  0.00    -0.343 N 
HETATM   10  O   UNL     1     -39.471  53.527 -49.933  1.00  0.00    -0.247 OA
HETATM   11  H   UNL     1     -40.941  53.483 -52.702  1.00  0.00     0.164 HD
HETATM   12  H   UNL     1     -40.866  55.445 -49.891  1.00  0.00     0.172 HD
BRANCH   9  13
HETATM   13  C   UNL     1     -39.616  51.861 -52.220  1.00  0.00     0.133 C 
BRANCH  13  14
HETATM   14  C   UNL     1     -39.592  51.501 -53.699  1.00  0.00     0.137 C 
BRANCH  14  15
HETATM   15  C   UNL     1     -39.883  50.035 -53.882  1.00  0.00     0.389 C 
HETATM   16  F   UNL     1     -40.025  49.401 -52.699  1.00  0.00    -0.171 F 
HETATM   17  F   UNL     1     -41.024  49.856 -54.583  1.00  0.00    -0.171 F 
HETATM   18  F   UNL     1     -38.889  49.421 -54.561  1.00  0.00    -0.171 F 
ENDBRANCH  14  15
ENDBRANCH  13  14
ENDBRANCH   9  13
ENDBRANCH   3   7
BRANCH   5  19
HETATM   19  C   UNL     1     -42.404  57.355 -54.636  1.00  0.00     0.079 A 
HETATM   20  C   UNL     1     -42.563  56.844 -55.933  1.00  0.00     0.062 A 
HETATM   21 CL   UNL     1     -42.698  55.167 -56.338  1.00  0.00    -0.082 Cl
HETATM   22  C   UNL     1     -42.503  57.712 -57.036  1.00  0.00     0.026 A 
HETATM   23  C   UNL     1     -42.270  59.076 -56.866  1.00  0.00     0.002 A 
HETATM   24  C   UNL     1     -42.075  59.584 -55.589  1.00  0.00     0.002 A 
HETATM   25  C   UNL     1     -42.133  58.733 -54.484  1.00  0.00     0.033 A 
ENDBRANCH   5  19
TORSDOF 5
ENDMDL
MODEL 7
REMARK VINA RESULT:      -7.0      4.576      5.922
REMARK  5 active torsions:
REMARK  status: ('A' for Active; 'I' for Inactive)
REMARK    1  A    between atoms: C_3  and  N_4 
REMARK       I    between atoms: N_4  and  C_5 
REMARK       I    between atoms: C_5  and  N_6 
REMARK    2  A    between atoms: N_6  and  C_7 
REMARK    3  A    between atoms: C_7  and  C_8 
REMARK    4  A    between atoms: C_8  and  C_9 
REMARK    5  A    between atoms: N_15  and  C_16 
ROOT
HETATM    1  C   UNL     1     -40.604  54.198 -47.861  1.00  0.00     0.054 C 
HETATM    2  C   UNL     1     -40.480  53.923 -49.312  1.00  0.00     0.003 A 
HETATM    3  C   UNL     1     -40.544  54.822 -50.404  1.00  0.00     0.159 A 
HETATM    4  N   UNL     1     -40.417  54.186 -51.571  1.00  0.00    -0.149 NA
HETATM    5  N   UNL     1     -40.240  52.871 -51.260  1.00  0.00    -0.241 N 
HETATM    6  C   UNL     1     -40.305  52.688 -49.900  1.00  0.00     0.129 A 
ENDROOT
BRANCH   3   7
HETATM    7  N   UNL     1     -40.750  56.180 -50.284  1.00  0.00    -0.291 N 
HETATM    8  C   UNL     1     -41.480  57.010 -51.077  1.00  0.00     0.321 C 
HETATM    9  N   UNL     1     -41.987  56.488 -52.227  1.00  0.00    -0.343 N 
HETATM   10  O   UNL     1     -41.622  58.188 -50.758  1.00  0.00    -0.247 OA
HETATM   11  H   UNL     1     -41.935  55.471 -52.290  1.00  0.00     0.164 HD
HETATM   12  H   UNL     1     -40.334  56.647 -49.495  1.00  0.00     0.172 HD
BRANCH   9  13
HETATM   13  C   UNL     1     -42.858  57.226 -53.118  1.00  0.00     0.133 C 
BRANCH  13  14
HETATM   14  C   UNL     1     -42.133  57.724 -54.360  1.00  0.00     0.137 C 
BRANCH  14  15
HETATM   15  C   UNL     1     -41.664  59.141 -54.156  1.00  0.00     0.389 C 
HETATM   16  F   UNL     1     -41.596  59.819 -55.321  1.00  0.00    -0.171 F 
HETATM   17  F   UNL     1     -42.504  59.812 -53.338  1.00  0.00    -0.171 F 
HETATM   18  F   UNL     1     -40.437  59.172 -53.591  1.00  0.00    -0.171 F 
ENDBRANCH  14  15
ENDBRANCH  13  14
ENDBRANCH   9  13
ENDBRANCH   3   7
BRANCH   5  19
HETATM   19  C   UNL     1     -40.108  51.906 -52.301  1.00  0.00     0.079 A 
HETATM   20  C   UNL     1     -40.361  52.159 -53.658  1.00  0.00     0.062 A 
HETATM   21 CL   UNL     1     -41.084  53.598 -54.289  1.00  0.00    -0.082 Cl
HETATM   22  C   UNL     1     -40.129  51.152 -54.610  1.00  0.00     0.026 A 
HETATM   23  C   UNL     1     -39.666  49.894 -54.227  1.00  0.00     0.002 A 
HETATM   24  C   UNL     1     -39.448  49.623 -52.884  1.00  0.00     0.002 A 
HETATM   25  C   UNL     1     -39.673  50.614 -51.928  1.00  0.00     0.033 A 
ENDBRANCH   5  19
TORSDOF 5
ENDMDL
MODEL 8
REMARK VINA RESULT:      -7.0      4.351      5.615
REMARK  5 active torsions:
REMARK  status: ('A' for Active; 'I' for Inactive)
REMARK    1  A    between atoms: C_3  and  N_4 
REMARK       I    between atoms: N_4  and  C_5 
REMARK       I    between atoms: C_5  and  N_6 
REMARK    2  A    between atoms: N_6  and  C_7 
REMARK    3  A    between atoms: C_7  and  C_8 
REMARK    4  A    between atoms: C_8  and  C_9 
REMARK    5  A    between atoms: N_15  and  C_16 
ROOT
HETATM    1  C   UNL     1     -40.589  54.039 -47.839  1.00  0.00     0.054 C 
HETATM    2  C   UNL     1     -40.437  53.774 -49.289  1.00  0.00     0.003 A 
HETATM    3  C   UNL     1     -40.499  54.679 -50.377  1.00  0.00     0.159 A 
HETATM    4  N   UNL     1     -40.343  54.052 -51.546  1.00  0.00    -0.149 NA
HETATM    5  N   UNL     1     -40.150  52.738 -51.239  1.00  0.00    -0.241 N 
HETATM    6  C   UNL     1     -40.233  52.545 -49.881  1.00  0.00     0.129 A 
ENDROOT
BRANCH   3   7
HETATM    7  N   UNL     1     -40.728  56.032 -50.254  1.00  0.00    -0.291 N 
HETATM    8  C   UNL     1     -41.348  56.879 -51.118  1.00  0.00     0.321 C 
HETATM    9  N   UNL     1     -41.690  56.386 -52.339  1.00  0.00    -0.343 N 
HETATM   10  O   UNL     1     -41.539  58.049 -50.792  1.00  0.00    -0.247 OA
HETATM   11  H   UNL     1     -41.623  55.371 -52.419  1.00  0.00     0.164 HD
HETATM   12  H   UNL     1     -40.427  56.481 -49.403  1.00  0.00     0.172 HD
BRANCH   9  13
HETATM   13  C   UNL     1     -42.435  57.143 -53.322  1.00  0.00     0.133 C 
BRANCH  13  14
HETATM   14  C   UNL     1     -43.940  56.981 -53.165  1.00  0.00     0.137 C 
BRANCH  14  15
HETATM   15  C   UNL     1     -44.664  57.992 -54.013  1.00  0.00     0.389 C 
HETATM   16  F   UNL     1     -45.376  58.858 -53.261  1.00  0.00    -0.171 F 
HETATM   17  F   UNL     1     -43.793  58.712 -54.753  1.00  0.00    -0.171 F 
HETATM   18  F   UNL     1     -45.521  57.390 -54.867  1.00  0.00    -0.171 F 
ENDBRANCH  14  15
ENDBRANCH  13  14
ENDBRANCH   9  13
ENDBRANCH   3   7
BRANCH   5  19
HETATM   19  C   UNL     1     -39.986  51.780 -52.283  1.00  0.00     0.079 A 
HETATM   20  C   UNL     1     -39.707  50.420 -52.078  1.00  0.00     0.062 A 
HETATM   21 CL   UNL     1     -39.291  49.701 -50.561  1.00  0.00    -0.082 Cl
HETATM   22  C   UNL     1     -39.636  49.550 -53.179  1.00  0.00     0.026 A 
HETATM   23  C   UNL     1     -39.824  50.018 -54.479  1.00  0.00     0.002 A 
HETATM   24  C   UNL     1     -40.065  51.368 -54.694  1.00  0.00     0.002 A 
HETATM   25  C   UNL     1     -40.138  52.243 -53.609  1.00  0.00     0.033 A 
ENDBRANCH   5  19
TORSDOF 5
ENDMDL
MODEL 9
REMARK VINA RESULT:      -6.8      3.666      5.119
REMARK  5 active torsions:
REMARK  status: ('A' for Active; 'I' for Inactive)
REMARK    1  A    between atoms: C_3  and  N_4 
REMARK       I    between atoms: N_4  and  C_5 
REMARK       I    between atoms: C_5  and  N_6 
REMARK    2  A    between atoms: N_6  and  C_7 
REMARK    3  A    between atoms: C_7  and  C_8 
REMARK    4  A    between atoms: C_8  and  C_9 
REMARK    5  A    between atoms: N_15  and  C_16 
ROOT
HETATM    1  C   UNL     1     -40.639  54.577 -48.218  1.00  0.00     0.054 C 
HETATM    2  C   UNL     1     -40.844  53.998 -49.567  1.00  0.00     0.003 A 
HETATM    3  C   UNL     1     -41.831  54.306 -50.535  1.00  0.00     0.159 A 
HETATM    4  N   UNL     1     -41.705  53.543 -51.623  1.00  0.00    -0.149 NA
HETATM    5  N   UNL     1     -40.622  52.748 -51.396  1.00  0.00    -0.241 N 
HETATM    6  C   UNL     1     -40.105  52.988 -50.145  1.00  0.00     0.129 A 
ENDROOT
BRANCH   3   7
HETATM    7  N   UNL     1     -42.822  55.248 -50.364  1.00  0.00    -0.291 N 
HETATM    8  C   UNL     1     -43.189  56.266 -51.189  1.00  0.00     0.321 C 
HETATM    9  N   UNL     1     -42.411  56.495 -52.282  1.00  0.00    -0.343 N 
HETATM   10  O   UNL     1     -44.166  56.956 -50.906  1.00  0.00    -0.247 OA
HETATM   11  H   UNL     1     -41.737  55.757 -52.484  1.00  0.00     0.164 HD
HETATM   12  H   UNL     1     -43.388  55.185 -49.533  1.00  0.00     0.172 HD
BRANCH   9  13
HETATM   13  C   UNL     1     -42.732  57.481 -53.293  1.00  0.00     0.133 C 
BRANCH  13  14
HETATM   14  C   UNL     1     -42.343  57.027 -54.692  1.00  0.00     0.137 C 
BRANCH  14  15
HETATM   15  C   UNL     1     -43.513  56.364 -55.369  1.00  0.00     0.389 C 
HETATM   16  F   UNL     1     -44.009  57.122 -56.369  1.00  0.00    -0.171 F 
HETATM   17  F   UNL     1     -43.152  55.174 -55.896  1.00  0.00    -0.171 F 
HETATM   18  F   UNL     1     -44.516  56.132 -54.493  1.00  0.00    -0.171 F 
ENDBRANCH  14  15
ENDBRANCH  13  14
ENDBRANCH   9  13
ENDBRANCH   3   7
BRANCH   5  19
HETATM   19  C   UNL     1     -40.236  51.777 -52.367  1.00  0.00     0.079 A 
HETATM   20  C   UNL     1     -40.119  52.030 -53.742  1.00  0.00     0.062 A 
HETATM   21 CL   UNL     1     -40.629  53.478 -54.540  1.00  0.00    -0.082 Cl
HETATM   22  C   UNL     1     -39.661  51.017 -54.601  1.00  0.00     0.026 A 
HETATM   23  C   UNL     1     -39.334  49.753 -54.112  1.00  0.00     0.002 A 
HETATM   24  C   UNL     1     -39.481  49.483 -52.758  1.00  0.00     0.002 A 
HETATM   25  C   UNL     1     -39.934  50.480 -51.894  1.00  0.00     0.033 A 
ENDBRANCH   5  19
TORSDOF 5
ENDMDL
MODEL 10
REMARK VINA RESULT:      -6.8      4.174      6.696
REMARK  5 active torsions:
REMARK  status: ('A' for Active; 'I' for Inactive)
REMARK    1  A    between atoms: C_3  and  N_4 
REMARK       I    between atoms: N_4  and  C_5 
REMARK       I    between atoms: C_5  and  N_6 
REMARK    2  A    between atoms: N_6  and  C_7 
REMARK    3  A    between atoms: C_7  and  C_8 
REMARK    4  A    between atoms: C_8  and  C_9 
REMARK    5  A    between atoms: N_15  and  C_16 
ROOT
HETATM    1  C   UNL     1     -44.384  59.365 -53.088  1.00  0.00     0.054 C 
HETATM    2  C   UNL     1     -43.633  58.588 -54.102  1.00  0.00     0.003 A 
HETATM    3  C   UNL     1     -42.541  57.703 -53.926  1.00  0.00     0.159 A 
HETATM    4  N   UNL     1     -42.112  57.214 -55.092  1.00  0.00    -0.149 NA
HETATM    5  N   UNL     1     -42.932  57.748 -56.041  1.00  0.00    -0.241 N 
HETATM    6  C   UNL     1     -43.839  58.604 -55.465  1.00  0.00     0.129 A 
ENDROOT
BRANCH   3   7
HETATM    7  N   UNL     1     -41.964  57.410 -52.709  1.00  0.00    -0.291 N 
HETATM    8  C   UNL     1     -41.665  56.196 -52.172  1.00  0.00     0.321 C 
HETATM    9  N   UNL     1     -42.094  55.094 -52.844  1.00  0.00    -0.343 N 
HETATM   10  O   UNL     1     -41.065  56.136 -51.101  1.00  0.00    -0.247 OA
HETATM   11  H   UNL     1     -42.432  55.278 -53.789  1.00  0.00     0.164 HD
HETATM   12  H   UNL     1     -41.693  58.183 -52.122  1.00  0.00     0.172 HD
BRANCH   9  13
HETATM   13  C   UNL     1     -41.770  53.741 -52.441  1.00  0.00     0.133 C 
BRANCH  13  14
HETATM   14  C   UNL     1     -40.404  53.296 -52.944  1.00  0.00     0.137 C 
BRANCH  14  15
HETATM   15  C   UNL     1     -40.530  52.665 -54.305  1.00  0.00     0.389 C 
HETATM   16  F   UNL     1     -41.811  52.355 -54.597  1.00  0.00    -0.171 F 
HETATM   17  F   UNL     1     -40.081  53.501 -55.266  1.00  0.00    -0.171 F 
HETATM   18  F   UNL     1     -39.804  51.528 -54.385  1.00  0.00    -0.171 F 
ENDBRANCH  14  15
ENDBRANCH  13  14
ENDBRANCH   9  13
ENDBRANCH   3   7
BRANCH   5  19
HETATM   19  C   UNL     1     -42.714  57.448 -57.419  1.00  0.00     0.079 A 
HETATM   20  C   UNL     1     -42.055  58.296 -58.322  1.00  0.00     0.062 A 
HETATM   21 CL   UNL     1     -41.589  59.931 -58.003  1.00  0.00    -0.082 Cl
HETATM   22  C   UNL     1     -41.833  57.869 -59.642  1.00  0.00     0.026 A 
HETATM   23  C   UNL     1     -42.271  56.619 -60.077  1.00  0.00     0.002 A 
HETATM   24  C   UNL     1     -42.955  55.789 -59.201  1.00  0.00     0.002 A 
HETATM   25  C   UNL     1     -43.183  56.200 -57.887  1.00  0.00     0.033 A 
ENDBRANCH   5  19
TORSDOF 5
ENDMDL
