MODEL 1
REMARK VINA RESULT:      -9.2      0.000      0.000
REMARK  5 active torsions:
REMARK  status: ('A' for Active; 'I' for Inactive)
REMARK    1  A    between atoms: O_2  and  C_3 
REMARK    2  A    between atoms: C_4  and  C_5 
REMARK    3  A    between atoms: C_17  and  N_18 
REMARK       I    between atoms: N_18  and  C_19 
REMARK       I    between atoms: C_19  and  N_20 
REMARK    4  A    between atoms: N_20  and  C_21 
REMARK    5  A    between atoms: C_21  and  C_22 
ROOT
HETATM    1  C   UNL     1     -41.783  54.444 -53.851  1.00  0.00    -0.022 A 
HETATM    2  C   UNL     1     -41.581  55.817 -53.615  1.00  0.00     0.031 A 
HETATM    3  C   UNL     1     -42.389  56.821 -54.199  1.00  0.00     0.059 A 
HETATM    4  C   UNL     1     -43.414  56.440 -55.063  1.00  0.00     0.050 A 
HETATM    5  N   UNL     1     -44.288  57.312 -55.716  1.00  0.00    -0.324 N 
HETATM    6  C   UNL     1     -44.747  58.525 -55.295  1.00  0.00     0.245 C 
HETATM    7  O   UNL     1     -45.577  59.090 -56.011  1.00  0.00    -0.271 OA
HETATM    8  C   UNL     1     -44.336  59.034 -53.899  1.00  0.00     0.181 C 
HETATM    9  N   UNL     1     -42.884  59.280 -53.874  1.00  0.00    -0.334 N 
HETATM   10  C   UNL     1     -41.963  58.220 -53.930  1.00  0.00     0.256 C 
HETATM   11  O   UNL     1     -40.766  58.405 -53.697  1.00  0.00    -0.267 OA
HETATM   12  C   UNL     1     -45.222  60.248 -53.567  1.00  0.00     0.060 C 
HETATM   13  C   UNL     1     -44.645  61.151 -52.489  1.00  0.00     0.090 C 
HETATM   14  C   UNL     1     -43.288  61.629 -52.977  1.00  0.00     0.045 C 
HETATM   15  C   UNL     1     -42.340  60.467 -53.206  1.00  0.00     0.129 C 
HETATM   16  C   UNL     1     -43.598  55.080 -55.347  1.00  0.00     0.031 A 
HETATM   17  C   UNL     1     -42.814  54.099 -54.730  1.00  0.00     0.014 A 
HETATM   18  H   UNL     1     -44.795  56.974 -56.527  1.00  0.00     0.169 HD
ENDROOT
BRANCH   1  19
HETATM   19  C   UNL     1     -40.942  53.418 -53.184  1.00  0.00     0.009 A 
HETATM   20  C   UNL     1     -40.535  53.506 -51.829  1.00  0.00     0.079 A 
HETATM   21  C   UNL     1     -39.729  52.503 -51.269  1.00  0.00     0.039 A 
HETATM   22  C   UNL     1     -39.331  51.401 -52.029  1.00  0.00     0.026 A 
HETATM   23  C   UNL     1     -39.732  51.299 -53.353  1.00  0.00     0.035 A 
HETATM   24  C   UNL     1     -40.522  52.293 -53.928  1.00  0.00     0.039 A 
HETATM   25 CL   UNL     1     -39.252  49.938 -54.291  1.00  0.00    -0.084 Cl
BRANCH  20  26
HETATM   26  O   UNL     1     -40.981  54.596 -51.121  1.00  0.00    -0.355 OA
HETATM   27  C   UNL     1     -41.654  54.367 -49.890  1.00  0.00     0.210 C 
ENDBRANCH  20  26
ENDBRANCH   1  19
BRANCH  13  28
HETATM   28  N   UNL     1     -44.581  60.503 -51.186  1.00  0.00    -0.338 N 
HETATM   29  C   UNL     1     -45.281  61.003 -50.116  1.00  0.00     0.316 C 
HETATM   30  N   UNL     1     -45.208  60.159 -49.040  1.00  0.00    -0.340 N 
HETATM   31  O   UNL     1     -45.912  62.051 -50.134  1.00  0.00    -0.247 OA
HETATM   32  H   UNL     1     -44.345  59.641 -48.964  1.00  0.00     0.164 HD
HETATM   33  H   UNL     1     -44.447  59.502 -51.159  1.00  0.00     0.164 HD
BRANCH  30  34
HETATM   34  C   UNL     1     -45.824  60.538 -47.793  1.00  0.00     0.150 C 
BRANCH  34  35
HETATM   35  C   UNL     1     -44.747  61.098 -46.920  1.00  0.00    -0.018 C 
HETATM   36  C   UNL     1     -44.758  61.076 -45.581  1.00  0.00     0.008 C 
ENDBRANCH  34  35
ENDBRANCH  30  34
ENDBRANCH  13  28
TORSDOF 5
ENDMDL
MODEL 2
REMARK VINA RESULT:      -9.2      4.059      7.930
REMARK  5 active torsions:
REMARK  status: ('A' for Active; 'I' for Inactive)
REMARK    1  A    between atoms: O_2  and  C_3 
REMARK    2  A    between atoms: C_4  and  C_5 
REMARK    3  A    between atoms: C_17  and  N_18 
REMARK       I    between atoms: N_18  and  C_19 
REMARK       I    between atoms: C_19  and  N_20 
REMARK    4  A    between atoms: N_20  and  C_21 
REMARK    5  A    between atoms: C_21  and  C_22 
ROOT
HETATM    1  C   UNL     1     -43.388  58.401 -56.774  1.00  0.00    -0.022 A 
HETATM    2  C   UNL     1     -42.532  58.343 -55.658  1.00  0.00     0.031 A 
HETATM    3  C   UNL     1     -43.009  58.181 -54.336  1.00  0.00     0.059 A 
HETATM    4  C   UNL     1     -44.384  58.098 -54.122  1.00  0.00     0.050 A 
HETATM    5  N   UNL     1     -45.002  57.942 -52.880  1.00  0.00    -0.324 N 
HETATM    6  C   UNL     1     -44.533  57.295 -51.775  1.00  0.00     0.245 C 
HETATM    7  O   UNL     1     -45.291  57.221 -50.804  1.00  0.00    -0.271 OA
HETATM    8  C   UNL     1     -43.176  56.567 -51.857  1.00  0.00     0.181 C 
HETATM    9  N   UNL     1     -42.101  57.553 -52.060  1.00  0.00    -0.334 N 
HETATM   10  C   UNL     1     -41.974  58.255 -53.270  1.00  0.00     0.256 C 
HETATM   11  O   UNL     1     -40.962  58.915 -53.518  1.00  0.00    -0.267 OA
HETATM   12  C   UNL     1     -43.044  55.687 -50.600  1.00  0.00     0.060 C 
HETATM   13  C   UNL     1     -41.612  55.295 -50.276  1.00  0.00     0.090 C 
HETATM   14  C   UNL     1     -40.823  56.579 -50.084  1.00  0.00     0.045 C 
HETATM   15  C   UNL     1     -40.828  57.426 -51.343  1.00  0.00     0.129 C 
HETATM   16  C   UNL     1     -45.252  58.203 -55.218  1.00  0.00     0.031 A 
HETATM   17  C   UNL     1     -44.761  58.324 -56.522  1.00  0.00     0.014 A 
HETATM   18  H   UNL     1     -45.984  58.179 -52.793  1.00  0.00     0.169 HD
ENDROOT
BRANCH   1  19
HETATM   19  C   UNL     1     -42.847  58.528 -58.151  1.00  0.00     0.009 A 
HETATM   20  C   UNL     1     -42.590  57.414 -58.991  1.00  0.00     0.079 A 
HETATM   21  C   UNL     1     -42.067  57.610 -60.279  1.00  0.00     0.039 A 
HETATM   22  C   UNL     1     -41.808  58.896 -60.755  1.00  0.00     0.026 A 
HETATM   23  C   UNL     1     -42.065  59.993 -59.946  1.00  0.00     0.035 A 
HETATM   24  C   UNL     1     -42.572  59.816 -58.660  1.00  0.00     0.039 A 
HETATM   25 CL   UNL     1     -41.755  61.581 -60.532  1.00  0.00    -0.084 Cl
BRANCH  20  26
HETATM   26  O   UNL     1     -42.893  56.175 -58.481  1.00  0.00    -0.355 OA
HETATM   27  C   UNL     1     -43.808  55.360 -59.200  1.00  0.00     0.210 C 
ENDBRANCH  20  26
ENDBRANCH   1  19
BRANCH  13  28
HETATM   28  N   UNL     1     -41.027  54.416 -51.280  1.00  0.00    -0.338 N 
HETATM   29  C   UNL     1     -40.516  53.190 -50.930  1.00  0.00     0.316 C 
HETATM   30  N   UNL     1     -40.165  52.468 -52.040  1.00  0.00    -0.340 N 
HETATM   31  O   UNL     1     -40.416  52.788 -49.780  1.00  0.00    -0.247 OA
HETATM   32  H   UNL     1     -39.840  53.019 -52.820  1.00  0.00     0.164 HD
HETATM   33  H   UNL     1     -41.397  54.456 -52.220  1.00  0.00     0.164 HD
BRANCH  30  34
HETATM   34  C   UNL     1     -39.544  51.176 -51.882  1.00  0.00     0.150 C 
BRANCH  34  35
HETATM   35  C   UNL     1     -39.591  50.498 -53.214  1.00  0.00    -0.018 C 
HETATM   36  C   UNL     1     -40.250  50.959 -54.286  1.00  0.00     0.008 C 
ENDBRANCH  34  35
ENDBRANCH  30  34
ENDBRANCH  13  28
TORSDOF 5
ENDMDL
MODEL 3
REMARK VINA RESULT:      -9.1      1.293      1.378
REMARK  5 active torsions:
REMARK  status: ('A' for Active; 'I' for Inactive)
REMARK    1  A    between atoms: O_2  and  C_3 
REMARK    2  A    between atoms: C_4  and  C_5 
REMARK    3  A    between atoms: C_17  and  N_18 
REMARK       I    between atoms: N_18  and  C_19 
REMARK       I    between atoms: C_19  and  N_20 
REMARK    4  A    between atoms: N_20  and  C_21 
REMARK    5  A    between atoms: C_21  and  C_22 
ROOT
HETATM    1  C   UNL     1     -41.983  54.778 -53.084  1.00  0.00    -0.022 A 
HETATM    2  C   UNL     1     -41.786  56.102 -52.650  1.00  0.00     0.031 A 
HETATM    3  C   UNL     1     -42.528  57.193 -53.159  1.00  0.00     0.059 A 
HETATM    4  C   UNL     1     -43.480  56.955 -54.149  1.00  0.00     0.050 A 
HETATM    5  N   UNL     1     -44.284  57.925 -54.750  1.00  0.00    -0.324 N 
HETATM    6  C   UNL     1     -44.763  59.082 -54.210  1.00  0.00     0.245 C 
HETATM    7  O   UNL     1     -45.522  59.757 -54.910  1.00  0.00    -0.271 OA
HETATM    8  C   UNL     1     -44.467  59.392 -52.728  1.00  0.00     0.181 C 
HETATM    9  N   UNL     1     -43.020  59.598 -52.550  1.00  0.00    -0.334 N 
HETATM   10  C   UNL     1     -42.111  58.534 -52.671  1.00  0.00     0.256 C 
HETATM   11  O   UNL     1     -40.936  58.659 -52.316  1.00  0.00    -0.267 OA
HETATM   12  C   UNL     1     -45.364  60.572 -52.312  1.00  0.00     0.060 C 
HETATM   13  C   UNL     1     -44.870  61.310 -51.078  1.00  0.00     0.090 C 
HETATM   14  C   UNL     1     -43.471  61.816 -51.383  1.00  0.00     0.045 C 
HETATM   15  C   UNL     1     -42.521  60.673 -51.685  1.00  0.00     0.129 C 
HETATM   16  C   UNL     1     -43.655  55.649 -54.627  1.00  0.00     0.031 A 
HETATM   17  C   UNL     1     -42.939  54.577 -54.085  1.00  0.00     0.014 A 
HETATM   18  H   UNL     1     -44.724  57.710 -55.638  1.00  0.00     0.169 HD
ENDROOT
BRANCH   1  19
HETATM   19  C   UNL     1     -41.215  53.653 -52.494  1.00  0.00     0.009 A 
HETATM   20  C   UNL     1     -41.059  53.466 -51.096  1.00  0.00     0.079 A 
HETATM   21  C   UNL     1     -40.307  52.385 -50.610  1.00  0.00     0.039 A 
HETATM   22  C   UNL     1     -39.718  51.474 -51.489  1.00  0.00     0.026 A 
HETATM   23  C   UNL     1     -39.873  51.641 -52.857  1.00  0.00     0.035 A 
HETATM   24  C   UNL     1     -40.605  52.716 -53.357  1.00  0.00     0.039 A 
HETATM   25 CL   UNL     1     -39.156  50.515 -53.944  1.00  0.00    -0.084 Cl
BRANCH  20  26
HETATM   26  O   UNL     1     -41.686  54.375 -50.279  1.00  0.00    -0.355 OA
HETATM   27  C   UNL     1     -41.126  54.622 -48.997  1.00  0.00     0.210 C 
ENDBRANCH  20  26
ENDBRANCH   1  19
BRANCH  13  28
HETATM   28  N   UNL     1     -44.926  60.493 -49.873  1.00  0.00    -0.338 N 
HETATM   29  C   UNL     1     -45.316  61.035 -48.673  1.00  0.00     0.316 C 
HETATM   30  N   UNL     1     -45.450  60.066 -47.714  1.00  0.00    -0.340 N 
HETATM   31  O   UNL     1     -45.543  62.223 -48.494  1.00  0.00    -0.247 OA
HETATM   32  H   UNL     1     -44.817  59.286 -47.808  1.00  0.00     0.164 HD
HETATM   33  H   UNL     1     -45.147  59.512 -49.973  1.00  0.00     0.164 HD
BRANCH  30  34
HETATM   34  C   UNL     1     -45.788  60.441 -46.364  1.00  0.00     0.150 C 
BRANCH  34  35
HETATM   35  C   UNL     1     -47.002  59.658 -45.979  1.00  0.00    -0.018 C 
HETATM   36  C   UNL     1     -46.988  58.526 -45.263  1.00  0.00     0.008 C 
ENDBRANCH  34  35
ENDBRANCH  30  34
ENDBRANCH  13  28
TORSDOF 5
ENDMDL
MODEL 4
REMARK VINA RESULT:      -8.6      2.988      5.734
REMARK  5 active torsions:
REMARK  status: ('A' for Active; 'I' for Inactive)
REMARK    1  A    between atoms: O_2  and  C_3 
REMARK    2  A    between atoms: C_4  and  C_5 
REMARK    3  A    between atoms: C_17  and  N_18 
REMARK       I    between atoms: N_18  and  C_19 
REMARK       I    between atoms: C_19  and  N_20 
REMARK    4  A    between atoms: N_20  and  C_21 
REMARK    5  A    between atoms: C_21  and  C_22 
ROOT
HETATM    1  C   UNL     1     -41.009  54.946 -51.877  1.00  0.00    -0.022 A 
HETATM    2  C   UNL     1     -41.989  55.686 -52.563  1.00  0.00     0.031 A 
HETATM    3  C   UNL     1     -42.432  56.957 -52.127  1.00  0.00     0.059 A 
HETATM    4  C   UNL     1     -41.895  57.492 -50.957  1.00  0.00     0.050 A 
HETATM    5  N   UNL     1     -42.234  58.727 -50.401  1.00  0.00    -0.324 N 
HETATM    6  C   UNL     1     -42.633  59.863 -51.041  1.00  0.00     0.245 C 
HETATM    7  O   UNL     1     -42.811  60.866 -50.345  1.00  0.00    -0.271 OA
HETATM    8  C   UNL     1     -42.679  59.875 -52.583  1.00  0.00     0.181 C 
HETATM    9  N   UNL     1     -43.712  58.934 -53.049  1.00  0.00    -0.334 N 
HETATM   10  C   UNL     1     -43.552  57.546 -52.909  1.00  0.00     0.256 C 
HETATM   11  O   UNL     1     -44.307  56.757 -53.484  1.00  0.00    -0.267 OA
HETATM   12  C   UNL     1     -42.858  61.336 -53.032  1.00  0.00     0.060 C 
HETATM   13  C   UNL     1     -43.404  61.480 -54.443  1.00  0.00     0.090 C 
HETATM   14  C   UNL     1     -44.744  60.766 -54.485  1.00  0.00     0.045 C 
HETATM   15  C   UNL     1     -44.598  59.291 -54.163  1.00  0.00     0.129 C 
HETATM   16  C   UNL     1     -40.953  56.746 -50.236  1.00  0.00     0.031 A 
HETATM   17  C   UNL     1     -40.498  55.508 -50.702  1.00  0.00     0.014 A 
HETATM   18  H   UNL     1     -42.017  58.897 -49.425  1.00  0.00     0.169 HD
ENDROOT
BRANCH   1  19
HETATM   19  C   UNL     1     -40.537  53.634 -52.389  1.00  0.00     0.009 A 
HETATM   20  C   UNL     1     -40.278  53.382 -53.761  1.00  0.00     0.079 A 
HETATM   21  C   UNL     1     -39.846  52.112 -54.174  1.00  0.00     0.039 A 
HETATM   22  C   UNL     1     -39.650  51.089 -53.245  1.00  0.00     0.026 A 
HETATM   23  C   UNL     1     -39.889  51.327 -51.900  1.00  0.00     0.035 A 
HETATM   24  C   UNL     1     -40.331  52.578 -51.474  1.00  0.00     0.039 A 
HETATM   25 CL   UNL     1     -39.639  50.071 -50.750  1.00  0.00    -0.084 Cl
BRANCH  20  26
HETATM   26  O   UNL     1     -40.460  54.435 -54.625  1.00  0.00    -0.355 OA
HETATM   27  C   UNL     1     -41.531  54.361 -55.556  1.00  0.00     0.210 C 
ENDBRANCH  20  26
ENDBRANCH   1  19
BRANCH  13  28
HETATM   28  N   UNL     1     -42.475  61.000 -55.458  1.00  0.00    -0.338 N 
HETATM   29  C   UNL     1     -42.437  61.574 -56.705  1.00  0.00     0.316 C 
HETATM   30  N   UNL     1     -41.393  61.082 -57.443  1.00  0.00    -0.340 N 
HETATM   31  O   UNL     1     -43.215  62.434 -57.092  1.00  0.00    -0.247 OA
HETATM   32  H   UNL     1     -41.153  60.121 -57.251  1.00  0.00     0.164 HD
HETATM   33  H   UNL     1     -41.590  60.621 -55.152  1.00  0.00     0.164 HD
BRANCH  30  34
HETATM   34  C   UNL     1     -41.220  61.512 -58.808  1.00  0.00     0.150 C 
BRANCH  34  35
HETATM   35  C   UNL     1     -40.129  62.533 -58.815  1.00  0.00    -0.018 C 
HETATM   36  C   UNL     1     -39.565  63.044 -59.918  1.00  0.00     0.008 C 
ENDBRANCH  34  35
ENDBRANCH  30  34
ENDBRANCH  13  28
TORSDOF 5
ENDMDL
MODEL 5
REMARK VINA RESULT:      -8.5      3.811      8.301
REMARK  5 active torsions:
REMARK  status: ('A' for Active; 'I' for Inactive)
REMARK    1  A    between atoms: O_2  and  C_3 
REMARK    2  A    between atoms: C_4  and  C_5 
REMARK    3  A    between atoms: C_17  and  N_18 
REMARK       I    between atoms: N_18  and  C_19 
REMARK       I    between atoms: C_19  and  N_20 
REMARK    4  A    between atoms: N_20  and  C_21 
REMARK    5  A    between atoms: C_21  and  C_22 
ROOT
HETATM    1  C   UNL     1     -43.372  60.063 -56.090  1.00  0.00    -0.022 A 
HETATM    2  C   UNL     1     -42.548  59.666 -55.020  1.00  0.00     0.031 A 
HETATM    3  C   UNL     1     -43.065  59.241 -53.773  1.00  0.00     0.059 A 
HETATM    4  C   UNL     1     -44.446  59.236 -53.585  1.00  0.00     0.050 A 
HETATM    5  N   UNL     1     -45.101  58.849 -52.414  1.00  0.00    -0.324 N 
HETATM    6  C   UNL     1     -44.715  57.919 -51.494  1.00  0.00     0.245 C 
HETATM    7  O   UNL     1     -45.496  57.688 -50.568  1.00  0.00    -0.271 OA
HETATM    8  C   UNL     1     -43.427  57.109 -51.747  1.00  0.00     0.181 C 
HETATM    9  N   UNL     1     -42.264  58.012 -51.712  1.00  0.00    -0.334 N 
HETATM   10  C   UNL     1     -42.050  58.965 -52.722  1.00  0.00     0.256 C 
HETATM   11  O   UNL     1     -40.978  59.570 -52.807  1.00  0.00    -0.267 OA
HETATM   12  C   UNL     1     -43.401  55.950 -50.735  1.00  0.00     0.060 C 
HETATM   13  C   UNL     1     -42.016  55.363 -50.514  1.00  0.00     0.090 C 
HETATM   14  C   UNL     1     -41.120  56.487 -50.025  1.00  0.00     0.045 C 
HETATM   15  C   UNL     1     -41.023  57.604 -51.047  1.00  0.00     0.129 C 
HETATM   16  C   UNL     1     -45.278  59.675 -54.623  1.00  0.00     0.031 A 
HETATM   17  C   UNL     1     -44.752  60.055 -55.862  1.00  0.00     0.014 A 
HETATM   18  H   UNL     1     -46.060  59.148 -52.272  1.00  0.00     0.169 HD
ENDROOT
BRANCH   1  19
HETATM   19  C   UNL     1     -42.794  60.461 -57.399  1.00  0.00     0.009 A 
HETATM   20  C   UNL     1     -42.460  61.799 -57.727  1.00  0.00     0.079 A 
HETATM   21  C   UNL     1     -41.929  62.103 -58.991  1.00  0.00     0.039 A 
HETATM   22  C   UNL     1     -41.708  61.096 -59.931  1.00  0.00     0.026 A 
HETATM   23  C   UNL     1     -42.021  59.782 -59.617  1.00  0.00     0.035 A 
HETATM   24  C   UNL     1     -42.561  59.465 -58.372  1.00  0.00     0.039 A 
HETATM   25 CL   UNL     1     -41.741  58.535 -60.771  1.00  0.00    -0.084 Cl
BRANCH  20  26
HETATM   26  O   UNL     1     -42.670  62.744 -56.752  1.00  0.00    -0.355 OA
HETATM   27  C   UNL     1     -42.938  64.079 -57.158  1.00  0.00     0.210 C 
ENDBRANCH  20  26
ENDBRANCH   1  19
BRANCH  13  28
HETATM   28  N   UNL     1     -41.491  54.696 -51.699  1.00  0.00    -0.338 N 
HETATM   29  C   UNL     1     -40.786  53.522 -51.590  1.00  0.00     0.316 C 
HETATM   30  N   UNL     1     -40.526  52.988 -52.825  1.00  0.00    -0.340 N 
HETATM   31  O   UNL     1     -40.460  53.008 -50.530  1.00  0.00    -0.247 OA
HETATM   32  H   UNL     1     -40.396  53.665 -53.562  1.00  0.00     0.164 HD
HETATM   33  H   UNL     1     -42.004  54.790 -52.564  1.00  0.00     0.164 HD
BRANCH  30  34
HETATM   34  C   UNL     1     -39.735  51.787 -52.929  1.00  0.00     0.150 C 
BRANCH  34  35
HETATM   35  C   UNL     1     -40.051  51.164 -54.251  1.00  0.00    -0.018 C 
HETATM   36  C   UNL     1     -39.894  49.865 -54.542  1.00  0.00     0.008 C 
ENDBRANCH  34  35
ENDBRANCH  30  34
ENDBRANCH  13  28
TORSDOF 5
ENDMDL
MODEL 6
REMARK VINA RESULT:      -8.4      2.042      2.733
REMARK  5 active torsions:
REMARK  status: ('A' for Active; 'I' for Inactive)
REMARK    1  A    between atoms: O_2  and  C_3 
REMARK    2  A    between atoms: C_4  and  C_5 
REMARK    3  A    between atoms: C_17  and  N_18 
REMARK       I    between atoms: N_18  and  C_19 
REMARK       I    between atoms: C_19  and  N_20 
REMARK    4  A    between atoms: N_20  and  C_21 
REMARK    5  A    between atoms: C_21  and  C_22 
ROOT
HETATM    1  C   UNL     1     -42.309  55.416 -52.652  1.00  0.00    -0.022 A 
HETATM    2  C   UNL     1     -42.002  56.714 -52.203  1.00  0.00     0.031 A 
HETATM    3  C   UNL     1     -42.779  57.846 -52.545  1.00  0.00     0.059 A 
HETATM    4  C   UNL     1     -43.882  57.676 -53.380  1.00  0.00     0.050 A 
HETATM    5  N   UNL     1     -44.738  58.693 -53.807  1.00  0.00    -0.324 N 
HETATM    6  C   UNL     1     -45.088  59.837 -53.153  1.00  0.00     0.245 C 
HETATM    7  O   UNL     1     -45.924  60.562 -53.697  1.00  0.00    -0.271 OA
HETATM    8  C   UNL     1     -44.552  60.074 -51.726  1.00  0.00     0.181 C 
HETATM    9  N   UNL     1     -43.089  60.233 -51.771  1.00  0.00    -0.334 N 
HETATM   10  C   UNL     1     -42.246  59.152 -52.076  1.00  0.00     0.256 C 
HETATM   11  O   UNL     1     -41.026  59.230 -51.907  1.00  0.00    -0.267 OA
HETATM   12  C   UNL     1     -45.333  61.257 -51.126  1.00  0.00     0.060 C 
HETATM   13  C   UNL     1     -44.627  61.927 -49.958  1.00  0.00     0.090 C 
HETATM   14  C   UNL     1     -43.277  62.409 -50.461  1.00  0.00     0.045 C 
HETATM   15  C   UNL     1     -42.425  61.255 -50.955  1.00  0.00     0.129 C 
HETATM   16  C   UNL     1     -44.173  56.398 -53.876  1.00  0.00     0.031 A 
HETATM   17  C   UNL     1     -43.417  55.284 -53.496  1.00  0.00     0.014 A 
HETATM   18  H   UNL     1     -45.319  58.530 -54.622  1.00  0.00     0.169 HD
ENDROOT
BRANCH   1  19
HETATM   19  C   UNL     1     -41.496  54.246 -52.236  1.00  0.00     0.009 A 
HETATM   20  C   UNL     1     -40.876  53.361 -53.156  1.00  0.00     0.079 A 
HETATM   21  C   UNL     1     -40.132  52.267 -52.689  1.00  0.00     0.039 A 
HETATM   22  C   UNL     1     -39.977  52.043 -51.320  1.00  0.00     0.026 A 
HETATM   23  C   UNL     1     -40.569  52.907 -50.411  1.00  0.00     0.035 A 
HETATM   24  C   UNL     1     -41.322  53.991 -50.857  1.00  0.00     0.039 A 
HETATM   25 CL   UNL     1     -40.373  52.640 -48.722  1.00  0.00    -0.084 Cl
BRANCH  20  26
HETATM   26  O   UNL     1     -41.037  53.649 -54.490  1.00  0.00    -0.355 OA
HETATM   27  C   UNL     1     -40.002  54.362 -55.152  1.00  0.00     0.210 C 
ENDBRANCH  20  26
ENDBRANCH   1  19
BRANCH  13  28
HETATM   28  N   UNL     1     -44.520  61.059 -48.792  1.00  0.00    -0.338 N 
HETATM   29  C   UNL     1     -45.012  61.455 -47.573  1.00  0.00     0.316 C 
HETATM   30  N   UNL     1     -44.950  60.435 -46.662  1.00  0.00    -0.340 N 
HETATM   31  O   UNL     1     -45.472  62.564 -47.342  1.00  0.00    -0.247 OA
HETATM   32  H   UNL     1     -44.174  59.802 -46.784  1.00  0.00     0.164 HD
HETATM   33  H   UNL     1     -44.539  60.060 -48.940  1.00  0.00     0.164 HD
BRANCH  30  34
HETATM   34  C   UNL     1     -45.359  60.670 -45.300  1.00  0.00     0.150 C 
BRANCH  34  35
HETATM   35  C   UNL     1     -44.131  61.029 -44.526  1.00  0.00    -0.018 C 
HETATM   36  C   UNL     1     -43.998  62.123 -43.764  1.00  0.00     0.008 C 
ENDBRANCH  34  35
ENDBRANCH  30  34
ENDBRANCH  13  28
TORSDOF 5
ENDMDL
MODEL 7
REMARK VINA RESULT:      -8.4      1.726      2.248
REMARK  5 active torsions:
REMARK  status: ('A' for Active; 'I' for Inactive)
REMARK    1  A    between atoms: O_2  and  C_3 
REMARK    2  A    between atoms: C_4  and  C_5 
REMARK    3  A    between atoms: C_17  and  N_18 
REMARK       I    between atoms: N_18  and  C_19 
REMARK       I    between atoms: C_19  and  N_20 
REMARK    4  A    between atoms: N_20  and  C_21 
REMARK    5  A    between atoms: C_21  and  C_22 
ROOT
HETATM    1  C   UNL     1     -41.648  54.264 -53.438  1.00  0.00    -0.022 A 
HETATM    2  C   UNL     1     -41.480  55.661 -53.403  1.00  0.00     0.031 A 
HETATM    3  C   UNL     1     -42.128  56.532 -54.310  1.00  0.00     0.059 A 
HETATM    4  C   UNL     1     -42.949  55.987 -55.296  1.00  0.00     0.050 A 
HETATM    5  N   UNL     1     -43.649  56.715 -56.260  1.00  0.00    -0.324 N 
HETATM    6  C   UNL     1     -44.168  57.971 -56.162  1.00  0.00     0.245 C 
HETATM    7  O   UNL     1     -44.816  58.388 -57.126  1.00  0.00    -0.271 OA
HETATM    8  C   UNL     1     -44.059  58.721 -54.819  1.00  0.00     0.181 C 
HETATM    9  N   UNL     1     -42.642  58.999 -54.526  1.00  0.00    -0.334 N 
HETATM   10  C   UNL     1     -41.748  57.966 -54.201  1.00  0.00     0.256 C 
HETATM   11  O   UNL     1     -40.626  58.214 -53.752  1.00  0.00    -0.267 OA
HETATM   12  C   UNL     1     -44.977  59.955 -54.898  1.00  0.00     0.060 C 
HETATM   13  C   UNL     1     -44.630  61.041 -53.893  1.00  0.00     0.090 C 
HETATM   14  C   UNL     1     -43.192  61.458 -54.154  1.00  0.00     0.045 C 
HETATM   15  C   UNL     1     -42.236  60.294 -53.971  1.00  0.00     0.129 C 
HETATM   16  C   UNL     1     -43.089  54.595 -55.374  1.00  0.00     0.031 A 
HETATM   17  C   UNL     1     -42.472  53.751 -54.445  1.00  0.00     0.014 A 
HETATM   18  H   UNL     1     -43.975  56.233 -57.091  1.00  0.00     0.169 HD
ENDROOT
BRANCH   1  19
HETATM   19  C   UNL     1     -40.986  53.385 -52.440  1.00  0.00     0.009 A 
HETATM   20  C   UNL     1     -40.247  52.227 -52.793  1.00  0.00     0.079 A 
HETATM   21  C   UNL     1     -39.659  51.436 -51.793  1.00  0.00     0.039 A 
HETATM   22  C   UNL     1     -39.779  51.783 -50.447  1.00  0.00     0.026 A 
HETATM   23  C   UNL     1     -40.491  52.919 -50.091  1.00  0.00     0.035 A 
HETATM   24  C   UNL     1     -41.092  53.709 -51.069  1.00  0.00     0.039 A 
HETATM   25 CL   UNL     1     -40.633  53.356 -48.432  1.00  0.00    -0.084 Cl
BRANCH  20  26
HETATM   26  O   UNL     1     -40.137  51.951 -54.134  1.00  0.00    -0.355 OA
HETATM   27  C   UNL     1     -40.041  50.591 -54.533  1.00  0.00     0.210 C 
ENDBRANCH  20  26
ENDBRANCH   1  19
BRANCH  13  28
HETATM   28  N   UNL     1     -44.857  60.626 -52.515  1.00  0.00    -0.338 N 
HETATM   29  C   UNL     1     -45.232  61.539 -51.559  1.00  0.00     0.316 C 
HETATM   30  N   UNL     1     -45.545  60.916 -50.379  1.00  0.00    -0.340 N 
HETATM   31  O   UNL     1     -45.305  62.744 -51.747  1.00  0.00    -0.247 OA
HETATM   32  H   UNL     1     -45.019  60.076 -50.190  1.00  0.00     0.164 HD
HETATM   33  H   UNL     1     -45.203  59.692 -52.350  1.00  0.00     0.164 HD
BRANCH  30  34
HETATM   34  C   UNL     1     -45.899  61.707 -49.228  1.00  0.00     0.150 C 
BRANCH  34  35
HETATM   35  C   UNL     1     -44.785  61.572 -48.239  1.00  0.00    -0.018 C 
HETATM   36  C   UNL     1     -44.935  61.184 -46.966  1.00  0.00     0.008 C 
ENDBRANCH  34  35
ENDBRANCH  30  34
ENDBRANCH  13  28
TORSDOF 5
ENDMDL
MODEL 8
REMARK VINA RESULT:      -8.0      2.639      3.318
REMARK  5 active torsions:
REMARK  status: ('A' for Active; 'I' for Inactive)
REMARK    1  A    between atoms: O_2  and  C_3 
REMARK    2  A    between atoms: C_4  and  C_5 
REMARK    3  A    between atoms: C_17  and  N_18 
REMARK       I    between atoms: N_18  and  C_19 
REMARK       I    between atoms: C_19  and  N_20 
REMARK    4  A    between atoms: N_20  and  C_21 
REMARK    5  A    between atoms: C_21  and  C_22 
ROOT
HETATM    1  C   UNL     1     -41.819  54.886 -53.975  1.00  0.00    -0.022 A 
HETATM    2  C   UNL     1     -41.858  56.276 -54.190  1.00  0.00     0.031 A 
HETATM    3  C   UNL     1     -42.476  56.858 -55.321  1.00  0.00     0.059 A 
HETATM    4  C   UNL     1     -43.053  56.023 -56.277  1.00  0.00     0.050 A 
HETATM    5  N   UNL     1     -43.692  56.448 -57.443  1.00  0.00    -0.324 N 
HETATM    6  C   UNL     1     -44.394  57.598 -57.654  1.00  0.00     0.245 C 
HETATM    7  O   UNL     1     -44.940  57.729 -58.753  1.00  0.00    -0.271 OA
HETATM    8  C   UNL     1     -44.598  58.574 -56.477  1.00  0.00     0.181 C 
HETATM    9  N   UNL     1     -43.296  59.131 -56.071  1.00  0.00    -0.334 N 
HETATM   10  C   UNL     1     -42.325  58.332 -55.445  1.00  0.00     0.256 C 
HETATM   11  O   UNL     1     -41.331  58.838 -54.916  1.00  0.00    -0.267 OA
HETATM   12  C   UNL     1     -45.658  59.604 -56.906  1.00  0.00     0.060 C 
HETATM   13  C   UNL     1     -45.626  60.889 -56.094  1.00  0.00     0.090 C 
HETATM   14  C   UNL     1     -44.239  61.489 -56.251  1.00  0.00     0.045 C 
HETATM   15  C   UNL     1     -43.167  60.551 -55.730  1.00  0.00     0.129 C 
HETATM   16  C   UNL     1     -42.980  54.634 -56.102  1.00  0.00     0.031 A 
HETATM   17  C   UNL     1     -42.399  54.077 -54.959  1.00  0.00     0.014 A 
HETATM   18  H   UNL     1     -43.817  55.783 -58.199  1.00  0.00     0.169 HD
ENDROOT
BRANCH   1  19
HETATM   19  C   UNL     1     -41.200  54.314 -52.753  1.00  0.00     0.009 A 
HETATM   20  C   UNL     1     -40.345  53.182 -52.771  1.00  0.00     0.079 A 
HETATM   21  C   UNL     1     -39.805  52.688 -51.572  1.00  0.00     0.039 A 
HETATM   22  C   UNL     1     -40.087  53.310 -50.355  1.00  0.00     0.026 A 
HETATM   23  C   UNL     1     -40.913  54.423 -50.326  1.00  0.00     0.035 A 
HETATM   24  C   UNL     1     -41.468  54.919 -51.505  1.00  0.00     0.039 A 
HETATM   25 CL   UNL     1     -41.255  55.198 -48.828  1.00  0.00    -0.084 Cl
BRANCH  20  26
HETATM   26  O   UNL     1     -40.079  52.630 -54.000  1.00  0.00    -0.355 OA
HETATM   27  C   UNL     1     -40.098  51.214 -54.118  1.00  0.00     0.210 C 
ENDBRANCH  20  26
ENDBRANCH   1  19
BRANCH  13  28
HETATM   28  N   UNL     1     -46.000  60.684 -54.701  1.00  0.00    -0.338 N 
HETATM   29  C   UNL     1     -46.471  61.725 -53.939  1.00  0.00     0.316 C 
HETATM   30  N   UNL     1     -46.910  61.284 -52.719  1.00  0.00    -0.340 N 
HETATM   31  O   UNL     1     -46.520  62.888 -54.315  1.00  0.00    -0.247 OA
HETATM   32  H   UNL     1     -46.410  60.489 -52.350  1.00  0.00     0.164 HD
HETATM   33  H   UNL     1     -46.364  59.781 -54.435  1.00  0.00     0.164 HD
BRANCH  30  34
HETATM   34  C   UNL     1     -47.382  62.235 -51.745  1.00  0.00     0.150 C 
BRANCH  34  35
HETATM   35  C   UNL     1     -46.516  62.094 -50.534  1.00  0.00    -0.018 C 
HETATM   36  C   UNL     1     -45.583  61.147 -50.365  1.00  0.00     0.008 C 
ENDBRANCH  34  35
ENDBRANCH  30  34
ENDBRANCH  13  28
TORSDOF 5
ENDMDL
MODEL 9
REMARK VINA RESULT:      -8.0      2.895      5.472
REMARK  5 active torsions:
REMARK  status: ('A' for Active; 'I' for Inactive)
REMARK    1  A    between atoms: O_2  and  C_3 
REMARK    2  A    between atoms: C_4  and  C_5 
REMARK    3  A    between atoms: C_17  and  N_18 
REMARK       I    between atoms: N_18  and  C_19 
REMARK       I    between atoms: C_19  and  N_20 
REMARK    4  A    between atoms: N_20  and  C_21 
REMARK    5  A    between atoms: C_21  and  C_22 
ROOT
HETATM    1  C   UNL     1     -41.541  56.953 -51.351  1.00  0.00    -0.022 A 
HETATM    2  C   UNL     1     -42.869  57.417 -51.381  1.00  0.00     0.031 A 
HETATM    3  C   UNL     1     -43.213  58.769 -51.146  1.00  0.00     0.059 A 
HETATM    4  C   UNL     1     -42.199  59.679 -50.848  1.00  0.00     0.050 A 
HETATM    5  N   UNL     1     -42.382  61.038 -50.588  1.00  0.00    -0.324 N 
HETATM    6  C   UNL     1     -43.336  61.875 -51.086  1.00  0.00     0.245 C 
HETATM    7  O   UNL     1     -43.259  63.065 -50.771  1.00  0.00    -0.271 OA
HETATM    8  C   UNL     1     -44.341  61.330 -52.121  1.00  0.00     0.181 C 
HETATM    9  N   UNL     1     -45.191  60.307 -51.489  1.00  0.00    -0.334 N 
HETATM   10  C   UNL     1     -44.671  59.060 -51.105  1.00  0.00     0.256 C 
HETATM   11  O   UNL     1     -45.417  58.134 -50.775  1.00  0.00    -0.267 OA
HETATM   12  C   UNL     1     -45.085  62.534 -52.726  1.00  0.00     0.060 C 
HETATM   13  C   UNL     1     -46.410  62.170 -53.377  1.00  0.00     0.090 C 
HETATM   14  C   UNL     1     -47.275  61.519 -52.311  1.00  0.00     0.045 C 
HETATM   15  C   UNL     1     -46.630  60.257 -51.768  1.00  0.00     0.129 C 
HETATM   16  C   UNL     1     -40.876  59.223 -50.766  1.00  0.00     0.031 A 
HETATM   17  C   UNL     1     -40.551  57.891 -51.040  1.00  0.00     0.014 A 
HETATM   18  H   UNL     1     -41.646  61.545 -50.108  1.00  0.00     0.169 HD
ENDROOT
BRANCH   1  19
HETATM   19  C   UNL     1     -41.215  55.535 -51.648  1.00  0.00     0.009 A 
HETATM   20  C   UNL     1     -41.175  54.522 -50.656  1.00  0.00     0.079 A 
HETATM   21  C   UNL     1     -40.846  53.204 -51.009  1.00  0.00     0.039 A 
HETATM   22  C   UNL     1     -40.571  52.869 -52.335  1.00  0.00     0.026 A 
HETATM   23  C   UNL     1     -40.616  53.849 -53.315  1.00  0.00     0.035 A 
HETATM   24  C   UNL     1     -40.929  55.165 -52.980  1.00  0.00     0.039 A 
HETATM   25 CL   UNL     1     -40.286  53.439 -54.954  1.00  0.00    -0.084 Cl
BRANCH  20  26
HETATM   26  O   UNL     1     -41.485  54.904 -49.373  1.00  0.00    -0.355 OA
HETATM   27  C   UNL     1     -40.701  54.380 -48.310  1.00  0.00     0.210 C 
ENDBRANCH  20  26
ENDBRANCH   1  19
BRANCH  13  28
HETATM   28  N   UNL     1     -46.246  61.335 -54.560  1.00  0.00    -0.338 N 
HETATM   29  C   UNL     1     -47.007  61.548 -55.683  1.00  0.00     0.316 C 
HETATM   30  N   UNL     1     -46.584  60.763 -56.722  1.00  0.00    -0.340 N 
HETATM   31  O   UNL     1     -47.922  62.356 -55.752  1.00  0.00    -0.247 OA
HETATM   32  H   UNL     1     -46.208  59.867 -56.451  1.00  0.00     0.164 HD
HETATM   33  H   UNL     1     -45.330  60.954 -54.749  1.00  0.00     0.164 HD
BRANCH  30  34
HETATM   34  C   UNL     1     -47.299  60.791 -57.973  1.00  0.00     0.150 C 
BRANCH  34  35
HETATM   35  C   UNL     1     -47.547  59.371 -58.372  1.00  0.00    -0.018 C 
HETATM   36  C   UNL     1     -47.126  58.299 -57.689  1.00  0.00     0.008 C 
ENDBRANCH  34  35
ENDBRANCH  30  34
ENDBRANCH  13  28
TORSDOF 5
ENDMDL
MODEL 10
REMARK VINA RESULT:      -7.8      2.362      2.926
REMARK  5 active torsions:
REMARK  status: ('A' for Active; 'I' for Inactive)
REMARK    1  A    between atoms: O_2  and  C_3 
REMARK    2  A    between atoms: C_4  and  C_5 
REMARK    3  A    between atoms: C_17  and  N_18 
REMARK       I    between atoms: N_18  and  C_19 
REMARK       I    between atoms: C_19  and  N_20 
REMARK    4  A    between atoms: N_20  and  C_21 
REMARK    5  A    between atoms: C_21  and  C_22 
ROOT
HETATM    1  C   UNL     1     -41.797  54.993 -53.778  1.00  0.00    -0.022 A 
HETATM    2  C   UNL     1     -41.844  56.375 -54.039  1.00  0.00     0.031 A 
HETATM    3  C   UNL     1     -42.435  56.913 -55.207  1.00  0.00     0.059 A 
HETATM    4  C   UNL     1     -42.974  56.040 -56.151  1.00  0.00     0.050 A 
HETATM    5  N   UNL     1     -43.584  56.418 -57.349  1.00  0.00    -0.324 N 
HETATM    6  C   UNL     1     -44.290  57.553 -57.618  1.00  0.00     0.245 C 
HETATM    7  O   UNL     1     -44.805  57.642 -58.736  1.00  0.00    -0.271 OA
HETATM    8  C   UNL     1     -44.539  58.565 -56.481  1.00  0.00     0.181 C 
HETATM    9  N   UNL     1     -43.256  59.150 -56.055  1.00  0.00    -0.334 N 
HETATM   10  C   UNL     1     -42.295  58.383 -55.375  1.00  0.00     0.256 C 
HETATM   11  O   UNL     1     -41.323  58.918 -54.835  1.00  0.00    -0.267 OA
HETATM   12  C   UNL     1     -45.597  59.568 -56.975  1.00  0.00     0.060 C 
HETATM   13  C   UNL     1     -45.602  60.879 -56.205  1.00  0.00     0.090 C 
HETATM   14  C   UNL     1     -44.218  61.490 -56.341  1.00  0.00     0.045 C 
HETATM   15  C   UNL     1     -43.152  60.582 -55.758  1.00  0.00     0.129 C 
HETATM   16  C   UNL     1     -42.892  54.658 -55.928  1.00  0.00     0.031 A 
HETATM   17  C   UNL     1     -42.339  54.146 -54.750  1.00  0.00     0.014 A 
HETATM   18  H   UNL     1     -43.679  55.728 -58.086  1.00  0.00     0.169 HD
ENDROOT
BRANCH   1  19
HETATM   19  C   UNL     1     -41.208  54.468 -52.520  1.00  0.00     0.009 A 
HETATM   20  C   UNL     1     -41.183  55.203 -51.307  1.00  0.00     0.079 A 
HETATM   21  C   UNL     1     -40.597  54.647 -50.159  1.00  0.00     0.039 A 
HETATM   22  C   UNL     1     -40.047  53.364 -50.189  1.00  0.00     0.026 A 
HETATM   23  C   UNL     1     -40.075  52.633 -51.367  1.00  0.00     0.035 A 
HETATM   24  C   UNL     1     -40.642  53.174 -52.519  1.00  0.00     0.039 A 
HETATM   25 CL   UNL     1     -39.407  51.047 -51.407  1.00  0.00    -0.084 Cl
BRANCH  20  26
HETATM   26  O   UNL     1     -41.766  56.447 -51.328  1.00  0.00    -0.355 OA
HETATM   27  C   UNL     1     -41.119  57.503 -50.631  1.00  0.00     0.210 C 
ENDBRANCH  20  26
ENDBRANCH   1  19
BRANCH  13  28
HETATM   28  N   UNL     1     -46.015  60.716 -54.817  1.00  0.00    -0.338 N 
HETATM   29  C   UNL     1     -46.560  61.765 -54.118  1.00  0.00     0.316 C 
HETATM   30  N   UNL     1     -47.020  61.355 -52.895  1.00  0.00    -0.340 N 
HETATM   31  O   UNL     1     -46.649  62.907 -54.545  1.00  0.00    -0.247 OA
HETATM   32  H   UNL     1     -46.498  60.601 -52.475  1.00  0.00     0.164 HD
HETATM   33  H   UNL     1     -46.347  59.808 -54.524  1.00  0.00     0.164 HD
BRANCH  30  34
HETATM   34  C   UNL     1     -47.569  62.324 -51.979  1.00  0.00     0.150 C 
BRANCH  34  35
HETATM   35  C   UNL     1     -46.697  62.328 -50.765  1.00  0.00    -0.018 C 
HETATM   36  C   UNL     1     -45.869  61.335 -50.413  1.00  0.00     0.008 C 
ENDBRANCH  34  35
ENDBRANCH  30  34
ENDBRANCH  13  28
TORSDOF 5
ENDMDL
