MODEL 1
REMARK VINA RESULT:      -7.9      0.000      0.000
REMARK  4 active torsions:
REMARK  status: ('A' for Active; 'I' for Inactive)
REMARK    1  A    between atoms: O_2  and  C_3 
REMARK    2  A    between atoms: C_5  and  C_6 
REMARK    3  A    between atoms: C_10  and  N_11 
REMARK    4  A    between atoms: C_14  and  C_15 
ROOT
HETATM    1  C   UNL     1     -41.513  54.073 -53.885  1.00  0.00     0.164 C 
HETATM    2  N   UNL     1     -42.222  54.552 -52.704  1.00  0.00    -0.074 N 
HETATM    3  C   UNL     1     -42.215  55.854 -52.279  1.00  0.00     0.736 A 
HETATM    4  N   UNL     1     -43.030  55.977 -51.264  1.00  0.00     0.131 NA
HETATM    5  C   UNL     1     -43.562  54.727 -51.146  1.00  0.00     0.753 A 
HETATM    6  N   UNL     1     -43.124  53.825 -52.019  1.00  0.00     0.037 NA
HETATM    7  N   UNL     1     -41.500  56.801 -52.924  1.00  0.00    -0.214 N 
HETATM    8  C   UNL     1     -41.030  56.546 -54.282  1.00  0.00     0.135 C 
HETATM    9  C   UNL     1     -40.475  55.111 -54.359  1.00  0.00     0.063 C 
HETATM   10  H   UNL     1     -41.732  57.768 -52.710  1.00  0.00     0.178 HD
ENDROOT
BRANCH   1  11
HETATM   11  C   UNL     1     -40.850  52.723 -53.651  1.00  0.00    -0.030 A 
HETATM   12  C   UNL     1     -40.314  52.378 -52.396  1.00  0.00     0.046 A 
HETATM   13  C   UNL     1     -39.723  51.130 -52.179  1.00  0.00     0.068 A 
HETATM   14  C   UNL     1     -39.625  50.225 -53.235  1.00  0.00     0.037 A 
HETATM   15  C   UNL     1     -40.136  50.560 -54.491  1.00  0.00     0.003 A 
HETATM   16  C   UNL     1     -40.747  51.798 -54.698  1.00  0.00     0.009 A 
BRANCH  13  17
HETATM   17  O   UNL     1     -39.261  50.923 -50.909  1.00  0.00    -0.356 OA
HETATM   18  C   UNL     1     -40.216  50.438 -49.972  1.00  0.00     0.210 C 
ENDBRANCH  13  17
ENDBRANCH   1  11
BRANCH   8  19
HETATM   19  C   UNL     1     -42.067  56.857 -55.358  1.00  0.00    -0.035 A 
HETATM   20  C   UNL     1     -42.310  56.021 -56.463  1.00  0.00     0.010 A 
HETATM   21  C   UNL     1     -43.274  56.350 -57.421  1.00  0.00     0.019 A 
HETATM   22  C   UNL     1     -44.013  57.521 -57.287  1.00  0.00     0.011 A 
HETATM   23 BR   UNL     1     -45.316  57.966 -58.581  1.00  0.00    -0.051 Br
HETATM   24  C   UNL     1     -43.798  58.363 -56.201  1.00  0.00     0.019 A 
HETATM   25  C   UNL     1     -42.835  58.031 -55.243  1.00  0.00     0.010 A 
ENDBRANCH   8  19
BRANCH   5  26
HETATM   26  N   UNL     1     -44.456  54.503 -50.188  1.00  0.00    -0.229 N 
HETATM   27  H   UNL     1     -44.089  54.201 -49.296  1.00  0.00     0.174 HD
HETATM   28  H   UNL     1     -45.308  54.040 -50.473  1.00  0.00     0.174 HD
ENDBRANCH   5  26
TORSDOF 4
ENDMDL
MODEL 2
REMARK VINA RESULT:      -7.8      3.903      7.415
REMARK  4 active torsions:
REMARK  status: ('A' for Active; 'I' for Inactive)
REMARK    1  A    between atoms: O_2  and  C_3 
REMARK    2  A    between atoms: C_5  and  C_6 
REMARK    3  A    between atoms: C_10  and  N_11 
REMARK    4  A    between atoms: C_14  and  C_15 
ROOT
HETATM    1  C   UNL     1     -42.076  57.973 -53.267  1.00  0.00     0.164 C 
HETATM    2  N   UNL     1     -41.259  58.390 -52.133  1.00  0.00    -0.074 N 
HETATM    3  C   UNL     1     -41.363  57.860 -50.874  1.00  0.00     0.736 A 
HETATM    4  N   UNL     1     -40.424  58.364 -50.118  1.00  0.00     0.131 NA
HETATM    5  C   UNL     1     -39.728  59.156 -50.983  1.00  0.00     0.753 A 
HETATM    6  N   UNL     1     -40.179  59.187 -52.234  1.00  0.00     0.037 NA
HETATM    7  N   UNL     1     -42.281  56.913 -50.583  1.00  0.00    -0.214 N 
HETATM    8  C   UNL     1     -42.919  56.172 -51.667  1.00  0.00     0.135 C 
HETATM    9  C   UNL     1     -43.296  57.156 -52.792  1.00  0.00     0.063 C 
HETATM   10  H   UNL     1     -42.141  56.398 -49.718  1.00  0.00     0.178 HD
ENDROOT
BRANCH   1  11
HETATM   11  C   UNL     1     -42.522  59.152 -54.120  1.00  0.00    -0.030 A 
HETATM   12  C   UNL     1     -41.853  59.490 -55.310  1.00  0.00     0.046 A 
HETATM   13  C   UNL     1     -42.277  60.561 -56.101  1.00  0.00     0.068 A 
HETATM   14  C   UNL     1     -43.359  61.335 -55.684  1.00  0.00     0.037 A 
HETATM   15  C   UNL     1     -44.024  61.022 -54.495  1.00  0.00     0.003 A 
HETATM   16  C   UNL     1     -43.612  59.937 -53.720  1.00  0.00     0.009 A 
BRANCH  13  17
HETATM   17  O   UNL     1     -41.545  60.766 -57.237  1.00  0.00    -0.356 OA
HETATM   18  C   UNL     1     -41.798  59.865 -58.309  1.00  0.00     0.210 C 
ENDBRANCH  13  17
ENDBRANCH   1  11
BRANCH   8  19
HETATM   19  C   UNL     1     -42.107  54.975 -52.153  1.00  0.00    -0.035 A 
HETATM   20  C   UNL     1     -41.064  54.395 -51.409  1.00  0.00     0.010 A 
HETATM   21  C   UNL     1     -40.351  53.295 -51.899  1.00  0.00     0.019 A 
HETATM   22  C   UNL     1     -40.673  52.757 -53.140  1.00  0.00     0.011 A 
HETATM   23 BR   UNL     1     -39.710  51.272 -53.801  1.00  0.00    -0.051 Br
HETATM   24  C   UNL     1     -41.705  53.306 -53.894  1.00  0.00     0.019 A 
HETATM   25  C   UNL     1     -42.418  54.404 -53.402  1.00  0.00     0.010 A 
ENDBRANCH   8  19
BRANCH   5  26
HETATM   26  N   UNL     1     -38.677  59.830 -50.526  1.00  0.00    -0.229 N 
HETATM   27  H   UNL     1     -38.686  60.830 -50.676  1.00  0.00     0.174 HD
HETATM   28  H   UNL     1     -37.776  59.391 -50.657  1.00  0.00     0.174 HD
ENDBRANCH   5  26
TORSDOF 4
ENDMDL
MODEL 3
REMARK VINA RESULT:      -7.6     14.674     16.719
REMARK  4 active torsions:
REMARK  status: ('A' for Active; 'I' for Inactive)
REMARK    1  A    between atoms: O_2  and  C_3 
REMARK    2  A    between atoms: C_5  and  C_6 
REMARK    3  A    between atoms: C_10  and  N_11 
REMARK    4  A    between atoms: C_14  and  C_15 
ROOT
HETATM    1  C   UNL     1     -36.380  40.454 -56.189  1.00  0.00     0.164 C 
HETATM    2  N   UNL     1     -34.923  40.400 -56.223  1.00  0.00    -0.074 N 
HETATM    3  C   UNL     1     -34.106  41.295 -55.585  1.00  0.00     0.736 A 
HETATM    4  N   UNL     1     -32.863  40.910 -55.718  1.00  0.00     0.131 NA
HETATM    5  C   UNL     1     -32.979  39.733 -56.397  1.00  0.00     0.753 A 
HETATM    6  N   UNL     1     -34.218  39.361 -56.706  1.00  0.00     0.037 NA
HETATM    7  N   UNL     1     -34.610  42.338 -54.891  1.00  0.00    -0.214 N 
HETATM    8  C   UNL     1     -36.014  42.325 -54.493  1.00  0.00     0.135 C 
HETATM    9  C   UNL     1     -36.865  41.826 -55.677  1.00  0.00     0.063 C 
HETATM   10  H   UNL     1     -33.973  42.806 -54.251  1.00  0.00     0.178 HD
ENDROOT
BRANCH   1  11
HETATM   11  C   UNL     1     -37.000  40.139 -57.542  1.00  0.00    -0.030 A 
HETATM   12  C   UNL     1     -37.774  38.981 -57.743  1.00  0.00     0.046 A 
HETATM   13  C   UNL     1     -38.358  38.706 -58.983  1.00  0.00     0.068 A 
HETATM   14  C   UNL     1     -38.138  39.573 -60.052  1.00  0.00     0.037 A 
HETATM   15  C   UNL     1     -37.358  40.718 -59.873  1.00  0.00     0.003 A 
HETATM   16  C   UNL     1     -36.796  41.002 -58.628  1.00  0.00     0.009 A 
BRANCH  13  17
HETATM   17  O   UNL     1     -39.096  37.556 -59.031  1.00  0.00    -0.356 OA
HETATM   18  C   UNL     1     -40.004  37.446 -60.121  1.00  0.00     0.210 C 
ENDBRANCH  13  17
ENDBRANCH   1  11
BRANCH   8  19
HETATM   19  C   UNL     1     -36.277  41.570 -53.193  1.00  0.00    -0.035 A 
HETATM   20  C   UNL     1     -37.453  40.839 -52.947  1.00  0.00     0.010 A 
HETATM   21  C   UNL     1     -37.644  40.161 -51.738  1.00  0.00     0.019 A 
HETATM   22  C   UNL     1     -36.658  40.202 -50.757  1.00  0.00     0.011 A 
HETATM   23 BR   UNL     1     -36.916  39.286 -49.125  1.00  0.00    -0.051 Br
HETATM   24  C   UNL     1     -35.482  40.911 -50.977  1.00  0.00     0.019 A 
HETATM   25  C   UNL     1     -35.292  41.587 -52.187  1.00  0.00     0.010 A 
ENDBRANCH   8  19
BRANCH   5  26
HETATM   26  N   UNL     1     -31.873  39.060 -56.699  1.00  0.00    -0.229 N 
HETATM   27  H   UNL     1     -31.959  38.360 -57.424  1.00  0.00     0.174 HD
HETATM   28  H   UNL     1     -31.289  38.791 -55.920  1.00  0.00     0.174 HD
ENDBRANCH   5  26
TORSDOF 4
ENDMDL
MODEL 4
REMARK VINA RESULT:      -7.5      4.163      7.558
REMARK  4 active torsions:
REMARK  status: ('A' for Active; 'I' for Inactive)
REMARK    1  A    between atoms: O_2  and  C_3 
REMARK    2  A    between atoms: C_5  and  C_6 
REMARK    3  A    between atoms: C_10  and  N_11 
REMARK    4  A    between atoms: C_14  and  C_15 
ROOT
HETATM    1  C   UNL     1     -41.895  58.090 -53.346  1.00  0.00     0.164 C 
HETATM    2  N   UNL     1     -41.093  58.480 -52.191  1.00  0.00    -0.074 N 
HETATM    3  C   UNL     1     -41.251  57.958 -50.935  1.00  0.00     0.736 A 
HETATM    4  N   UNL     1     -40.314  58.429 -50.155  1.00  0.00     0.131 NA
HETATM    5  C   UNL     1     -39.566  59.192 -51.003  1.00  0.00     0.753 A 
HETATM    6  N   UNL     1     -39.982  59.235 -52.265  1.00  0.00     0.037 NA
HETATM    7  N   UNL     1     -42.212  57.048 -50.666  1.00  0.00    -0.214 N 
HETATM    8  C   UNL     1     -42.848  56.328 -51.766  1.00  0.00     0.135 C 
HETATM    9  C   UNL     1     -43.157  57.321 -52.902  1.00  0.00     0.063 C 
HETATM   10  H   UNL     1     -42.114  56.530 -49.796  1.00  0.00     0.178 HD
ENDROOT
BRANCH   1  11
HETATM   11  C   UNL     1     -42.273  59.282 -54.214  1.00  0.00    -0.030 A 
HETATM   12  C   UNL     1     -42.892  60.420 -53.666  1.00  0.00     0.046 A 
HETATM   13  C   UNL     1     -43.221  61.520 -54.462  1.00  0.00     0.068 A 
HETATM   14  C   UNL     1     -42.967  61.476 -55.832  1.00  0.00     0.037 A 
HETATM   15  C   UNL     1     -42.368  60.346 -56.394  1.00  0.00     0.003 A 
HETATM   16  C   UNL     1     -42.020  59.258 -55.592  1.00  0.00     0.009 A 
BRANCH  13  17
HETATM   17  O   UNL     1     -43.802  62.563 -53.796  1.00  0.00    -0.356 OA
HETATM   18  C   UNL     1     -43.113  63.805 -53.863  1.00  0.00     0.210 C 
ENDBRANCH  13  17
ENDBRANCH   1  11
BRANCH   8  19
HETATM   19  C   UNL     1     -42.068  55.099 -52.227  1.00  0.00    -0.035 A 
HETATM   20  C   UNL     1     -41.089  54.464 -51.442  1.00  0.00     0.010 A 
HETATM   21  C   UNL     1     -40.404  53.338 -51.910  1.00  0.00     0.019 A 
HETATM   22  C   UNL     1     -40.692  52.827 -53.171  1.00  0.00     0.011 A 
HETATM   23 BR   UNL     1     -39.767  51.305 -53.804  1.00  0.00    -0.051 Br
HETATM   24  C   UNL     1     -41.661  53.430 -53.967  1.00  0.00     0.019 A 
HETATM   25  C   UNL     1     -42.345  54.555 -53.496  1.00  0.00     0.010 A 
ENDBRANCH   8  19
BRANCH   5  26
HETATM   26  N   UNL     1     -38.503  59.827 -50.519  1.00  0.00    -0.229 N 
HETATM   27  H   UNL     1     -37.634  59.309 -50.519  1.00  0.00     0.174 HD
HETATM   28  H   UNL     1     -38.658  60.391 -49.695  1.00  0.00     0.174 HD
ENDBRANCH   5  26
TORSDOF 4
ENDMDL
MODEL 5
REMARK VINA RESULT:      -7.4      3.374      4.775
REMARK  4 active torsions:
REMARK  status: ('A' for Active; 'I' for Inactive)
REMARK    1  A    between atoms: O_2  and  C_3 
REMARK    2  A    between atoms: C_5  and  C_6 
REMARK    3  A    between atoms: C_10  and  N_11 
REMARK    4  A    between atoms: C_14  and  C_15 
ROOT
HETATM    1  C   UNL     1     -42.097  55.740 -52.556  1.00  0.00     0.164 C 
HETATM    2  N   UNL     1     -42.486  55.986 -53.940  1.00  0.00    -0.074 N 
HETATM    3  C   UNL     1     -43.722  56.432 -54.323  1.00  0.00     0.736 A 
HETATM    4  N   UNL     1     -43.716  56.656 -55.612  1.00  0.00     0.131 NA
HETATM    5  C   UNL     1     -42.425  56.389 -55.962  1.00  0.00     0.753 A 
HETATM    6  N   UNL     1     -41.624  56.003 -54.973  1.00  0.00     0.037 NA
HETATM    7  N   UNL     1     -44.705  56.646 -53.422  1.00  0.00    -0.214 N 
HETATM    8  C   UNL     1     -44.367  56.769 -52.007  1.00  0.00     0.135 C 
HETATM    9  C   UNL     1     -43.339  55.681 -51.641  1.00  0.00     0.063 C 
HETATM   10  H   UNL     1     -45.496  57.201 -53.738  1.00  0.00     0.178 HD
ENDROOT
BRANCH   1  11
HETATM   11  C   UNL     1     -41.264  54.476 -52.407  1.00  0.00    -0.030 A 
HETATM   12  C   UNL     1     -41.149  53.546 -53.456  1.00  0.00     0.046 A 
HETATM   13  C   UNL     1     -40.367  52.395 -53.322  1.00  0.00     0.068 A 
HETATM   14  C   UNL     1     -39.720  52.142 -52.114  1.00  0.00     0.037 A 
HETATM   15  C   UNL     1     -39.838  53.047 -51.056  1.00  0.00     0.003 A 
HETATM   16  C   UNL     1     -40.601  54.207 -51.201  1.00  0.00     0.009 A 
BRANCH  13  17
HETATM   17  O   UNL     1     -40.332  51.589 -54.426  1.00  0.00    -0.356 OA
HETATM   18  C   UNL     1     -39.922  50.246 -54.201  1.00  0.00     0.210 C 
ENDBRANCH  13  17
ENDBRANCH   1  11
BRANCH   8  19
HETATM   19  C   UNL     1     -43.937  58.175 -51.599  1.00  0.00    -0.035 A 
HETATM   20  C   UNL     1     -42.612  58.516 -51.274  1.00  0.00     0.010 A 
HETATM   21  C   UNL     1     -42.269  59.821 -50.908  1.00  0.00     0.019 A 
HETATM   22  C   UNL     1     -43.248  60.809 -50.864  1.00  0.00     0.011 A 
HETATM   23 BR   UNL     1     -42.785  62.573 -50.370  1.00  0.00    -0.051 Br
HETATM   24  C   UNL     1     -44.566  60.502 -51.188  1.00  0.00     0.019 A 
HETATM   25  C   UNL     1     -44.906  59.196 -51.555  1.00  0.00     0.010 A 
ENDBRANCH   8  19
BRANCH   5  26
HETATM   26  N   UNL     1     -42.069  56.526 -57.235  1.00  0.00    -0.229 N 
HETATM   27  H   UNL     1     -41.469  57.311 -57.450  1.00  0.00     0.174 HD
HETATM   28  H   UNL     1     -42.788  56.343 -57.921  1.00  0.00     0.174 HD
ENDBRANCH   5  26
TORSDOF 4
ENDMDL
MODEL 6
REMARK VINA RESULT:      -7.4      1.452      2.020
REMARK  4 active torsions:
REMARK  status: ('A' for Active; 'I' for Inactive)
REMARK    1  A    between atoms: O_2  and  C_3 
REMARK    2  A    between atoms: C_5  and  C_6 
REMARK    3  A    between atoms: C_10  and  N_11 
REMARK    4  A    between atoms: C_14  and  C_15 
ROOT
HETATM    1  C   UNL     1     -41.712  55.056 -53.860  1.00  0.00     0.164 C 
HETATM    2  N   UNL     1     -42.494  55.913 -52.976  1.00  0.00    -0.074 N 
HETATM    3  C   UNL     1     -42.581  57.274 -53.106  1.00  0.00     0.736 A 
HETATM    4  N   UNL     1     -43.441  57.732 -52.235  1.00  0.00     0.131 NA
HETATM    5  C   UNL     1     -43.901  56.598 -51.633  1.00  0.00     0.753 A 
HETATM    6  N   UNL     1     -43.375  55.457 -52.068  1.00  0.00     0.037 NA
HETATM    7  N   UNL     1     -41.901  57.935 -54.067  1.00  0.00    -0.214 N 
HETATM    8  C   UNL     1     -41.364  57.195 -55.206  1.00  0.00     0.135 C 
HETATM    9  C   UNL     1     -40.721  55.891 -54.697  1.00  0.00     0.063 C 
HETATM   10  H   UNL     1     -42.200  58.888 -54.260  1.00  0.00     0.178 HD
ENDROOT
BRANCH   1  11
HETATM   11  C   UNL     1     -40.977  53.962 -53.098  1.00  0.00    -0.030 A 
HETATM   12  C   UNL     1     -40.610  52.754 -53.721  1.00  0.00     0.046 A 
HETATM   13  C   UNL     1     -39.919  51.760 -53.023  1.00  0.00     0.068 A 
HETATM   14  C   UNL     1     -39.622  51.949 -51.675  1.00  0.00     0.037 A 
HETATM   15  C   UNL     1     -39.994  53.135 -51.037  1.00  0.00     0.003 A 
HETATM   16  C   UNL     1     -40.664  54.136 -51.743  1.00  0.00     0.009 A 
BRANCH  13  17
HETATM   17  O   UNL     1     -39.612  50.647 -53.757  1.00  0.00    -0.356 OA
HETATM   18  C   UNL     1     -39.602  49.417 -53.043  1.00  0.00     0.210 C 
ENDBRANCH  13  17
ENDBRANCH   1  11
BRANCH   8  19
HETATM   19  C   UNL     1     -42.375  56.978 -56.328  1.00  0.00    -0.035 A 
HETATM   20  C   UNL     1     -42.491  55.772 -57.043  1.00  0.00     0.010 A 
HETATM   21  C   UNL     1     -43.437  55.623 -58.062  1.00  0.00     0.019 A 
HETATM   22  C   UNL     1     -44.285  56.679 -58.380  1.00  0.00     0.011 A 
HETATM   23 BR   UNL     1     -45.563  56.477 -59.757  1.00  0.00    -0.051 Br
HETATM   24  C   UNL     1     -44.198  57.881 -57.685  1.00  0.00     0.019 A 
HETATM   25  C   UNL     1     -43.252  58.027 -56.665  1.00  0.00     0.010 A 
ENDBRANCH   8  19
BRANCH   5  26
HETATM   26  N   UNL     1     -44.816  56.710 -50.675  1.00  0.00    -0.229 N 
HETATM   27  H   UNL     1     -45.365  55.884 -50.481  1.00  0.00     0.174 HD
HETATM   28  H   UNL     1     -45.336  57.577 -50.656  1.00  0.00     0.174 HD
ENDBRANCH   5  26
TORSDOF 4
ENDMDL
MODEL 7
REMARK VINA RESULT:      -7.3      3.850      7.068
REMARK  4 active torsions:
REMARK  status: ('A' for Active; 'I' for Inactive)
REMARK    1  A    between atoms: O_2  and  C_3 
REMARK    2  A    between atoms: C_5  and  C_6 
REMARK    3  A    between atoms: C_10  and  N_11 
REMARK    4  A    between atoms: C_14  and  C_15 
ROOT
HETATM    1  C   UNL     1     -42.479  56.534 -55.969  1.00  0.00     0.164 C 
HETATM    2  N   UNL     1     -42.651  57.542 -54.929  1.00  0.00    -0.074 N 
HETATM    3  C   UNL     1     -43.426  57.370 -53.813  1.00  0.00     0.736 A 
HETATM    4  N   UNL     1     -43.283  58.406 -53.029  1.00  0.00     0.131 NA
HETATM    5  C   UNL     1     -42.356  59.161 -53.685  1.00  0.00     0.753 A 
HETATM    6  N   UNL     1     -41.916  58.665 -54.838  1.00  0.00     0.037 NA
HETATM    7  N   UNL     1     -44.132  56.236 -53.614  1.00  0.00    -0.214 N 
HETATM    8  C   UNL     1     -43.797  55.038 -54.377  1.00  0.00     0.135 C 
HETATM    9  C   UNL     1     -43.552  55.432 -55.846  1.00  0.00     0.063 C 
HETATM   10  H   UNL     1     -44.477  56.077 -52.670  1.00  0.00     0.178 HD
ENDROOT
BRANCH   1  11
HETATM   11  C   UNL     1     -42.492  57.139 -57.365  1.00  0.00    -0.030 A 
HETATM   12  C   UNL     1     -42.917  56.397 -58.482  1.00  0.00     0.046 A 
HETATM   13  C   UNL     1     -42.946  56.962 -59.760  1.00  0.00     0.068 A 
HETATM   14  C   UNL     1     -42.509  58.274 -59.940  1.00  0.00     0.037 A 
HETATM   15  C   UNL     1     -42.068  59.019 -58.843  1.00  0.00     0.003 A 
HETATM   16  C   UNL     1     -42.062  58.458 -57.565  1.00  0.00     0.009 A 
BRANCH  13  17
HETATM   17  O   UNL     1     -43.397  56.132 -60.749  1.00  0.00    -0.356 OA
HETATM   18  C   UNL     1     -44.735  55.670 -60.610  1.00  0.00     0.210 C 
ENDBRANCH  13  17
ENDBRANCH   1  11
BRANCH   8  19
HETATM   19  C   UNL     1     -42.660  54.220 -53.769  1.00  0.00    -0.035 A 
HETATM   20  C   UNL     1     -41.798  53.410 -54.528  1.00  0.00     0.010 A 
HETATM   21  C   UNL     1     -40.769  52.681 -53.922  1.00  0.00     0.019 A 
HETATM   22  C   UNL     1     -40.586  52.755 -52.545  1.00  0.00     0.011 A 
HETATM   23 BR   UNL     1     -39.196  51.771 -51.727  1.00  0.00    -0.051 Br
HETATM   24  C   UNL     1     -41.420  53.554 -51.770  1.00  0.00     0.019 A 
HETATM   25  C   UNL     1     -42.447  54.283 -52.379  1.00  0.00     0.010 A 
ENDBRANCH   8  19
BRANCH   5  26
HETATM   26  N   UNL     1     -41.971  60.312 -53.143  1.00  0.00    -0.229 N 
HETATM   27  H   UNL     1     -42.214  60.453 -52.172  1.00  0.00     0.174 HD
HETATM   28  H   UNL     1     -42.068  61.133 -53.726  1.00  0.00     0.174 HD
ENDBRANCH   5  26
TORSDOF 4
ENDMDL
MODEL 8
REMARK VINA RESULT:      -7.2     14.200     15.822
REMARK  4 active torsions:
REMARK  status: ('A' for Active; 'I' for Inactive)
REMARK    1  A    between atoms: O_2  and  C_3 
REMARK    2  A    between atoms: C_5  and  C_6 
REMARK    3  A    between atoms: C_10  and  N_11 
REMARK    4  A    between atoms: C_14  and  C_15 
ROOT
HETATM    1  C   UNL     1     -35.196  40.055 -53.337  1.00  0.00     0.164 C 
HETATM    2  N   UNL     1     -36.473  40.087 -52.631  1.00  0.00    -0.074 N 
HETATM    3  C   UNL     1     -37.372  41.117 -52.717  1.00  0.00     0.736 A 
HETATM    4  N   UNL     1     -38.455  40.794 -52.060  1.00  0.00     0.131 NA
HETATM    5  C   UNL     1     -38.191  39.523 -51.641  1.00  0.00     0.753 A 
HETATM    6  N   UNL     1     -37.005  39.033 -51.987  1.00  0.00     0.037 NA
HETATM    7  N   UNL     1     -37.113  42.219 -53.452  1.00  0.00    -0.214 N 
HETATM    8  C   UNL     1     -36.057  42.179 -54.459  1.00  0.00     0.135 C 
HETATM    9  C   UNL     1     -34.830  41.456 -53.870  1.00  0.00     0.063 C 
HETATM   10  H   UNL     1     -37.907  42.816 -53.668  1.00  0.00     0.178 HD
ENDROOT
BRANCH   1  11
HETATM   11  C   UNL     1     -34.074  39.503 -52.471  1.00  0.00    -0.030 A 
HETATM   12  C   UNL     1     -33.719  40.112 -51.253  1.00  0.00     0.046 A 
HETATM   13  C   UNL     1     -32.701  39.591 -50.451  1.00  0.00     0.068 A 
HETATM   14  C   UNL     1     -31.993  38.470 -50.883  1.00  0.00     0.037 A 
HETATM   15  C   UNL     1     -32.322  37.864 -52.098  1.00  0.00     0.003 A 
HETATM   16  C   UNL     1     -33.356  38.373 -52.885  1.00  0.00     0.009 A 
BRANCH  13  17
HETATM   17  O   UNL     1     -32.475  40.274 -49.288  1.00  0.00    -0.356 OA
HETATM   18  C   UNL     1     -31.630  39.628 -48.343  1.00  0.00     0.210 C 
ENDBRANCH  13  17
ENDBRANCH   1  11
BRANCH   8  19
HETATM   19  C   UNL     1     -36.510  41.613 -55.802  1.00  0.00    -0.035 A 
HETATM   20  C   UNL     1     -37.825  41.184 -56.057  1.00  0.00     0.010 A 
HETATM   21  C   UNL     1     -38.190  40.675 -57.307  1.00  0.00     0.019 A 
HETATM   22  C   UNL     1     -37.245  40.589 -58.324  1.00  0.00     0.011 A 
HETATM   23 BR   UNL     1     -37.739  39.901 -60.013  1.00  0.00    -0.051 Br
HETATM   24  C   UNL     1     -35.939  41.013 -58.102  1.00  0.00     0.019 A 
HETATM   25  C   UNL     1     -35.576  41.524 -56.852  1.00  0.00     0.010 A 
ENDBRANCH   8  19
BRANCH   5  26
HETATM   26  N   UNL     1     -39.113  38.882 -50.929  1.00  0.00    -0.229 N 
HETATM   27  H   UNL     1     -39.568  38.102 -51.385  1.00  0.00     0.174 HD
HETATM   28  H   UNL     1     -39.725  39.460 -50.370  1.00  0.00     0.174 HD
ENDBRANCH   5  26
TORSDOF 4
ENDMDL
MODEL 9
REMARK VINA RESULT:      -7.1      3.562      4.859
REMARK  4 active torsions:
REMARK  status: ('A' for Active; 'I' for Inactive)
REMARK    1  A    between atoms: O_2  and  C_3 
REMARK    2  A    between atoms: C_5  and  C_6 
REMARK    3  A    between atoms: C_10  and  N_11 
REMARK    4  A    between atoms: C_14  and  C_15 
ROOT
HETATM    1  C   UNL     1     -42.347  56.456 -52.295  1.00  0.00     0.164 C 
HETATM    2  N   UNL     1     -42.661  56.467 -53.719  1.00  0.00    -0.074 N 
HETATM    3  C   UNL     1     -43.881  56.816 -54.235  1.00  0.00     0.736 A 
HETATM    4  N   UNL     1     -43.805  56.830 -55.540  1.00  0.00     0.131 NA
HETATM    5  C   UNL     1     -42.493  56.541 -55.773  1.00  0.00     0.753 A 
HETATM    6  N   UNL     1     -41.743  56.337 -54.694  1.00  0.00     0.037 NA
HETATM    7  N   UNL     1     -44.915  57.149 -53.433  1.00  0.00    -0.214 N 
HETATM    8  C   UNL     1     -44.659  57.505 -52.040  1.00  0.00     0.135 C 
HETATM    9  C   UNL     1     -43.637  56.515 -51.450  1.00  0.00     0.063 C 
HETATM   10  H   UNL     1     -45.696  57.627 -53.876  1.00  0.00     0.178 HD
ENDROOT
BRANCH   1  11
HETATM   11  C   UNL     1     -41.504  55.252 -51.900  1.00  0.00    -0.030 A 
HETATM   12  C   UNL     1     -40.825  55.205 -50.668  1.00  0.00     0.046 A 
HETATM   13  C   UNL     1     -40.068  54.089 -50.301  1.00  0.00     0.068 A 
HETATM   14  C   UNL     1     -39.950  53.019 -51.186  1.00  0.00     0.037 A 
HETATM   15  C   UNL     1     -40.605  53.057 -52.419  1.00  0.00     0.003 A 
HETATM   16  C   UNL     1     -41.379  54.163 -52.773  1.00  0.00     0.009 A 
BRANCH  13  17
HETATM   17  O   UNL     1     -39.476  54.173 -49.071  1.00  0.00    -0.356 OA
HETATM   18  C   UNL     1     -40.327  53.939 -47.955  1.00  0.00     0.210 C 
ENDBRANCH  13  17
ENDBRANCH   1  11
BRANCH   8  19
HETATM   19  C   UNL     1     -44.273  58.969 -51.843  1.00  0.00    -0.035 A 
HETATM   20  C   UNL     1     -43.230  59.387 -50.998  1.00  0.00     0.010 A 
HETATM   21  C   UNL     1     -42.915  60.742 -50.853  1.00  0.00     0.019 A 
HETATM   22  C   UNL     1     -43.637  61.701 -51.556  1.00  0.00     0.011 A 
HETATM   23 BR   UNL     1     -43.211  63.531 -51.361  1.00  0.00    -0.051 Br
HETATM   24  C   UNL     1     -44.670  61.315 -52.405  1.00  0.00     0.019 A 
HETATM   25  C   UNL     1     -44.982  59.960 -52.549  1.00  0.00     0.010 A 
ENDBRANCH   8  19
BRANCH   5  26
HETATM   26  N   UNL     1     -42.068  56.479 -57.032  1.00  0.00    -0.229 N 
HETATM   27  H   UNL     1     -41.212  55.966 -57.190  1.00  0.00     0.174 HD
HETATM   28  H   UNL     1     -42.159  57.327 -57.574  1.00  0.00     0.174 HD
ENDBRANCH   5  26
TORSDOF 4
ENDMDL
MODEL 10
REMARK VINA RESULT:      -7.1      3.922      7.457
REMARK  4 active torsions:
REMARK  status: ('A' for Active; 'I' for Inactive)
REMARK    1  A    between atoms: O_2  and  C_3 
REMARK    2  A    between atoms: C_5  and  C_6 
REMARK    3  A    between atoms: C_10  and  N_11 
REMARK    4  A    between atoms: C_14  and  C_15 
ROOT
HETATM    1  C   UNL     1     -42.816  57.230 -52.301  1.00  0.00     0.164 C 
HETATM    2  N   UNL     1     -41.703  57.784 -51.537  1.00  0.00    -0.074 N 
HETATM    3  C   UNL     1     -41.219  57.238 -50.379  1.00  0.00     0.736 A 
HETATM    4  N   UNL     1     -40.158  57.902 -50.003  1.00  0.00     0.131 NA
HETATM    5  C   UNL     1     -39.996  58.812 -51.006  1.00  0.00     0.753 A 
HETATM    6  N   UNL     1     -40.898  58.765 -51.982  1.00  0.00     0.037 NA
HETATM    7  N   UNL     1     -41.779  56.138 -49.831  1.00  0.00    -0.214 N 
HETATM    8  C   UNL     1     -42.656  55.298 -50.642  1.00  0.00     0.135 C 
HETATM    9  C   UNL     1     -43.599  56.202 -51.459  1.00  0.00     0.063 C 
HETATM   10  H   UNL     1     -41.229  55.652 -49.127  1.00  0.00     0.178 HD
ENDROOT
BRANCH   1  11
HETATM   11  C   UNL     1     -43.748  58.311 -52.827  1.00  0.00    -0.030 A 
HETATM   12  C   UNL     1     -43.841  58.595 -54.202  1.00  0.00     0.046 A 
HETATM   13  C   UNL     1     -44.713  59.575 -54.683  1.00  0.00     0.068 A 
HETATM   14  C   UNL     1     -45.477  60.315 -53.782  1.00  0.00     0.037 A 
HETATM   15  C   UNL     1     -45.384  60.057 -52.412  1.00  0.00     0.003 A 
HETATM   16  C   UNL     1     -44.529  59.061 -51.937  1.00  0.00     0.009 A 
BRANCH  13  17
HETATM   17  O   UNL     1     -44.712  59.733 -56.041  1.00  0.00    -0.356 OA
HETATM   18  C   UNL     1     -45.529  60.783 -56.545  1.00  0.00     0.210 C 
ENDBRANCH  13  17
ENDBRANCH   1  11
BRANCH   8  19
HETATM   19  C   UNL     1     -41.910  54.272 -51.490  1.00  0.00    -0.035 A 
HETATM   20  C   UNL     1     -42.192  54.038 -52.848  1.00  0.00     0.010 A 
HETATM   21  C   UNL     1     -41.476  53.087 -53.583  1.00  0.00     0.019 A 
HETATM   22  C   UNL     1     -40.464  52.356 -52.970  1.00  0.00     0.011 A 
HETATM   23 BR   UNL     1     -39.497  51.071 -53.962  1.00  0.00    -0.051 Br
HETATM   24  C   UNL     1     -40.159  52.571 -51.629  1.00  0.00     0.019 A 
HETATM   25  C   UNL     1     -40.874  53.524 -50.898  1.00  0.00     0.010 A 
ENDBRANCH   8  19
BRANCH   5  26
HETATM   26  N   UNL     1     -38.978  59.665 -50.935  1.00  0.00    -0.229 N 
HETATM   27  H   UNL     1     -39.194  60.592 -50.593  1.00  0.00     0.174 HD
HETATM   28  H   UNL     1     -38.323  59.640 -51.704  1.00  0.00     0.174 HD
ENDBRANCH   5  26
TORSDOF 4
ENDMDL
