MODEL 1
REMARK VINA RESULT:      -8.3      0.000      0.000
REMARK  8 active torsions:
REMARK  status: ('A' for Active; 'I' for Inactive)
REMARK    1  A    between atoms: N_3  and  C_4 
REMARK    2  A    between atoms: C_7  and  O_8 
REMARK    3  A    between atoms: C_13  and  C_14 
REMARK    4  A    between atoms: N_15  and  N_16 
REMARK       I    between atoms: N_16  and  C_17 
REMARK    5  A    between atoms: C_17  and  C_18 
REMARK    6  A    between atoms: C_18  and  O_19 
REMARK    7  A    between atoms: C_18  and  C_20 
REMARK    8  A    between atoms: C_18  and  C_26 
ROOT
HETATM    1  N   UNL     1     -42.603  55.881 -57.830  1.00  0.00    -0.244 N 
HETATM    2  C   UNL     1     -43.528  56.900 -58.040  1.00  0.00     0.282 C 
HETATM    3  O   UNL     1     -44.289  57.351 -57.177  1.00  0.00    -0.268 OA
HETATM    4  H   UNL     1     -42.174  55.440 -58.639  1.00  0.00     0.192 HD
ENDROOT
BRANCH   1   5
HETATM    5  N   UNL     1     -42.373  55.199 -56.663  1.00  0.00    -0.184 NA
HETATM    6  C   UNL     1     -41.189  55.209 -56.140  1.00  0.00     0.152 C 
BRANCH   6   7
HETATM    7  C   UNL     1     -40.972  54.454 -54.917  1.00  0.00     0.008 A 
HETATM    8  C   UNL     1     -41.176  54.919 -53.623  1.00  0.00     0.025 A 
HETATM    9  N   UNL     1     -40.771  53.927 -52.726  1.00  0.00    -0.319 N 
HETATM   10  C   UNL     1     -41.793  56.215 -53.202  1.00  0.00     0.070 C 
HETATM   11  C   UNL     1     -40.399  52.806 -53.462  1.00  0.00     0.014 A 
HETATM   12  C   UNL     1     -39.844  51.547 -52.887  1.00  0.00     0.068 C 
HETATM   13  C   UNL     1     -40.521  53.117 -54.801  1.00  0.00     0.040 A 
BRANCH   9  14
HETATM   14  C   UNL     1     -40.706  54.056 -51.306  1.00  0.00     0.039 A 
HETATM   15  C   UNL     1     -39.463  54.026 -50.658  1.00  0.00     0.033 A 
HETATM   16  C   UNL     1     -39.394  54.129 -49.265  1.00  0.00     0.039 A 
HETATM   17  C   UNL     1     -40.566  54.266 -48.530  1.00  0.00     0.065 A 
HETATM   18  C   UNL     1     -41.804  54.301 -49.162  1.00  0.00     0.039 A 
HETATM   19  C   UNL     1     -41.878  54.195 -50.552  1.00  0.00     0.033 A 
BRANCH  17  20
HETATM   20  O   UNL     1     -40.545  54.367 -47.170  1.00  0.00    -0.361 OA
HETATM   21  H   UNL     1     -39.771  53.884 -46.835  1.00  0.00     0.217 HD
ENDBRANCH  17  20
ENDBRANCH   9  14
ENDBRANCH   6   7
ENDBRANCH   1   5
BRANCH   2  22
HETATM   22  C   UNL     1     -43.598  57.436 -59.516  1.00  0.00     0.195 C 
BRANCH  22  23
HETATM   23  O   UNL     1     -42.856  56.496 -60.328  1.00  0.00    -0.371 OA
HETATM   24  H   UNL     1     -43.533  56.035 -60.862  1.00  0.00     0.212 HD
ENDBRANCH  22  23
BRANCH  22  25
HETATM   25  C   UNL     1     -45.055  57.432 -60.014  1.00  0.00    -0.010 A 
HETATM   26  C   UNL     1     -45.729  56.239 -60.344  1.00  0.00     0.011 A 
HETATM   27  C   UNL     1     -47.031  56.264 -60.850  1.00  0.00     0.001 A 
HETATM   28  C   UNL     1     -47.685  57.479 -61.036  1.00  0.00     0.000 A 
HETATM   29  C   UNL     1     -47.039  58.670 -60.718  1.00  0.00     0.001 A 
HETATM   30  C   UNL     1     -45.735  58.648 -60.217  1.00  0.00     0.011 A 
ENDBRANCH  22  25
BRANCH  22  31
HETATM   31  C   UNL     1     -42.862  58.770 -59.724  1.00  0.00    -0.010 A 
HETATM   32  C   UNL     1     -42.607  59.680 -58.682  1.00  0.00     0.011 A 
HETATM   33  C   UNL     1     -41.939  60.883 -58.927  1.00  0.00     0.001 A 
HETATM   34  C   UNL     1     -41.509  61.200 -60.214  1.00  0.00     0.000 A 
HETATM   35  C   UNL     1     -41.735  60.310 -61.258  1.00  0.00     0.001 A 
HETATM   36  C   UNL     1     -42.398  59.106 -61.013  1.00  0.00     0.011 A 
ENDBRANCH  22  31
ENDBRANCH   2  22
TORSDOF 8
ENDMDL
MODEL 2
REMARK VINA RESULT:      -8.1      2.637     10.408
REMARK  8 active torsions:
REMARK  status: ('A' for Active; 'I' for Inactive)
REMARK    1  A    between atoms: N_3  and  C_4 
REMARK    2  A    between atoms: C_7  and  O_8 
REMARK    3  A    between atoms: C_13  and  C_14 
REMARK    4  A    between atoms: N_15  and  N_16 
REMARK       I    between atoms: N_16  and  C_17 
REMARK    5  A    between atoms: C_17  and  C_18 
REMARK    6  A    between atoms: C_18  and  O_19 
REMARK    7  A    between atoms: C_18  and  C_20 
REMARK    8  A    between atoms: C_18  and  C_26 
ROOT
HETATM    1  N   UNL     1     -42.078  54.777 -55.664  1.00  0.00    -0.244 N 
HETATM    2  C   UNL     1     -42.347  54.337 -54.371  1.00  0.00     0.282 C 
HETATM    3  O   UNL     1     -43.478  54.199 -53.893  1.00  0.00    -0.268 OA
HETATM    4  H   UNL     1     -41.128  55.054 -55.895  1.00  0.00     0.192 HD
ENDROOT
BRANCH   1   5
HETATM    5  N   UNL     1     -42.989  55.138 -56.622  1.00  0.00    -0.184 NA
HETATM    6  C   UNL     1     -42.817  56.234 -57.287  1.00  0.00     0.152 C 
BRANCH   6   7
HETATM    7  C   UNL     1     -43.817  56.602 -58.277  1.00  0.00     0.008 A 
HETATM    8  C   UNL     1     -44.354  57.871 -58.461  1.00  0.00     0.025 A 
HETATM    9  N   UNL     1     -45.343  57.795 -59.446  1.00  0.00    -0.319 N 
HETATM   10  C   UNL     1     -43.932  59.148 -57.808  1.00  0.00     0.070 C 
HETATM   11  C   UNL     1     -45.361  56.494 -59.940  1.00  0.00     0.014 A 
HETATM   12  C   UNL     1     -46.316  55.976 -60.962  1.00  0.00     0.068 C 
HETATM   13  C   UNL     1     -44.430  55.759 -59.235  1.00  0.00     0.040 A 
BRANCH   9  14
HETATM   14  C   UNL     1     -46.215  58.853 -59.842  1.00  0.00     0.039 A 
HETATM   15  C   UNL     1     -45.869  59.674 -60.926  1.00  0.00     0.033 A 
HETATM   16  C   UNL     1     -46.707  60.726 -61.306  1.00  0.00     0.039 A 
HETATM   17  C   UNL     1     -47.887  60.949 -60.605  1.00  0.00     0.065 A 
HETATM   18  C   UNL     1     -48.243  60.140 -59.532  1.00  0.00     0.039 A 
HETATM   19  C   UNL     1     -47.407  59.089 -59.146  1.00  0.00     0.033 A 
BRANCH  17  20
HETATM   20  O   UNL     1     -48.732  61.965 -60.940  1.00  0.00    -0.361 OA
HETATM   21  H   UNL     1     -48.229  62.796 -60.952  1.00  0.00     0.217 HD
ENDBRANCH  17  20
ENDBRANCH   9  14
ENDBRANCH   6   7
ENDBRANCH   1   5
BRANCH   2  22
HETATM   22  C   UNL     1     -41.076  54.063 -53.487  1.00  0.00     0.195 C 
BRANCH  22  23
HETATM   23  O   UNL     1     -39.978  54.757 -54.125  1.00  0.00    -0.371 OA
HETATM   24  H   UNL     1     -39.322  54.061 -54.327  1.00  0.00     0.212 HD
ENDBRANCH  22  23
BRANCH  22  25
HETATM   25  C   UNL     1     -41.261  54.674 -52.086  1.00  0.00    -0.010 A 
HETATM   26  C   UNL     1     -41.066  56.047 -51.837  1.00  0.00     0.011 A 
HETATM   27  C   UNL     1     -41.182  56.568 -50.546  1.00  0.00     0.001 A 
HETATM   28  C   UNL     1     -41.496  55.730 -49.480  1.00  0.00     0.000 A 
HETATM   29  C   UNL     1     -41.693  54.370 -49.701  1.00  0.00     0.001 A 
HETATM   30  C   UNL     1     -41.571  53.846 -50.990  1.00  0.00     0.011 A 
ENDBRANCH  22  25
BRANCH  22  31
HETATM   31  C   UNL     1     -40.633  52.590 -53.482  1.00  0.00    -0.010 A 
HETATM   32  C   UNL     1     -41.004  51.671 -54.479  1.00  0.00     0.011 A 
HETATM   33  C   UNL     1     -40.578  50.340 -54.422  1.00  0.00     0.001 A 
HETATM   34  C   UNL     1     -39.773  49.903 -53.374  1.00  0.00     0.000 A 
HETATM   35  C   UNL     1     -39.378  50.797 -52.385  1.00  0.00     0.001 A 
HETATM   36  C   UNL     1     -39.799  52.127 -52.442  1.00  0.00     0.011 A 
ENDBRANCH  22  31
ENDBRANCH   2  22
TORSDOF 8
ENDMDL
MODEL 3
REMARK VINA RESULT:      -8.0      1.678      2.726
REMARK  8 active torsions:
REMARK  status: ('A' for Active; 'I' for Inactive)
REMARK    1  A    between atoms: N_3  and  C_4 
REMARK    2  A    between atoms: C_7  and  O_8 
REMARK    3  A    between atoms: C_13  and  C_14 
REMARK    4  A    between atoms: N_15  and  N_16 
REMARK       I    between atoms: N_16  and  C_17 
REMARK    5  A    between atoms: C_17  and  C_18 
REMARK    6  A    between atoms: C_18  and  O_19 
REMARK    7  A    between atoms: C_18  and  C_20 
REMARK    8  A    between atoms: C_18  and  C_26 
ROOT
HETATM    1  N   UNL     1     -42.980  56.347 -58.033  1.00  0.00    -0.244 N 
HETATM    2  C   UNL     1     -43.923  57.336 -58.306  1.00  0.00     0.282 C 
HETATM    3  O   UNL     1     -44.808  57.701 -57.525  1.00  0.00    -0.268 OA
HETATM    4  H   UNL     1     -42.431  55.976 -58.803  1.00  0.00     0.192 HD
ENDROOT
BRANCH   1   5
HETATM    5  N   UNL     1     -42.865  55.608 -56.885  1.00  0.00    -0.184 NA
HETATM    6  C   UNL     1     -42.417  56.167 -55.807  1.00  0.00     0.152 C 
BRANCH   6   7
HETATM    7  C   UNL     1     -42.280  55.348 -54.614  1.00  0.00     0.008 A 
HETATM    8  C   UNL     1     -41.277  54.416 -54.374  1.00  0.00     0.025 A 
HETATM    9  N   UNL     1     -41.545  53.777 -53.161  1.00  0.00    -0.319 N 
HETATM   10  C   UNL     1     -40.054  54.155 -55.195  1.00  0.00     0.070 C 
HETATM   11  C   UNL     1     -42.670  54.374 -52.599  1.00  0.00     0.014 A 
HETATM   12  C   UNL     1     -43.326  53.944 -51.330  1.00  0.00     0.068 C 
HETATM   13  C   UNL     1     -43.124  55.337 -53.477  1.00  0.00     0.040 A 
BRANCH   9  14
HETATM   14  C   UNL     1     -40.822  52.674 -52.615  1.00  0.00     0.039 A 
HETATM   15  C   UNL     1     -40.448  51.606 -53.444  1.00  0.00     0.033 A 
HETATM   16  C   UNL     1     -39.758  50.512 -52.912  1.00  0.00     0.039 A 
HETATM   17  C   UNL     1     -39.443  50.494 -51.557  1.00  0.00     0.065 A 
HETATM   18  C   UNL     1     -39.805  51.549 -50.728  1.00  0.00     0.039 A 
HETATM   19  C   UNL     1     -40.497  52.643 -51.254  1.00  0.00     0.033 A 
BRANCH  17  20
HETATM   20  O   UNL     1     -38.774  49.447 -50.996  1.00  0.00    -0.361 OA
HETATM   21  H   UNL     1     -38.086  49.799 -50.407  1.00  0.00     0.217 HD
ENDBRANCH  17  20
ENDBRANCH   9  14
ENDBRANCH   6   7
ENDBRANCH   1   5
BRANCH   2  22
HETATM   22  C   UNL     1     -43.833  57.956 -59.747  1.00  0.00     0.195 C 
BRANCH  22  23
HETATM   23  O   UNL     1     -43.145  56.984 -60.568  1.00  0.00    -0.371 OA
HETATM   24  H   UNL     1     -42.916  57.463 -61.389  1.00  0.00     0.212 HD
ENDBRANCH  22  23
BRANCH  22  25
HETATM   25  C   UNL     1     -45.245  58.143 -60.334  1.00  0.00    -0.010 A 
HETATM   26  C   UNL     1     -45.778  59.418 -60.608  1.00  0.00     0.011 A 
HETATM   27  C   UNL     1     -47.083  59.565 -61.085  1.00  0.00     0.001 A 
HETATM   28  C   UNL     1     -47.880  58.444 -61.296  1.00  0.00     0.000 A 
HETATM   29  C   UNL     1     -47.376  57.174 -61.031  1.00  0.00     0.001 A 
HETATM   30  C   UNL     1     -46.073  57.025 -60.549  1.00  0.00     0.011 A 
ENDBRANCH  22  25
BRANCH  22  31
HETATM   31  C   UNL     1     -42.944  59.208 -59.827  1.00  0.00    -0.010 A 
HETATM   32  C   UNL     1     -42.408  59.696 -61.032  1.00  0.00     0.011 A 
HETATM   33  C   UNL     1     -41.599  60.837 -61.046  1.00  0.00     0.001 A 
HETATM   34  C   UNL     1     -41.314  61.514 -59.863  1.00  0.00     0.000 A 
HETATM   35  C   UNL     1     -41.847  61.060 -58.661  1.00  0.00     0.001 A 
HETATM   36  C   UNL     1     -42.658  59.924 -58.645  1.00  0.00     0.011 A 
ENDBRANCH  22  31
ENDBRANCH   2  22
TORSDOF 8
ENDMDL
MODEL 4
REMARK VINA RESULT:      -7.9      2.706     10.289
REMARK  8 active torsions:
REMARK  status: ('A' for Active; 'I' for Inactive)
REMARK    1  A    between atoms: N_3  and  C_4 
REMARK    2  A    between atoms: C_7  and  O_8 
REMARK    3  A    between atoms: C_13  and  C_14 
REMARK    4  A    between atoms: N_15  and  N_16 
REMARK       I    between atoms: N_16  and  C_17 
REMARK    5  A    between atoms: C_17  and  C_18 
REMARK    6  A    between atoms: C_18  and  O_19 
REMARK    7  A    between atoms: C_18  and  C_20 
REMARK    8  A    between atoms: C_18  and  C_26 
ROOT
HETATM    1  N   UNL     1     -43.028  56.638 -54.672  1.00  0.00    -0.244 N 
HETATM    2  C   UNL     1     -43.427  55.518 -53.949  1.00  0.00     0.282 C 
HETATM    3  O   UNL     1     -44.188  54.640 -54.371  1.00  0.00    -0.268 OA
HETATM    4  H   UNL     1     -42.574  57.400 -54.175  1.00  0.00     0.192 HD
ENDROOT
BRANCH   1   5
HETATM    5  N   UNL     1     -43.397  56.975 -55.948  1.00  0.00    -0.184 NA
HETATM    6  C   UNL     1     -44.162  58.000 -56.144  1.00  0.00     0.152 C 
BRANCH   6   7
HETATM    7  C   UNL     1     -44.557  58.313 -57.507  1.00  0.00     0.008 A 
HETATM    8  C   UNL     1     -45.811  58.092 -58.065  1.00  0.00     0.025 A 
HETATM    9  N   UNL     1     -45.764  58.444 -59.416  1.00  0.00    -0.319 N 
HETATM   10  C   UNL     1     -47.054  57.636 -57.370  1.00  0.00     0.070 C 
HETATM   11  C   UNL     1     -44.503  58.970 -59.681  1.00  0.00     0.014 A 
HETATM   12  C   UNL     1     -44.020  59.409 -61.023  1.00  0.00     0.068 C 
HETATM   13  C   UNL     1     -43.760  58.898 -58.521  1.00  0.00     0.040 A 
BRANCH   9  14
HETATM   14  C   UNL     1     -46.809  58.254 -60.370  1.00  0.00     0.039 A 
HETATM   15  C   UNL     1     -47.614  59.338 -60.749  1.00  0.00     0.033 A 
HETATM   16  C   UNL     1     -48.654  59.154 -61.665  1.00  0.00     0.039 A 
HETATM   17  C   UNL     1     -48.880  57.890 -62.200  1.00  0.00     0.065 A 
HETATM   18  C   UNL     1     -48.086  56.810 -61.835  1.00  0.00     0.039 A 
HETATM   19  C   UNL     1     -47.048  56.987 -60.917  1.00  0.00     0.033 A 
BRANCH  17  20
HETATM   20  O   UNL     1     -49.884  57.666 -63.094  1.00  0.00    -0.361 OA
HETATM   21  H   UNL     1     -49.831  58.338 -63.795  1.00  0.00     0.217 HD
ENDBRANCH  17  20
ENDBRANCH   9  14
ENDBRANCH   6   7
ENDBRANCH   1   5
BRANCH   2  22
HETATM   22  C   UNL     1     -42.880  55.450 -52.477  1.00  0.00     0.195 C 
BRANCH  22  23
HETATM   23  O   UNL     1     -44.010  55.122 -51.635  1.00  0.00    -0.371 OA
HETATM   24  H   UNL     1     -44.304  55.977 -51.262  1.00  0.00     0.212 HD
ENDBRANCH  22  23
BRANCH  22  25
HETATM   25  C   UNL     1     -41.855  54.308 -52.343  1.00  0.00    -0.010 A 
HETATM   26  C   UNL     1     -41.489  53.775 -51.092  1.00  0.00     0.011 A 
HETATM   27  C   UNL     1     -40.513  52.780 -50.991  1.00  0.00     0.001 A 
HETATM   28  C   UNL     1     -39.885  52.299 -52.136  1.00  0.00     0.000 A 
HETATM   29  C   UNL     1     -40.229  52.812 -53.384  1.00  0.00     0.001 A 
HETATM   30  C   UNL     1     -41.200  53.811 -53.486  1.00  0.00     0.011 A 
ENDBRANCH  22  25
BRANCH  22  31
HETATM   31  C   UNL     1     -42.393  56.804 -51.936  1.00  0.00    -0.010 A 
HETATM   32  C   UNL     1     -41.033  57.151 -51.839  1.00  0.00     0.011 A 
HETATM   33  C   UNL     1     -40.644  58.395 -51.333  1.00  0.00     0.001 A 
HETATM   34  C   UNL     1     -41.602  59.318 -50.920  1.00  0.00     0.000 A 
HETATM   35  C   UNL     1     -42.953  59.005 -51.021  1.00  0.00     0.001 A 
HETATM   36  C   UNL     1     -43.343  57.765 -51.530  1.00  0.00     0.011 A 
ENDBRANCH  22  31
ENDBRANCH   2  22
TORSDOF 8
ENDMDL
MODEL 5
REMARK VINA RESULT:      -7.8      2.753     10.414
REMARK  8 active torsions:
REMARK  status: ('A' for Active; 'I' for Inactive)
REMARK    1  A    between atoms: N_3  and  C_4 
REMARK    2  A    between atoms: C_7  and  O_8 
REMARK    3  A    between atoms: C_13  and  C_14 
REMARK    4  A    between atoms: N_15  and  N_16 
REMARK       I    between atoms: N_16  and  C_17 
REMARK    5  A    between atoms: C_17  and  C_18 
REMARK    6  A    between atoms: C_18  and  O_19 
REMARK    7  A    between atoms: C_18  and  C_20 
REMARK    8  A    between atoms: C_18  and  C_26 
ROOT
HETATM    1  N   UNL     1     -42.095  55.767 -56.380  1.00  0.00    -0.244 N 
HETATM    2  C   UNL     1     -42.221  54.913 -55.288  1.00  0.00     0.282 C 
HETATM    3  O   UNL     1     -43.213  54.216 -55.048  1.00  0.00    -0.268 OA
HETATM    4  H   UNL     1     -41.339  56.446 -56.381  1.00  0.00     0.192 HD
ENDROOT
BRANCH   1   5
HETATM    5  N   UNL     1     -43.022  55.996 -57.363  1.00  0.00    -0.184 NA
HETATM    6  C   UNL     1     -43.565  57.166 -57.470  1.00  0.00     0.152 C 
BRANCH   6   7
HETATM    7  C   UNL     1     -44.564  57.368 -58.506  1.00  0.00     0.008 A 
HETATM    8  C   UNL     1     -45.086  58.592 -58.910  1.00  0.00     0.025 A 
HETATM    9  N   UNL     1     -46.081  58.358 -59.862  1.00  0.00    -0.319 N 
HETATM   10  C   UNL     1     -44.643  59.958 -58.493  1.00  0.00     0.070 C 
HETATM   11  C   UNL     1     -46.119  56.991 -60.120  1.00  0.00     0.014 A 
HETATM   12  C   UNL     1     -47.086  56.315 -61.031  1.00  0.00     0.068 C 
HETATM   13  C   UNL     1     -45.194  56.378 -59.299  1.00  0.00     0.040 A 
BRANCH   9  14
HETATM   14  C   UNL     1     -46.941  59.342 -60.436  1.00  0.00     0.039 A 
HETATM   15  C   UNL     1     -46.597  59.943 -61.656  1.00  0.00     0.033 A 
HETATM   16  C   UNL     1     -47.423  60.924 -62.213  1.00  0.00     0.039 A 
HETATM   17  C   UNL     1     -48.588  61.295 -61.552  1.00  0.00     0.065 A 
HETATM   18  C   UNL     1     -48.942  60.702 -60.345  1.00  0.00     0.039 A 
HETATM   19  C   UNL     1     -48.118  59.724 -59.782  1.00  0.00     0.033 A 
BRANCH  17  20
HETATM   20  O   UNL     1     -49.421  62.248 -62.058  1.00  0.00    -0.361 OA
HETATM   21  H   UNL     1     -50.019  61.828 -62.699  1.00  0.00     0.217 HD
ENDBRANCH  17  20
ENDBRANCH   9  14
ENDBRANCH   6   7
ENDBRANCH   1   5
BRANCH   2  22
HETATM   22  C   UNL     1     -41.001  54.921 -54.297  1.00  0.00     0.195 C 
BRANCH  22  23
HETATM   23  O   UNL     1     -39.863  55.393 -55.055  1.00  0.00    -0.371 OA
HETATM   24  H   UNL     1     -40.221  56.086 -55.644  1.00  0.00     0.212 HD
ENDBRANCH  22  23
BRANCH  22  25
HETATM   25  C   UNL     1     -41.249  55.928 -53.157  1.00  0.00    -0.010 A 
HETATM   26  C   UNL     1     -40.689  57.221 -53.167  1.00  0.00     0.011 A 
HETATM   27  C   UNL     1     -40.880  58.095 -52.094  1.00  0.00     0.001 A 
HETATM   28  C   UNL     1     -41.632  57.696 -50.993  1.00  0.00     0.000 A 
HETATM   29  C   UNL     1     -42.195  56.423 -50.961  1.00  0.00     0.001 A 
HETATM   30  C   UNL     1     -42.000  55.545 -52.029  1.00  0.00     0.011 A 
ENDBRANCH  22  25
BRANCH  22  31
HETATM   31  C   UNL     1     -40.580  53.521 -53.823  1.00  0.00    -0.010 A 
HETATM   32  C   UNL     1     -40.197  53.238 -52.500  1.00  0.00     0.011 A 
HETATM   33  C   UNL     1     -39.816  51.946 -52.124  1.00  0.00     0.001 A 
HETATM   34  C   UNL     1     -39.814  50.912 -53.058  1.00  0.00     0.000 A 
HETATM   35  C   UNL     1     -40.205  51.163 -54.369  1.00  0.00     0.001 A 
HETATM   36  C   UNL     1     -40.589  52.452 -54.745  1.00  0.00     0.011 A 
ENDBRANCH  22  31
ENDBRANCH   2  22
TORSDOF 8
ENDMDL
MODEL 6
REMARK VINA RESULT:      -7.7      1.729      4.263
REMARK  8 active torsions:
REMARK  status: ('A' for Active; 'I' for Inactive)
REMARK    1  A    between atoms: N_3  and  C_4 
REMARK    2  A    between atoms: C_7  and  O_8 
REMARK    3  A    between atoms: C_13  and  C_14 
REMARK    4  A    between atoms: N_15  and  N_16 
REMARK       I    between atoms: N_16  and  C_17 
REMARK    5  A    between atoms: C_17  and  C_18 
REMARK    6  A    between atoms: C_18  and  O_19 
REMARK    7  A    between atoms: C_18  and  C_20 
REMARK    8  A    between atoms: C_18  and  C_26 
ROOT
HETATM    1  N   UNL     1     -43.956  57.183 -56.066  1.00  0.00    -0.244 N 
HETATM    2  C   UNL     1     -43.482  57.229 -57.375  1.00  0.00     0.282 C 
HETATM    3  O   UNL     1     -42.494  56.612 -57.789  1.00  0.00    -0.268 OA
HETATM    4  H   UNL     1     -44.639  57.875 -55.774  1.00  0.00     0.192 HD
ENDROOT
BRANCH   1   5
HETATM    5  N   UNL     1     -43.430  56.473 -55.019  1.00  0.00    -0.184 NA
HETATM    6  C   UNL     1     -42.264  56.788 -54.555  1.00  0.00     0.152 C 
BRANCH   6   7
HETATM    7  C   UNL     1     -41.722  55.997 -53.462  1.00  0.00     0.008 A 
HETATM    8  C   UNL     1     -41.222  54.703 -53.560  1.00  0.00     0.025 A 
HETATM    9  N   UNL     1     -40.881  54.261 -52.279  1.00  0.00    -0.319 N 
HETATM   10  C   UNL     1     -40.988  53.904 -54.802  1.00  0.00     0.070 C 
HETATM   11  C   UNL     1     -41.086  55.313 -51.391  1.00  0.00     0.014 A 
HETATM   12  C   UNL     1     -40.902  55.237 -49.913  1.00  0.00     0.068 C 
HETATM   13  C   UNL     1     -41.596  56.378 -52.104  1.00  0.00     0.040 A 
BRANCH   9  14
HETATM   14  C   UNL     1     -40.445  52.947 -51.934  1.00  0.00     0.039 A 
HETATM   15  C   UNL     1     -40.673  52.452 -50.642  1.00  0.00     0.033 A 
HETATM   16  C   UNL     1     -40.228  51.174 -50.290  1.00  0.00     0.039 A 
HETATM   17  C   UNL     1     -39.562  50.397 -51.232  1.00  0.00     0.065 A 
HETATM   18  C   UNL     1     -39.334  50.876 -52.517  1.00  0.00     0.039 A 
HETATM   19  C   UNL     1     -39.774  52.153 -52.872  1.00  0.00     0.033 A 
BRANCH  17  20
HETATM   20  O   UNL     1     -39.110  49.147 -50.931  1.00  0.00    -0.361 OA
HETATM   21  H   UNL     1     -39.373  48.542 -51.644  1.00  0.00     0.217 HD
ENDBRANCH  17  20
ENDBRANCH   9  14
ENDBRANCH   6   7
ENDBRANCH   1   5
BRANCH   2  22
HETATM   22  C   UNL     1     -44.271  58.194 -58.331  1.00  0.00     0.195 C 
BRANCH  22  23
HETATM   23  O   UNL     1     -45.126  58.999 -57.485  1.00  0.00    -0.371 OA
HETATM   24  H   UNL     1     -45.715  58.358 -57.039  1.00  0.00     0.212 HD
ENDBRANCH  22  23
BRANCH  22  25
HETATM   25  C   UNL     1     -43.295  59.148 -59.047  1.00  0.00    -0.010 A 
HETATM   26  C   UNL     1     -42.720  60.256 -58.394  1.00  0.00     0.011 A 
HETATM   27  C   UNL     1     -41.884  61.140 -59.080  1.00  0.00     0.001 A 
HETATM   28  C   UNL     1     -41.607  60.936 -60.429  1.00  0.00     0.000 A 
HETATM   29  C   UNL     1     -42.164  59.848 -61.095  1.00  0.00     0.001 A 
HETATM   30  C   UNL     1     -43.005  58.966 -60.412  1.00  0.00     0.011 A 
ENDBRANCH  22  25
BRANCH  22  31
HETATM   31  C   UNL     1     -45.250  57.470 -59.270  1.00  0.00    -0.010 A 
HETATM   32  C   UNL     1     -45.040  56.161 -59.740  1.00  0.00     0.011 A 
HETATM   33  C   UNL     1     -45.961  55.551 -60.598  1.00  0.00     0.001 A 
HETATM   34  C   UNL     1     -47.108  56.232 -61.000  1.00  0.00     0.000 A 
HETATM   35  C   UNL     1     -47.346  57.520 -60.535  1.00  0.00     0.001 A 
HETATM   36  C   UNL     1     -46.430  58.129 -59.675  1.00  0.00     0.011 A 
ENDBRANCH  22  31
ENDBRANCH   2  22
TORSDOF 8
ENDMDL
MODEL 7
REMARK VINA RESULT:      -7.6      1.184      3.522
REMARK  8 active torsions:
REMARK  status: ('A' for Active; 'I' for Inactive)
REMARK    1  A    between atoms: N_3  and  C_4 
REMARK    2  A    between atoms: C_7  and  O_8 
REMARK    3  A    between atoms: C_13  and  C_14 
REMARK    4  A    between atoms: N_15  and  N_16 
REMARK       I    between atoms: N_16  and  C_17 
REMARK    5  A    between atoms: C_17  and  C_18 
REMARK    6  A    between atoms: C_18  and  O_19 
REMARK    7  A    between atoms: C_18  and  C_20 
REMARK    8  A    between atoms: C_18  and  C_26 
ROOT
HETATM    1  N   UNL     1     -43.452  57.356 -56.710  1.00  0.00    -0.244 N 
HETATM    2  C   UNL     1     -43.111  57.575 -58.043  1.00  0.00     0.282 C 
HETATM    3  O   UNL     1     -42.110  57.112 -58.600  1.00  0.00    -0.268 OA
HETATM    4  H   UNL     1     -44.171  57.940 -56.292  1.00  0.00     0.192 HD
ENDROOT
BRANCH   1   5
HETATM    5  N   UNL     1     -42.759  56.614 -55.790  1.00  0.00    -0.184 NA
HETATM    6  C   UNL     1     -43.082  55.377 -55.593  1.00  0.00     0.152 C 
BRANCH   6   7
HETATM    7  C   UNL     1     -42.345  54.626 -54.589  1.00  0.00     0.008 A 
HETATM    8  C   UNL     1     -42.393  54.835 -53.215  1.00  0.00     0.025 A 
HETATM    9  N   UNL     1     -41.479  53.972 -52.604  1.00  0.00    -0.319 N 
HETATM   10  C   UNL     1     -43.301  55.752 -52.459  1.00  0.00     0.070 C 
HETATM   11  C   UNL     1     -40.927  53.160 -53.589  1.00  0.00     0.014 A 
HETATM   12  C   UNL     1     -39.860  52.142 -53.365  1.00  0.00     0.068 C 
HETATM   13  C   UNL     1     -41.452  53.549 -54.805  1.00  0.00     0.040 A 
BRANCH   9  14
HETATM   14  C   UNL     1     -41.139  53.957 -51.218  1.00  0.00     0.039 A 
HETATM   15  C   UNL     1     -40.962  55.166 -50.529  1.00  0.00     0.033 A 
HETATM   16  C   UNL     1     -40.607  55.159 -49.177  1.00  0.00     0.039 A 
HETATM   17  C   UNL     1     -40.433  53.945 -48.521  1.00  0.00     0.065 A 
HETATM   18  C   UNL     1     -40.610  52.741 -49.192  1.00  0.00     0.039 A 
HETATM   19  C   UNL     1     -40.962  52.743 -50.544  1.00  0.00     0.033 A 
BRANCH  17  20
HETATM   20  O   UNL     1     -40.084  53.891 -47.204  1.00  0.00    -0.361 OA
HETATM   21  H   UNL     1     -39.207  53.479 -47.132  1.00  0.00     0.217 HD
ENDBRANCH  17  20
ENDBRANCH   9  14
ENDBRANCH   6   7
ENDBRANCH   1   5
BRANCH   2  22
HETATM   22  C   UNL     1     -44.081  58.533 -58.825  1.00  0.00     0.195 C 
BRANCH  22  23
HETATM   23  O   UNL     1     -44.815  59.277 -57.825  1.00  0.00    -0.371 OA
HETATM   24  H   UNL     1     -45.753  59.044 -57.975  1.00  0.00     0.212 HD
ENDBRANCH  22  23
BRANCH  22  25
HETATM   25  C   UNL     1     -43.271  59.546 -59.656  1.00  0.00    -0.010 A 
HETATM   26  C   UNL     1     -43.168  59.450 -61.058  1.00  0.00     0.011 A 
HETATM   27  C   UNL     1     -42.380  60.346 -61.785  1.00  0.00     0.001 A 
HETATM   28  C   UNL     1     -41.679  61.353 -61.127  1.00  0.00     0.000 A 
HETATM   29  C   UNL     1     -41.765  61.467 -59.742  1.00  0.00     0.001 A 
HETATM   30  C   UNL     1     -42.548  60.568 -59.013  1.00  0.00     0.011 A 
ENDBRANCH  22  25
BRANCH  22  31
HETATM   31  C   UNL     1     -45.172  57.794 -59.617  1.00  0.00    -0.010 A 
HETATM   32  C   UNL     1     -45.074  56.441 -59.986  1.00  0.00     0.011 A 
HETATM   33  C   UNL     1     -46.094  55.819 -60.712  1.00  0.00     0.001 A 
HETATM   34  C   UNL     1     -47.231  56.532 -61.081  1.00  0.00     0.000 A 
HETATM   35  C   UNL     1     -47.360  57.868 -60.714  1.00  0.00     0.001 A 
HETATM   36  C   UNL     1     -46.344  58.489 -59.985  1.00  0.00     0.011 A 
ENDBRANCH  22  31
ENDBRANCH   2  22
TORSDOF 8
ENDMDL
MODEL 8
REMARK VINA RESULT:      -7.6      6.645      9.797
REMARK  8 active torsions:
REMARK  status: ('A' for Active; 'I' for Inactive)
REMARK    1  A    between atoms: N_3  and  C_4 
REMARK    2  A    between atoms: C_7  and  O_8 
REMARK    3  A    between atoms: C_13  and  C_14 
REMARK    4  A    between atoms: N_15  and  N_16 
REMARK       I    between atoms: N_16  and  C_17 
REMARK    5  A    between atoms: C_17  and  C_18 
REMARK    6  A    between atoms: C_18  and  O_19 
REMARK    7  A    between atoms: C_18  and  C_20 
REMARK    8  A    between atoms: C_18  and  C_26 
ROOT
HETATM    1  N   UNL     1     -44.761  60.231 -50.085  1.00  0.00    -0.244 N 
HETATM    2  C   UNL     1     -45.509  60.433 -48.927  1.00  0.00     0.282 C 
HETATM    3  O   UNL     1     -46.118  59.547 -48.318  1.00  0.00    -0.268 OA
HETATM    4  H   UNL     1     -44.472  61.044 -50.623  1.00  0.00     0.192 HD
ENDROOT
BRANCH   1   5
HETATM    5  N   UNL     1     -44.572  59.050 -50.753  1.00  0.00    -0.184 NA
HETATM    6  C   UNL     1     -43.450  58.832 -51.361  1.00  0.00     0.152 C 
BRANCH   6   7
HETATM    7  C   UNL     1     -43.292  57.581 -52.083  1.00  0.00     0.008 A 
HETATM    8  C   UNL     1     -42.305  56.628 -51.858  1.00  0.00     0.025 A 
HETATM    9  N   UNL     1     -42.439  55.616 -52.813  1.00  0.00    -0.319 N 
HETATM   10  C   UNL     1     -41.298  56.596 -50.753  1.00  0.00     0.070 C 
HETATM   11  C   UNL     1     -43.567  55.893 -53.579  1.00  0.00     0.014 A 
HETATM   12  C   UNL     1     -44.029  55.091 -54.748  1.00  0.00     0.068 C 
HETATM   13  C   UNL     1     -44.097  57.089 -53.139  1.00  0.00     0.040 A 
BRANCH   9  14
HETATM   14  C   UNL     1     -41.549  54.517 -53.000  1.00  0.00     0.039 A 
HETATM   15  C   UNL     1     -40.891  54.352 -54.228  1.00  0.00     0.033 A 
HETATM   16  C   UNL     1     -40.034  53.265 -54.426  1.00  0.00     0.039 A 
HETATM   17  C   UNL     1     -39.838  52.351 -53.395  1.00  0.00     0.065 A 
HETATM   18  C   UNL     1     -40.481  52.507 -52.173  1.00  0.00     0.039 A 
HETATM   19  C   UNL     1     -41.340  53.590 -51.972  1.00  0.00     0.033 A 
BRANCH  17  20
HETATM   20  O   UNL     1     -39.014  51.276 -53.546  1.00  0.00    -0.361 OA
HETATM   21  H   UNL     1     -38.386  51.464 -54.264  1.00  0.00     0.217 HD
ENDBRANCH  17  20
ENDBRANCH   9  14
ENDBRANCH   6   7
ENDBRANCH   1   5
BRANCH   2  22
HETATM   22  C   UNL     1     -45.587  61.926 -48.441  1.00  0.00     0.195 C 
BRANCH  22  23
HETATM   23  O   UNL     1     -46.980  62.309 -48.523  1.00  0.00    -0.371 OA
HETATM   24  H   UNL     1     -46.991  63.266 -48.323  1.00  0.00     0.212 HD
ENDBRANCH  22  23
BRANCH  22  25
HETATM   25  C   UNL     1     -45.164  62.026 -46.963  1.00  0.00    -0.010 A 
HETATM   26  C   UNL     1     -44.631  60.926 -46.262  1.00  0.00     0.011 A 
HETATM   27  C   UNL     1     -44.309  61.024 -44.906  1.00  0.00     0.001 A 
HETATM   28  C   UNL     1     -44.513  62.222 -44.225  1.00  0.00     0.000 A 
HETATM   29  C   UNL     1     -45.038  63.322 -44.897  1.00  0.00     0.001 A 
HETATM   30  C   UNL     1     -45.366  63.223 -46.251  1.00  0.00     0.011 A 
ENDBRANCH  22  25
BRANCH  22  31
HETATM   31  C   UNL     1     -44.872  62.917 -49.373  1.00  0.00    -0.010 A 
HETATM   32  C   UNL     1     -43.490  63.171 -49.313  1.00  0.00     0.011 A 
HETATM   33  C   UNL     1     -42.891  64.089 -50.181  1.00  0.00     0.001 A 
HETATM   34  C   UNL     1     -43.656  64.766 -51.127  1.00  0.00     0.000 A 
HETATM   35  C   UNL     1     -45.021  64.521 -51.217  1.00  0.00     0.001 A 
HETATM   36  C   UNL     1     -45.621  63.601 -50.354  1.00  0.00     0.011 A 
ENDBRANCH  22  31
ENDBRANCH   2  22
TORSDOF 8
ENDMDL
MODEL 9
REMARK VINA RESULT:      -7.6      7.013      9.949
REMARK  8 active torsions:
REMARK  status: ('A' for Active; 'I' for Inactive)
REMARK    1  A    between atoms: N_3  and  C_4 
REMARK    2  A    between atoms: C_7  and  O_8 
REMARK    3  A    between atoms: C_13  and  C_14 
REMARK    4  A    between atoms: N_15  and  N_16 
REMARK       I    between atoms: N_16  and  C_17 
REMARK    5  A    between atoms: C_17  and  C_18 
REMARK    6  A    between atoms: C_18  and  O_19 
REMARK    7  A    between atoms: C_18  and  C_20 
REMARK    8  A    between atoms: C_18  and  C_26 
ROOT
HETATM    1  N   UNL     1     -44.524  60.316 -50.084  1.00  0.00    -0.244 N 
HETATM    2  C   UNL     1     -45.346  60.563 -48.988  1.00  0.00     0.282 C 
HETATM    3  O   UNL     1     -46.084  59.725 -48.457  1.00  0.00    -0.268 OA
HETATM    4  H   UNL     1     -44.117  61.108 -50.573  1.00  0.00     0.192 HD
ENDROOT
BRANCH   1   5
HETATM    5  N   UNL     1     -44.385  59.136 -50.767  1.00  0.00    -0.184 NA
HETATM    6  C   UNL     1     -43.232  58.813 -51.257  1.00  0.00     0.152 C 
BRANCH   6   7
HETATM    7  C   UNL     1     -43.126  57.567 -51.999  1.00  0.00     0.008 A 
HETATM    8  C   UNL     1     -42.149  56.593 -51.824  1.00  0.00     0.025 A 
HETATM    9  N   UNL     1     -42.339  55.596 -52.784  1.00  0.00    -0.319 N 
HETATM   10  C   UNL     1     -41.100  56.529 -50.759  1.00  0.00     0.070 C 
HETATM   11  C   UNL     1     -43.491  55.902 -53.502  1.00  0.00     0.014 A 
HETATM   12  C   UNL     1     -44.013  55.123 -54.662  1.00  0.00     0.068 C 
HETATM   13  C   UNL     1     -43.981  57.103 -53.028  1.00  0.00     0.040 A 
BRANCH   9  14
HETATM   14  C   UNL     1     -41.478  54.482 -53.018  1.00  0.00     0.039 A 
HETATM   15  C   UNL     1     -40.845  54.338 -54.261  1.00  0.00     0.033 A 
HETATM   16  C   UNL     1     -40.018  53.238 -54.505  1.00  0.00     0.039 A 
HETATM   17  C   UNL     1     -39.825  52.291 -53.505  1.00  0.00     0.065 A 
HETATM   18  C   UNL     1     -40.444  52.425 -52.268  1.00  0.00     0.039 A 
HETATM   19  C   UNL     1     -41.274  53.521 -52.021  1.00  0.00     0.033 A 
BRANCH  17  20
HETATM   20  O   UNL     1     -39.029  51.201 -53.701  1.00  0.00    -0.361 OA
HETATM   21  H   UNL     1     -38.183  51.350 -53.246  1.00  0.00     0.217 HD
ENDBRANCH  17  20
ENDBRANCH   9  14
ENDBRANCH   6   7
ENDBRANCH   1   5
BRANCH   2  22
HETATM   22  C   UNL     1     -45.331  62.046 -48.469  1.00  0.00     0.195 C 
BRANCH  22  23
HETATM   23  O   UNL     1     -44.188  62.683 -49.087  1.00  0.00    -0.371 OA
HETATM   24  H   UNL     1     -43.409  62.278 -48.655  1.00  0.00     0.212 HD
ENDBRANCH  22  23
BRANCH  22  25
HETATM   25  C   UNL     1     -46.592  62.789 -48.948  1.00  0.00    -0.010 A 
HETATM   26  C   UNL     1     -47.642  63.123 -48.069  1.00  0.00     0.011 A 
HETATM   27  C   UNL     1     -48.802  63.744 -48.538  1.00  0.00     0.001 A 
HETATM   28  C   UNL     1     -48.936  64.045 -49.891  1.00  0.00     0.000 A 
HETATM   29  C   UNL     1     -47.912  63.725 -50.777  1.00  0.00     0.001 A 
HETATM   30  C   UNL     1     -46.754  63.098 -50.312  1.00  0.00     0.011 A 
ENDBRANCH  22  25
BRANCH  22  31
HETATM   31  C   UNL     1     -45.058  62.170 -46.961  1.00  0.00    -0.010 A 
HETATM   32  C   UNL     1     -45.135  63.388 -46.262  1.00  0.00     0.011 A 
HETATM   33  C   UNL     1     -44.869  63.446 -44.891  1.00  0.00     0.001 A 
HETATM   34  C   UNL     1     -44.527  62.292 -44.190  1.00  0.00     0.000 A 
HETATM   35  C   UNL     1     -44.461  61.073 -44.855  1.00  0.00     0.001 A 
HETATM   36  C   UNL     1     -44.730  61.012 -46.224  1.00  0.00     0.011 A 
ENDBRANCH  22  31
ENDBRANCH   2  22
TORSDOF 8
ENDMDL
MODEL 10
REMARK VINA RESULT:      -7.5      5.378      7.633
REMARK  8 active torsions:
REMARK  status: ('A' for Active; 'I' for Inactive)
REMARK    1  A    between atoms: N_3  and  C_4 
REMARK    2  A    between atoms: C_7  and  O_8 
REMARK    3  A    between atoms: C_13  and  C_14 
REMARK    4  A    between atoms: N_15  and  N_16 
REMARK       I    between atoms: N_16  and  C_17 
REMARK    5  A    between atoms: C_17  and  C_18 
REMARK    6  A    between atoms: C_18  and  O_19 
REMARK    7  A    between atoms: C_18  and  C_20 
REMARK    8  A    between atoms: C_18  and  C_26 
ROOT
HETATM    1  N   UNL     1     -44.119  58.907 -51.442  1.00  0.00    -0.244 N 
HETATM    2  C   UNL     1     -45.428  59.263 -51.129  1.00  0.00     0.282 C 
HETATM    3  O   UNL     1     -46.259  58.509 -50.611  1.00  0.00    -0.268 OA
HETATM    4  H   UNL     1     -43.581  59.521 -52.048  1.00  0.00     0.192 HD
ENDROOT
BRANCH   1   5
HETATM    5  N   UNL     1     -43.522  57.689 -51.248  1.00  0.00    -0.184 NA
HETATM    6  C   UNL     1     -42.246  57.566 -51.424  1.00  0.00     0.152 C 
BRANCH   6   7
HETATM    7  C   UNL     1     -41.649  56.254 -51.236  1.00  0.00     0.008 A 
HETATM    8  C   UNL     1     -41.272  55.377 -52.247  1.00  0.00     0.025 A 
HETATM    9  N   UNL     1     -40.823  54.191 -51.660  1.00  0.00    -0.319 N 
HETATM   10  C   UNL     1     -41.251  55.631 -53.720  1.00  0.00     0.070 C 
HETATM   11  C   UNL     1     -40.835  54.362 -50.279  1.00  0.00     0.014 A 
HETATM   12  C   UNL     1     -40.488  53.310 -49.280  1.00  0.00     0.068 C 
HETATM   13  C   UNL     1     -41.335  55.620 -50.010  1.00  0.00     0.040 A 
BRANCH   9  14
HETATM   14  C   UNL     1     -40.460  52.997 -52.352  1.00  0.00     0.039 A 
HETATM   15  C   UNL     1     -40.956  52.760 -53.642  1.00  0.00     0.033 A 
HETATM   16  C   UNL     1     -40.623  51.582 -54.318  1.00  0.00     0.039 A 
HETATM   17  C   UNL     1     -39.792  50.652 -53.703  1.00  0.00     0.065 A 
HETATM   18  C   UNL     1     -39.290  50.878 -52.427  1.00  0.00     0.039 A 
HETATM   19  C   UNL     1     -39.624  52.052 -51.746  1.00  0.00     0.033 A 
BRANCH  17  20
HETATM   20  O   UNL     1     -39.443  49.489 -54.324  1.00  0.00    -0.361 OA
HETATM   21  H   UNL     1     -39.538  49.610 -55.284  1.00  0.00     0.217 HD
ENDBRANCH  17  20
ENDBRANCH   9  14
ENDBRANCH   6   7
ENDBRANCH   1   5
BRANCH   2  22
HETATM   22  C   UNL     1     -45.833  60.725 -51.539  1.00  0.00     0.195 C 
BRANCH  22  23
HETATM   23  O   UNL     1     -47.173  60.641 -52.080  1.00  0.00    -0.371 OA
HETATM   24  H   UNL     1     -47.564  61.524 -51.924  1.00  0.00     0.212 HD
ENDBRANCH  22  23
BRANCH  22  25
HETATM   25  C   UNL     1     -45.890  61.629 -50.294  1.00  0.00    -0.010 A 
HETATM   26  C   UNL     1     -45.065  61.410 -49.173  1.00  0.00     0.011 A 
HETATM   27  C   UNL     1     -45.176  62.207 -48.031  1.00  0.00     0.001 A 
HETATM   28  C   UNL     1     -46.112  63.237 -47.986  1.00  0.00     0.000 A 
HETATM   29  C   UNL     1     -46.938  63.472 -49.081  1.00  0.00     0.001 A 
HETATM   30  C   UNL     1     -46.833  62.672 -50.221  1.00  0.00     0.011 A 
ENDBRANCH  22  25
BRANCH  22  31
HETATM   31  C   UNL     1     -44.999  61.295 -52.698  1.00  0.00    -0.010 A 
HETATM   32  C   UNL     1     -43.923  62.181 -52.508  1.00  0.00     0.011 A 
HETATM   33  C   UNL     1     -43.201  62.676 -53.599  1.00  0.00     0.001 A 
HETATM   34  C   UNL     1     -43.534  62.294 -54.896  1.00  0.00     0.000 A 
HETATM   35  C   UNL     1     -44.583  61.406 -55.108  1.00  0.00     0.001 A 
HETATM   36  C   UNL     1     -45.302  60.908 -54.020  1.00  0.00     0.011 A 
ENDBRANCH  22  31
ENDBRANCH   2  22
TORSDOF 8
ENDMDL
