MODEL 1
REMARK VINA RESULT:      -8.7      0.000      0.000
REMARK  8 active torsions:
REMARK  status: ('A' for Active; 'I' for Inactive)
REMARK    1  A    between atoms: C_2  and  O_3 
REMARK    2  A    between atoms: O_3  and  C_4 
REMARK    3  A    between atoms: C_4  and  C_5 
REMARK    4  A    between atoms: C_6  and  C_8 
REMARK    5  A    between atoms: C_6  and  O_7 
REMARK    6  A    between atoms: C_16  and  C_17 
REMARK    7  A    between atoms: C_18  and  C_19 
REMARK    8  A    between atoms: N_26  and  C_27 
ROOT
HETATM    1  C   UNL     1     -42.579  58.765 -53.129  1.00  0.00     0.177 C 
HETATM    2  C   UNL     1     -42.476  59.035 -51.620  1.00  0.00     0.250 C 
HETATM    3  N   UNL     1     -43.836  59.082 -51.094  1.00  0.00    -0.303 N 
HETATM    4  C   UNL     1     -44.674  58.035 -51.298  1.00  0.00     0.319 C 
HETATM    5  O   UNL     1     -45.631  57.828 -50.567  1.00  0.00    -0.247 OA
HETATM    6  N   UNL     1     -44.369  57.227 -52.339  1.00  0.00    -0.333 N 
HETATM    7  C   UNL     1     -43.470  57.555 -53.433  1.00  0.00     0.142 C 
HETATM    8  H   UNL     1     -43.974  59.508 -50.184  1.00  0.00     0.167 HD
HETATM    9  H   UNL     1     -45.018  56.457 -52.458  1.00  0.00     0.165 HD
ENDROOT
BRANCH   7  10
HETATM   10  C   UNL     1     -42.834  56.268 -53.882  1.00  0.00     0.015 A 
HETATM   11  C   UNL     1     -42.748  55.750 -55.218  1.00  0.00     0.097 A 
HETATM   12  N   UNL     1     -42.080  54.589 -55.246  1.00  0.00    -0.167 NA
HETATM   13  N   UNL     1     -41.729  54.328 -53.971  1.00  0.00    -0.244 N 
HETATM   14  C   UNL     1     -42.176  55.317 -53.124  1.00  0.00     0.130 A 
BRANCH  11  15
HETATM   15  C   UNL     1     -43.256  56.308 -56.474  1.00  0.00    -0.005 A 
HETATM   16  C   UNL     1     -42.863  55.736 -57.693  1.00  0.00     0.014 A 
HETATM   17  C   UNL     1     -43.342  56.237 -58.906  1.00  0.00     0.001 A 
HETATM   18  C   UNL     1     -44.221  57.317 -58.912  1.00  0.00     0.000 A 
HETATM   19  C   UNL     1     -44.631  57.887 -57.708  1.00  0.00     0.001 A 
HETATM   20  C   UNL     1     -44.159  57.380 -56.494  1.00  0.00     0.014 A 
ENDBRANCH  11  15
BRANCH  13  21
HETATM   21  C   UNL     1     -40.987  53.158 -53.641  1.00  0.00     0.058 A 
HETATM   22  C   UNL     1     -40.924  52.101 -54.562  1.00  0.00     0.031 A 
HETATM   23  C   UNL     1     -40.197  50.946 -54.261  1.00  0.00     0.002 A 
HETATM   24  C   UNL     1     -39.532  50.837 -53.043  1.00  0.00     0.000 A 
HETATM   25  C   UNL     1     -39.592  51.881 -52.121  1.00  0.00     0.002 A 
HETATM   26  C   UNL     1     -40.315  53.042 -52.415  1.00  0.00     0.031 A 
ENDBRANCH  13  21
ENDBRANCH   7  10
BRANCH   1  27
HETATM   27  C   UNL     1     -41.314  58.805 -53.957  1.00  0.00     0.270 C 
HETATM   28  O   UNL     1     -40.212  58.533 -53.498  1.00  0.00    -0.265 OA
BRANCH  27  29
HETATM   29  O   UNL     1     -41.551  59.050 -55.267  1.00  0.00    -0.321 OA
BRANCH  29  30
HETATM   30  C   UNL     1     -42.162  60.310 -55.583  1.00  0.00     0.174 C 
HETATM   31  C   UNL     1     -42.100  60.570 -57.076  1.00  0.00     0.034 C 
ENDBRANCH  29  30
ENDBRANCH  27  29
ENDBRANCH   1  27
BRANCH   2  32
HETATM   32  C   UNL     1     -41.583  58.025 -50.803  1.00  0.00     0.439 C 
HETATM   33  F   UNL     1     -40.620  57.429 -51.535  1.00  0.00    -0.166 F 
HETATM   34  F   UNL     1     -40.967  58.664 -49.774  1.00  0.00    -0.166 F 
HETATM   35  F   UNL     1     -42.311  57.033 -50.238  1.00  0.00    -0.166 F 
ENDBRANCH   2  32
BRANCH   2  36
HETATM   36  O   UNL     1     -42.043  60.387 -51.419  1.00  0.00    -0.363 OA
HETATM   37  H   UNL     1     -42.365  60.641 -50.537  1.00  0.00     0.213 HD
ENDBRANCH   2  36
TORSDOF 8
ENDMDL
MODEL 2
REMARK VINA RESULT:      -8.3      2.170      5.680
REMARK  8 active torsions:
REMARK  status: ('A' for Active; 'I' for Inactive)
REMARK    1  A    between atoms: C_2  and  O_3 
REMARK    2  A    between atoms: O_3  and  C_4 
REMARK    3  A    between atoms: C_4  and  C_5 
REMARK    4  A    between atoms: C_6  and  C_8 
REMARK    5  A    between atoms: C_6  and  O_7 
REMARK    6  A    between atoms: C_16  and  C_17 
REMARK    7  A    between atoms: C_18  and  C_19 
REMARK    8  A    between atoms: N_26  and  C_27 
ROOT
HETATM    1  C   UNL     1     -42.566  57.608 -51.476  1.00  0.00     0.177 C 
HETATM    2  C   UNL     1     -42.529  59.136 -51.325  1.00  0.00     0.250 C 
HETATM    3  N   UNL     1     -41.214  59.489 -50.799  1.00  0.00    -0.303 N 
HETATM    4  C   UNL     1     -40.097  59.083 -51.452  1.00  0.00     0.319 C 
HETATM    5  O   UNL     1     -39.030  59.664 -51.319  1.00  0.00    -0.247 OA
HETATM    6  N   UNL     1     -40.244  58.018 -52.273  1.00  0.00    -0.333 N 
HETATM    7  C   UNL     1     -41.355  57.082 -52.257  1.00  0.00     0.142 C 
HETATM    8  H   UNL     1     -41.103  60.409 -50.389  1.00  0.00     0.167 HD
HETATM    9  H   UNL     1     -39.387  57.747 -52.742  1.00  0.00     0.165 HD
ENDROOT
BRANCH   7  10
HETATM   10  C   UNL     1     -41.545  56.599 -53.669  1.00  0.00     0.015 A 
HETATM   11  C   UNL     1     -41.281  55.289 -54.192  1.00  0.00     0.097 A 
HETATM   12  N   UNL     1     -41.600  55.211 -55.490  1.00  0.00    -0.167 NA
HETATM   13  N   UNL     1     -42.061  56.429 -55.836  1.00  0.00    -0.244 N 
HETATM   14  C   UNL     1     -42.033  57.290 -54.762  1.00  0.00     0.130 A 
BRANCH  11  15
HETATM   15  C   UNL     1     -40.752  54.100 -53.517  1.00  0.00    -0.005 A 
HETATM   16  C   UNL     1     -40.376  52.983 -54.280  1.00  0.00     0.014 A 
HETATM   17  C   UNL     1     -39.855  51.841 -53.666  1.00  0.00     0.001 A 
HETATM   18  C   UNL     1     -39.705  51.804 -52.282  1.00  0.00     0.000 A 
HETATM   19  C   UNL     1     -40.063  52.910 -51.513  1.00  0.00     0.001 A 
HETATM   20  C   UNL     1     -40.575  54.056 -52.128  1.00  0.00     0.014 A 
ENDBRANCH  11  15
BRANCH  13  21
HETATM   21  C   UNL     1     -42.505  56.695 -57.163  1.00  0.00     0.058 A 
HETATM   22  C   UNL     1     -43.084  55.660 -57.915  1.00  0.00     0.031 A 
HETATM   23  C   UNL     1     -43.531  55.899 -59.216  1.00  0.00     0.002 A 
HETATM   24  C   UNL     1     -43.402  57.167 -59.777  1.00  0.00     0.000 A 
HETATM   25  C   UNL     1     -42.825  58.200 -59.039  1.00  0.00     0.002 A 
HETATM   26  C   UNL     1     -42.377  57.969 -57.734  1.00  0.00     0.031 A 
ENDBRANCH  13  21
ENDBRANCH   7  10
BRANCH   1  27
HETATM   27  C   UNL     1     -43.870  56.953 -51.874  1.00  0.00     0.270 C 
HETATM   28  O   UNL     1     -44.311  56.995 -53.016  1.00  0.00    -0.265 OA
BRANCH  27  29
HETATM   29  O   UNL     1     -44.421  56.227 -50.874  1.00  0.00    -0.321 OA
BRANCH  29  30
HETATM   30  C   UNL     1     -43.674  55.086 -50.425  1.00  0.00     0.174 C 
HETATM   31  C   UNL     1     -43.917  53.899 -51.339  1.00  0.00     0.034 C 
ENDBRANCH  29  30
ENDBRANCH  27  29
ENDBRANCH   1  27
BRANCH   2  32
HETATM   32  C   UNL     1     -42.862  59.962 -52.625  1.00  0.00     0.439 C 
HETATM   33  F   UNL     1     -43.933  59.504 -53.305  1.00  0.00    -0.166 F 
HETATM   34  F   UNL     1     -43.112  61.260 -52.311  1.00  0.00    -0.166 F 
HETATM   35  F   UNL     1     -41.830  59.987 -53.500  1.00  0.00    -0.166 F 
ENDBRANCH   2  32
BRANCH   2  36
HETATM   36  O   UNL     1     -43.384  59.516 -50.238  1.00  0.00    -0.363 OA
HETATM   37  H   UNL     1     -43.402  60.488 -50.241  1.00  0.00     0.213 HD
ENDBRANCH   2  36
TORSDOF 8
ENDMDL
MODEL 3
REMARK VINA RESULT:      -7.6      2.151      5.966
REMARK  8 active torsions:
REMARK  status: ('A' for Active; 'I' for Inactive)
REMARK    1  A    between atoms: C_2  and  O_3 
REMARK    2  A    between atoms: O_3  and  C_4 
REMARK    3  A    between atoms: C_4  and  C_5 
REMARK    4  A    between atoms: C_6  and  C_8 
REMARK    5  A    between atoms: C_6  and  O_7 
REMARK    6  A    between atoms: C_16  and  C_17 
REMARK    7  A    between atoms: C_18  and  C_19 
REMARK    8  A    between atoms: N_26  and  C_27 
ROOT
HETATM    1  C   UNL     1     -41.731  55.850 -52.063  1.00  0.00     0.177 C 
HETATM    2  C   UNL     1     -42.353  57.123 -51.469  1.00  0.00     0.250 C 
HETATM    3  N   UNL     1     -41.299  58.129 -51.397  1.00  0.00    -0.303 N 
HETATM    4  C   UNL     1     -40.605  58.458 -52.515  1.00  0.00     0.319 C 
HETATM    5  O   UNL     1     -40.033  59.532 -52.621  1.00  0.00    -0.247 OA
HETATM    6  N   UNL     1     -40.609  57.539 -53.507  1.00  0.00    -0.333 N 
HETATM    7  C   UNL     1     -40.974  56.139 -53.365  1.00  0.00     0.142 C 
HETATM    8  H   UNL     1     -41.453  58.930 -50.795  1.00  0.00     0.167 HD
HETATM    9  H   UNL     1     -40.080  57.822 -54.324  1.00  0.00     0.165 HD
ENDROOT
BRANCH   7  10
HETATM   10  C   UNL     1     -41.572  55.705 -54.675  1.00  0.00     0.015 A 
HETATM   11  C   UNL     1     -41.559  54.391 -55.254  1.00  0.00     0.097 A 
HETATM   12  N   UNL     1     -42.220  54.368 -56.419  1.00  0.00    -0.167 NA
HETATM   13  N   UNL     1     -42.662  55.625 -56.625  1.00  0.00    -0.244 N 
HETATM   14  C   UNL     1     -42.280  56.455 -55.595  1.00  0.00     0.130 A 
BRANCH  11  15
HETATM   15  C   UNL     1     -40.963  53.151 -54.750  1.00  0.00    -0.005 A 
HETATM   16  C   UNL     1     -41.704  51.960 -54.797  1.00  0.00     0.014 A 
HETATM   17  C   UNL     1     -41.157  50.760 -54.338  1.00  0.00     0.001 A 
HETATM   18  C   UNL     1     -39.862  50.737 -53.825  1.00  0.00     0.000 A 
HETATM   19  C   UNL     1     -39.110  51.910 -53.785  1.00  0.00     0.001 A 
HETATM   20  C   UNL     1     -39.653  53.110 -54.254  1.00  0.00     0.014 A 
ENDBRANCH  11  15
BRANCH  13  21
HETATM   21  C   UNL     1     -43.422  55.954 -57.782  1.00  0.00     0.058 A 
HETATM   22  C   UNL     1     -43.997  57.231 -57.888  1.00  0.00     0.031 A 
HETATM   23  C   UNL     1     -44.743  57.577 -59.016  1.00  0.00     0.002 A 
HETATM   24  C   UNL     1     -44.924  56.655 -60.044  1.00  0.00     0.000 A 
HETATM   25  C   UNL     1     -44.360  55.384 -59.947  1.00  0.00     0.002 A 
HETATM   26  C   UNL     1     -43.609  55.030 -58.820  1.00  0.00     0.031 A 
ENDBRANCH  13  21
ENDBRANCH   7  10
BRANCH   1  27
HETATM   27  C   UNL     1     -42.572  54.595 -52.122  1.00  0.00     0.270 C 
HETATM   28  O   UNL     1     -43.683  54.565 -52.636  1.00  0.00    -0.265 OA
BRANCH  27  29
HETATM   29  O   UNL     1     -41.920  53.502 -51.661  1.00  0.00    -0.321 OA
BRANCH  29  30
HETATM   30  C   UNL     1     -40.933  53.728 -50.643  1.00  0.00     0.174 C 
HETATM   31  C   UNL     1     -40.234  52.429 -50.285  1.00  0.00     0.034 C 
ENDBRANCH  29  30
ENDBRANCH  27  29
ENDBRANCH   1  27
BRANCH   2  32
HETATM   32  C   UNL     1     -43.622  57.680 -52.220  1.00  0.00     0.439 C 
HETATM   33  F   UNL     1     -43.719  57.278 -53.504  1.00  0.00    -0.166 F 
HETATM   34  F   UNL     1     -44.759  57.282 -51.590  1.00  0.00    -0.166 F 
HETATM   35  F   UNL     1     -43.662  59.033 -52.233  1.00  0.00    -0.166 F 
ENDBRANCH   2  32
BRANCH   2  36
HETATM   36  O   UNL     1     -42.632  56.899 -50.080  1.00  0.00    -0.363 OA
HETATM   37  H   UNL     1     -43.569  56.643 -50.034  1.00  0.00     0.213 HD
ENDBRANCH   2  36
TORSDOF 8
ENDMDL
MODEL 4
REMARK VINA RESULT:      -7.5      2.551      6.015
REMARK  8 active torsions:
REMARK  status: ('A' for Active; 'I' for Inactive)
REMARK    1  A    between atoms: C_2  and  O_3 
REMARK    2  A    between atoms: O_3  and  C_4 
REMARK    3  A    between atoms: C_4  and  C_5 
REMARK    4  A    between atoms: C_6  and  C_8 
REMARK    5  A    between atoms: C_6  and  O_7 
REMARK    6  A    between atoms: C_16  and  C_17 
REMARK    7  A    between atoms: C_18  and  C_19 
REMARK    8  A    between atoms: N_26  and  C_27 
ROOT
HETATM    1  C   UNL     1     -41.042  54.628 -52.866  1.00  0.00     0.177 C 
HETATM    2  C   UNL     1     -41.736  54.485 -51.503  1.00  0.00     0.250 C 
HETATM    3  N   UNL     1     -41.132  55.460 -50.602  1.00  0.00    -0.303 N 
HETATM    4  C   UNL     1     -41.108  56.772 -50.949  1.00  0.00     0.319 C 
HETATM    5  O   UNL     1     -41.009  57.655 -50.110  1.00  0.00    -0.247 OA
HETATM    6  N   UNL     1     -41.225  57.037 -52.269  1.00  0.00    -0.333 N 
HETATM    7  C   UNL     1     -41.028  56.084 -53.348  1.00  0.00     0.142 C 
HETATM    8  H   UNL     1     -41.272  55.332 -49.606  1.00  0.00     0.167 HD
HETATM    9  H   UNL     1     -41.203  58.028 -52.487  1.00  0.00     0.165 HD
ENDROOT
BRANCH   7  10
HETATM   10  C   UNL     1     -41.938  56.494 -54.472  1.00  0.00     0.015 A 
HETATM   11  C   UNL     1     -42.998  57.461 -54.437  1.00  0.00     0.097 A 
HETATM   12  N   UNL     1     -43.576  57.593 -55.638  1.00  0.00    -0.167 NA
HETATM   13  N   UNL     1     -42.932  56.739 -56.459  1.00  0.00    -0.244 N 
HETATM   14  C   UNL     1     -41.945  56.057 -55.784  1.00  0.00     0.130 A 
BRANCH  11  15
HETATM   15  C   UNL     1     -43.482  58.280 -53.322  1.00  0.00    -0.005 A 
HETATM   16  C   UNL     1     -42.834  59.488 -53.020  1.00  0.00     0.014 A 
HETATM   17  C   UNL     1     -43.281  60.297 -51.972  1.00  0.00     0.001 A 
HETATM   18  C   UNL     1     -44.382  59.906 -51.214  1.00  0.00     0.000 A 
HETATM   19  C   UNL     1     -45.044  58.715 -51.511  1.00  0.00     0.001 A 
HETATM   20  C   UNL     1     -44.602  57.911 -52.566  1.00  0.00     0.014 A 
ENDBRANCH  11  15
BRANCH  13  21
HETATM   21  C   UNL     1     -43.291  56.632 -57.832  1.00  0.00     0.058 A 
HETATM   22  C   UNL     1     -43.455  57.800 -58.594  1.00  0.00     0.031 A 
HETATM   23  C   UNL     1     -43.803  57.719 -59.944  1.00  0.00     0.002 A 
HETATM   24  C   UNL     1     -43.992  56.476 -60.543  1.00  0.00     0.000 A 
HETATM   25  C   UNL     1     -43.834  55.311 -59.794  1.00  0.00     0.002 A 
HETATM   26  C   UNL     1     -43.484  55.384 -58.442  1.00  0.00     0.031 A 
ENDBRANCH  13  21
ENDBRANCH   7  10
BRANCH   1  27
HETATM   27  C   UNL     1     -41.379  53.636 -53.956  1.00  0.00     0.270 C 
HETATM   28  O   UNL     1     -42.520  53.465 -54.366  1.00  0.00    -0.265 OA
BRANCH  27  29
HETATM   29  O   UNL     1     -40.283  53.059 -54.500  1.00  0.00    -0.321 OA
BRANCH  29  30
HETATM   30  C   UNL     1     -39.717  51.952 -53.781  1.00  0.00     0.174 C 
HETATM   31  C   UNL     1     -40.214  50.638 -54.354  1.00  0.00     0.034 C 
ENDBRANCH  29  30
ENDBRANCH  27  29
ENDBRANCH   1  27
BRANCH   2  32
HETATM   32  C   UNL     1     -43.307  54.618 -51.516  1.00  0.00     0.439 C 
HETATM   33  F   UNL     1     -43.811  55.032 -52.697  1.00  0.00    -0.166 F 
HETATM   34  F   UNL     1     -43.886  53.422 -51.230  1.00  0.00    -0.166 F 
HETATM   35  F   UNL     1     -43.760  55.481 -50.577  1.00  0.00    -0.166 F 
ENDBRANCH   2  32
BRANCH   2  36
HETATM   36  O   UNL     1     -41.328  53.248 -50.902  1.00  0.00    -0.363 OA
HETATM   37  H   UNL     1     -41.442  53.367 -49.943  1.00  0.00     0.213 HD
ENDBRANCH   2  36
TORSDOF 8
ENDMDL
MODEL 5
REMARK VINA RESULT:      -7.4      2.010      2.945
REMARK  8 active torsions:
REMARK  status: ('A' for Active; 'I' for Inactive)
REMARK    1  A    between atoms: C_2  and  O_3 
REMARK    2  A    between atoms: O_3  and  C_4 
REMARK    3  A    between atoms: C_4  and  C_5 
REMARK    4  A    between atoms: C_6  and  C_8 
REMARK    5  A    between atoms: C_6  and  O_7 
REMARK    6  A    between atoms: C_16  and  C_17 
REMARK    7  A    between atoms: C_18  and  C_19 
REMARK    8  A    between atoms: N_26  and  C_27 
ROOT
HETATM    1  C   UNL     1     -42.227  59.919 -53.611  1.00  0.00     0.177 C 
HETATM    2  C   UNL     1     -43.525  60.229 -52.850  1.00  0.00     0.250 C 
HETATM    3  N   UNL     1     -44.437  60.871 -53.789  1.00  0.00    -0.303 N 
HETATM    4  C   UNL     1     -44.749  60.252 -54.955  1.00  0.00     0.319 C 
HETATM    5  O   UNL     1     -45.776  60.512 -55.564  1.00  0.00    -0.247 OA
HETATM    6  N   UNL     1     -43.870  59.318 -55.383  1.00  0.00    -0.333 N 
HETATM    7  C   UNL     1     -42.501  59.166 -54.919  1.00  0.00     0.142 C 
HETATM    8  H   UNL     1     -45.226  61.381 -53.406  1.00  0.00     0.167 HD
HETATM    9  H   UNL     1     -44.138  58.879 -56.257  1.00  0.00     0.165 HD
ENDROOT
BRANCH   7  10
HETATM   10  C   UNL     1     -42.164  57.703 -55.010  1.00  0.00     0.015 A 
HETATM   11  C   UNL     1     -42.236  56.854 -56.164  1.00  0.00     0.097 A 
HETATM   12  N   UNL     1     -41.827  55.611 -55.880  1.00  0.00    -0.167 NA
HETATM   13  N   UNL     1     -41.492  55.616 -54.574  1.00  0.00    -0.244 N 
HETATM   14  C   UNL     1     -41.692  56.861 -54.020  1.00  0.00     0.130 A 
BRANCH  11  15
HETATM   15  C   UNL     1     -42.662  57.167 -57.532  1.00  0.00    -0.005 A 
HETATM   16  C   UNL     1     -42.000  58.176 -58.247  1.00  0.00     0.014 A 
HETATM   17  C   UNL     1     -42.373  58.486 -59.557  1.00  0.00     0.001 A 
HETATM   18  C   UNL     1     -43.414  57.790 -60.166  1.00  0.00     0.000 A 
HETATM   19  C   UNL     1     -44.072  56.776 -59.472  1.00  0.00     0.001 A 
HETATM   20  C   UNL     1     -43.692  56.459 -58.165  1.00  0.00     0.014 A 
ENDBRANCH  11  15
BRANCH  13  21
HETATM   21  C   UNL     1     -40.999  54.441 -53.939  1.00  0.00     0.058 A 
HETATM   22  C   UNL     1     -40.504  53.390 -54.727  1.00  0.00     0.031 A 
HETATM   23  C   UNL     1     -40.010  52.230 -54.126  1.00  0.00     0.002 A 
HETATM   24  C   UNL     1     -40.009  52.109 -52.739  1.00  0.00     0.000 A 
HETATM   25  C   UNL     1     -40.500  53.147 -51.948  1.00  0.00     0.002 A 
HETATM   26  C   UNL     1     -40.995  54.313 -52.543  1.00  0.00     0.031 A 
ENDBRANCH  13  21
ENDBRANCH   7  10
BRANCH   1  27
HETATM   27  C   UNL     1     -41.048  59.373 -52.838  1.00  0.00     0.270 C 
HETATM   28  O   UNL     1     -39.951  59.183 -53.349  1.00  0.00    -0.265 OA
BRANCH  27  29
HETATM   29  O   UNL     1     -41.303  59.237 -51.516  1.00  0.00    -0.321 OA
BRANCH  29  30
HETATM   30  C   UNL     1     -40.467  58.320 -50.794  1.00  0.00     0.174 C 
HETATM   31  C   UNL     1     -41.273  57.123 -50.325  1.00  0.00     0.034 C 
ENDBRANCH  29  30
ENDBRANCH  27  29
ENDBRANCH   1  27
BRANCH   2  32
HETATM   32  C   UNL     1     -44.211  59.002 -52.137  1.00  0.00     0.439 C 
HETATM   33  F   UNL     1     -43.743  57.803 -52.539  1.00  0.00    -0.166 F 
HETATM   34  F   UNL     1     -44.028  59.073 -50.791  1.00  0.00    -0.166 F 
HETATM   35  F   UNL     1     -45.551  58.979 -52.326  1.00  0.00    -0.166 F 
ENDBRANCH   2  32
BRANCH   2  36
HETATM   36  O   UNL     1     -43.274  61.293 -51.921  1.00  0.00    -0.363 OA
HETATM   37  H   UNL     1     -44.125  61.473 -51.486  1.00  0.00     0.213 HD
ENDBRANCH   2  36
TORSDOF 8
ENDMDL
MODEL 6
REMARK VINA RESULT:      -7.4      2.577      5.516
REMARK  8 active torsions:
REMARK  status: ('A' for Active; 'I' for Inactive)
REMARK    1  A    between atoms: C_2  and  O_3 
REMARK    2  A    between atoms: O_3  and  C_4 
REMARK    3  A    between atoms: C_4  and  C_5 
REMARK    4  A    between atoms: C_6  and  C_8 
REMARK    5  A    between atoms: C_6  and  O_7 
REMARK    6  A    between atoms: C_16  and  C_17 
REMARK    7  A    between atoms: C_18  and  C_19 
REMARK    8  A    between atoms: N_26  and  C_27 
ROOT
HETATM    1  C   UNL     1     -42.011  57.251 -51.400  1.00  0.00     0.177 C 
HETATM    2  C   UNL     1     -41.507  55.816 -51.185  1.00  0.00     0.250 C 
HETATM    3  N   UNL     1     -42.478  55.136 -50.335  1.00  0.00    -0.303 N 
HETATM    4  C   UNL     1     -43.783  55.095 -50.704  1.00  0.00     0.319 C 
HETATM    5  O   UNL     1     -44.540  54.230 -50.287  1.00  0.00    -0.247 OA
HETATM    6  N   UNL     1     -44.183  56.048 -51.576  1.00  0.00    -0.333 N 
HETATM    7  C   UNL     1     -43.469  57.278 -51.874  1.00  0.00     0.142 C 
HETATM    8  H   UNL     1     -42.185  54.282 -49.874  1.00  0.00     0.167 HD
HETATM    9  H   UNL     1     -45.163  55.982 -51.826  1.00  0.00     0.165 HD
ENDROOT
BRANCH   7  10
HETATM   10  C   UNL     1     -43.770  57.627 -53.306  1.00  0.00     0.015 A 
HETATM   11  C   UNL     1     -44.295  58.860 -53.818  1.00  0.00     0.097 A 
HETATM   12  N   UNL     1     -44.403  58.825 -55.153  1.00  0.00    -0.167 NA
HETATM   13  N   UNL     1     -43.970  57.606 -55.531  1.00  0.00    -0.244 N 
HETATM   14  C   UNL     1     -43.589  56.857 -54.440  1.00  0.00     0.130 A 
BRANCH  11  15
HETATM   15  C   UNL     1     -44.686  60.080 -53.105  1.00  0.00    -0.005 A 
HETATM   16  C   UNL     1     -45.903  60.109 -52.405  1.00  0.00     0.014 A 
HETATM   17  C   UNL     1     -46.296  61.252 -51.704  1.00  0.00     0.001 A 
HETATM   18  C   UNL     1     -45.476  62.378 -51.695  1.00  0.00     0.000 A 
HETATM   19  C   UNL     1     -44.259  62.358 -52.375  1.00  0.00     0.001 A 
HETATM   20  C   UNL     1     -43.861  61.211 -53.068  1.00  0.00     0.014 A 
ENDBRANCH  11  15
BRANCH  13  21
HETATM   21  C   UNL     1     -43.940  57.233 -56.905  1.00  0.00     0.058 A 
HETATM   22  C   UNL     1     -44.815  57.860 -57.807  1.00  0.00     0.031 A 
HETATM   23  C   UNL     1     -44.800  57.514 -59.160  1.00  0.00     0.002 A 
HETATM   24  C   UNL     1     -43.917  56.541 -59.622  1.00  0.00     0.000 A 
HETATM   25  C   UNL     1     -43.047  55.912 -58.734  1.00  0.00     0.002 A 
HETATM   26  C   UNL     1     -43.055  56.254 -57.377  1.00  0.00     0.031 A 
ENDBRANCH  13  21
ENDBRANCH   7  10
BRANCH   1  27
HETATM   27  C   UNL     1     -41.120  58.227 -52.135  1.00  0.00     0.270 C 
HETATM   28  O   UNL     1     -40.518  57.931 -53.160  1.00  0.00    -0.265 OA
BRANCH  27  29
HETATM   29  O   UNL     1     -41.160  59.474 -51.611  1.00  0.00    -0.321 OA
BRANCH  29  30
HETATM   30  C   UNL     1     -40.575  59.640 -50.310  1.00  0.00     0.174 C 
HETATM   31  C   UNL     1     -39.065  59.740 -50.418  1.00  0.00     0.034 C 
ENDBRANCH  29  30
ENDBRANCH  27  29
ENDBRANCH   1  27
BRANCH   2  32
HETATM   32  C   UNL     1     -41.219  54.987 -52.495  1.00  0.00     0.439 C 
HETATM   33  F   UNL     1     -40.733  55.726 -53.514  1.00  0.00    -0.166 F 
HETATM   34  F   UNL     1     -40.313  54.005 -52.245  1.00  0.00    -0.166 F 
HETATM   35  F   UNL     1     -42.323  54.360 -52.963  1.00  0.00    -0.166 F 
ENDBRANCH   2  32
BRANCH   2  36
HETATM   36  O   UNL     1     -40.354  55.851 -50.332  1.00  0.00    -0.363 OA
HETATM   37  H   UNL     1     -39.640  56.238 -50.866  1.00  0.00     0.213 HD
ENDBRANCH   2  36
TORSDOF 8
ENDMDL
MODEL 7
REMARK VINA RESULT:      -7.3      2.622      6.231
REMARK  8 active torsions:
REMARK  status: ('A' for Active; 'I' for Inactive)
REMARK    1  A    between atoms: C_2  and  O_3 
REMARK    2  A    between atoms: O_3  and  C_4 
REMARK    3  A    between atoms: C_4  and  C_5 
REMARK    4  A    between atoms: C_6  and  C_8 
REMARK    5  A    between atoms: C_6  and  O_7 
REMARK    6  A    between atoms: C_16  and  C_17 
REMARK    7  A    between atoms: C_18  and  C_19 
REMARK    8  A    between atoms: N_26  and  C_27 
ROOT
HETATM    1  C   UNL     1     -43.511  56.443 -54.504  1.00  0.00     0.177 C 
HETATM    2  C   UNL     1     -42.451  56.417 -53.392  1.00  0.00     0.250 C 
HETATM    3  N   UNL     1     -41.574  55.281 -53.655  1.00  0.00    -0.303 N 
HETATM    4  C   UNL     1     -40.954  55.174 -54.857  1.00  0.00     0.319 C 
HETATM    5  O   UNL     1     -39.931  54.520 -54.994  1.00  0.00    -0.247 OA
HETATM    6  N   UNL     1     -41.522  55.853 -55.879  1.00  0.00    -0.333 N 
HETATM    7  C   UNL     1     -42.876  56.381 -55.898  1.00  0.00     0.142 C 
HETATM    8  H   UNL     1     -40.990  54.951 -52.894  1.00  0.00     0.167 HD
HETATM    9  H   UNL     1     -41.029  55.747 -56.759  1.00  0.00     0.165 HD
ENDROOT
BRANCH   7  10
HETATM   10  C   UNL     1     -42.854  57.619 -56.752  1.00  0.00     0.015 A 
HETATM   11  C   UNL     1     -43.447  57.804 -58.046  1.00  0.00     0.097 A 
HETATM   12  N   UNL     1     -43.255  59.052 -58.494  1.00  0.00    -0.167 NA
HETATM   13  N   UNL     1     -42.551  59.689 -57.537  1.00  0.00    -0.244 N 
HETATM   14  C   UNL     1     -42.287  58.850 -56.478  1.00  0.00     0.130 A 
BRANCH  11  15
HETATM   15  C   UNL     1     -44.201  56.860 -58.875  1.00  0.00    -0.005 A 
HETATM   16  C   UNL     1     -43.604  55.648 -59.258  1.00  0.00     0.014 A 
HETATM   17  C   UNL     1     -44.303  54.722 -60.035  1.00  0.00     0.001 A 
HETATM   18  C   UNL     1     -45.608  54.996 -60.438  1.00  0.00     0.000 A 
HETATM   19  C   UNL     1     -46.218  56.189 -60.054  1.00  0.00     0.001 A 
HETATM   20  C   UNL     1     -45.522  57.112 -59.268  1.00  0.00     0.014 A 
ENDBRANCH  11  15
BRANCH  13  21
HETATM   21  C   UNL     1     -42.181  61.056 -57.687  1.00  0.00     0.058 A 
HETATM   22  C   UNL     1     -40.988  61.375 -58.356  1.00  0.00     0.031 A 
HETATM   23  C   UNL     1     -40.607  62.709 -58.519  1.00  0.00     0.002 A 
HETATM   24  C   UNL     1     -41.408  63.731 -58.017  1.00  0.00     0.000 A 
HETATM   25  C   UNL     1     -42.593  63.423 -57.349  1.00  0.00     0.002 A 
HETATM   26  C   UNL     1     -42.982  62.089 -57.183  1.00  0.00     0.031 A 
ENDBRANCH  13  21
ENDBRANCH   7  10
BRANCH   1  27
HETATM   27  C   UNL     1     -44.641  57.442 -54.401  1.00  0.00     0.270 C 
HETATM   28  O   UNL     1     -45.376  57.711 -55.344  1.00  0.00    -0.265 OA
BRANCH  27  29
HETATM   29  O   UNL     1     -44.822  57.905 -53.143  1.00  0.00    -0.321 OA
BRANCH  29  30
HETATM   30  C   UNL     1     -45.144  59.299 -53.013  1.00  0.00     0.174 C 
HETATM   31  C   UNL     1     -44.608  59.847 -51.704  1.00  0.00     0.034 C 
ENDBRANCH  29  30
ENDBRANCH  27  29
ENDBRANCH   1  27
BRANCH   2  32
HETATM   32  C   UNL     1     -41.624  57.745 -53.202  1.00  0.00     0.439 C 
HETATM   33  F   UNL     1     -42.136  58.807 -53.857  1.00  0.00    -0.166 F 
HETATM   34  F   UNL     1     -41.559  58.079 -51.886  1.00  0.00    -0.166 F 
HETATM   35  F   UNL     1     -40.341  57.617 -53.613  1.00  0.00    -0.166 F 
ENDBRANCH   2  32
BRANCH   2  36
HETATM   36  O   UNL     1     -43.077  56.017 -52.164  1.00  0.00    -0.363 OA
HETATM   37  H   UNL     1     -43.596  56.784 -51.868  1.00  0.00     0.213 HD
ENDBRANCH   2  36
TORSDOF 8
ENDMDL
MODEL 8
REMARK VINA RESULT:      -7.2      3.003      6.486
REMARK  8 active torsions:
REMARK  status: ('A' for Active; 'I' for Inactive)
REMARK    1  A    between atoms: C_2  and  O_3 
REMARK    2  A    between atoms: O_3  and  C_4 
REMARK    3  A    between atoms: C_4  and  C_5 
REMARK    4  A    between atoms: C_6  and  C_8 
REMARK    5  A    between atoms: C_6  and  O_7 
REMARK    6  A    between atoms: C_16  and  C_17 
REMARK    7  A    between atoms: C_18  and  C_19 
REMARK    8  A    between atoms: N_26  and  C_27 
ROOT
HETATM    1  C   UNL     1     -43.663  57.779 -54.981  1.00  0.00     0.177 C 
HETATM    2  C   UNL     1     -42.710  58.003 -53.797  1.00  0.00     0.250 C 
HETATM    3  N   UNL     1     -41.984  56.757 -53.581  1.00  0.00    -0.303 N 
HETATM    4  C   UNL     1     -41.292  56.194 -54.604  1.00  0.00     0.319 C 
HETATM    5  O   UNL     1     -40.365  55.424 -54.403  1.00  0.00    -0.247 OA
HETATM    6  N   UNL     1     -41.675  56.559 -55.849  1.00  0.00    -0.333 N 
HETATM    7  C   UNL     1     -42.934  57.195 -56.197  1.00  0.00     0.142 C 
HETATM    8  H   UNL     1     -41.516  56.632 -52.691  1.00  0.00     0.167 HD
HETATM    9  H   UNL     1     -41.134  56.118 -56.584  1.00  0.00     0.165 HD
ENDROOT
BRANCH   7  10
HETATM   10  C   UNL     1     -42.669  58.075 -57.388  1.00  0.00     0.015 A 
HETATM   11  C   UNL     1     -43.139  57.900 -58.732  1.00  0.00     0.097 A 
HETATM   12  N   UNL     1     -42.732  58.900 -59.524  1.00  0.00    -0.167 NA
HETATM   13  N   UNL     1     -42.005  59.724 -58.742  1.00  0.00    -0.244 N 
HETATM   14  C   UNL     1     -41.943  59.250 -57.451  1.00  0.00     0.130 A 
BRANCH  11  15
HETATM   15  C   UNL     1     -43.970  56.835 -59.303  1.00  0.00    -0.005 A 
HETATM   16  C   UNL     1     -45.163  57.169 -59.963  1.00  0.00     0.014 A 
HETATM   17  C   UNL     1     -45.967  56.178 -60.530  1.00  0.00     0.001 A 
HETATM   18  C   UNL     1     -45.588  54.840 -60.442  1.00  0.00     0.000 A 
HETATM   19  C   UNL     1     -44.400  54.495 -59.801  1.00  0.00     0.001 A 
HETATM   20  C   UNL     1     -43.589  55.488 -59.242  1.00  0.00     0.014 A 
ENDBRANCH  11  15
BRANCH  13  21
HETATM   21  C   UNL     1     -41.423  60.911 -59.271  1.00  0.00     0.058 A 
HETATM   22  C   UNL     1     -40.698  61.759 -58.419  1.00  0.00     0.031 A 
HETATM   23  C   UNL     1     -40.114  62.927 -58.917  1.00  0.00     0.002 A 
HETATM   24  C   UNL     1     -40.251  63.257 -60.262  1.00  0.00     0.000 A 
HETATM   25  C   UNL     1     -40.973  62.423 -61.115  1.00  0.00     0.002 A 
HETATM   26  C   UNL     1     -41.558  61.251 -60.624  1.00  0.00     0.031 A 
ENDBRANCH  13  21
ENDBRANCH   7  10
BRANCH   1  27
HETATM   27  C   UNL     1     -44.644  58.874 -55.336  1.00  0.00     0.270 C 
HETATM   28  O   UNL     1     -44.556  60.012 -54.892  1.00  0.00    -0.265 OA
BRANCH  27  29
HETATM   29  O   UNL     1     -45.541  58.493 -56.275  1.00  0.00    -0.321 OA
BRANCH  29  30
HETATM   30  C   UNL     1     -46.050  59.528 -57.131  1.00  0.00     0.174 C 
HETATM   31  C   UNL     1     -47.357  59.094 -57.767  1.00  0.00     0.034 C 
ENDBRANCH  29  30
ENDBRANCH  27  29
ENDBRANCH   1  27
BRANCH   2  32
HETATM   32  C   UNL     1     -41.720  59.222 -53.936  1.00  0.00     0.439 C 
HETATM   33  F   UNL     1     -41.703  59.776 -55.165  1.00  0.00    -0.166 F 
HETATM   34  F   UNL     1     -42.053  60.205 -53.058  1.00  0.00    -0.166 F 
HETATM   35  F   UNL     1     -40.442  58.885 -53.645  1.00  0.00    -0.166 F 
ENDBRANCH   2  32
BRANCH   2  36
HETATM   36  O   UNL     1     -43.482  58.099 -52.592  1.00  0.00    -0.363 OA
HETATM   37  H   UNL     1     -43.110  57.436 -51.985  1.00  0.00     0.213 HD
ENDBRANCH   2  36
TORSDOF 8
ENDMDL
MODEL 9
REMARK VINA RESULT:      -7.1      2.294      3.540
REMARK  8 active torsions:
REMARK  status: ('A' for Active; 'I' for Inactive)
REMARK    1  A    between atoms: C_2  and  O_3 
REMARK    2  A    between atoms: O_3  and  C_4 
REMARK    3  A    between atoms: C_4  and  C_5 
REMARK    4  A    between atoms: C_6  and  C_8 
REMARK    5  A    between atoms: C_6  and  O_7 
REMARK    6  A    between atoms: C_16  and  C_17 
REMARK    7  A    between atoms: C_18  and  C_19 
REMARK    8  A    between atoms: N_26  and  C_27 
ROOT
HETATM    1  C   UNL     1     -42.243  59.595 -52.514  1.00  0.00     0.177 C 
HETATM    2  C   UNL     1     -43.593  60.272 -52.793  1.00  0.00     0.250 C 
HETATM    3  N   UNL     1     -43.367  61.286 -53.817  1.00  0.00    -0.303 N 
HETATM    4  C   UNL     1     -42.798  60.936 -54.998  1.00  0.00     0.319 C 
HETATM    5  O   UNL     1     -42.957  61.603 -56.009  1.00  0.00    -0.247 OA
HETATM    6  N   UNL     1     -42.071  59.796 -54.989  1.00  0.00    -0.333 N 
HETATM    7  C   UNL     1     -41.565  59.121 -53.806  1.00  0.00     0.142 C 
HETATM    8  H   UNL     1     -44.074  62.004 -53.933  1.00  0.00     0.167 HD
HETATM    9  H   UNL     1     -41.662  59.569 -55.889  1.00  0.00     0.165 HD
ENDROOT
BRANCH   7  10
HETATM   10  C   UNL     1     -41.527  57.650 -54.119  1.00  0.00     0.015 A 
HETATM   11  C   UNL     1     -42.070  56.982 -55.267  1.00  0.00     0.097 A 
HETATM   12  N   UNL     1     -41.819  55.667 -55.227  1.00  0.00    -0.167 NA
HETATM   13  N   UNL     1     -41.133  55.451 -54.087  1.00  0.00    -0.244 N 
HETATM   14  C   UNL     1     -40.949  56.625 -53.393  1.00  0.00     0.130 A 
BRANCH  11  15
HETATM   15  C   UNL     1     -42.804  57.531 -56.411  1.00  0.00    -0.005 A 
HETATM   16  C   UNL     1     -44.207  57.555 -56.384  1.00  0.00     0.014 A 
HETATM   17  C   UNL     1     -44.933  58.086 -57.452  1.00  0.00     0.001 A 
HETATM   18  C   UNL     1     -44.264  58.600 -58.560  1.00  0.00     0.000 A 
HETATM   19  C   UNL     1     -42.871  58.595 -58.595  1.00  0.00     0.001 A 
HETATM   20  C   UNL     1     -42.143  58.073 -57.522  1.00  0.00     0.014 A 
ENDBRANCH  11  15
BRANCH  13  21
HETATM   21  C   UNL     1     -40.692  54.144 -53.734  1.00  0.00     0.058 A 
HETATM   22  C   UNL     1     -40.529  53.816 -52.378  1.00  0.00     0.031 A 
HETATM   23  C   UNL     1     -40.102  52.539 -52.008  1.00  0.00     0.002 A 
HETATM   24  C   UNL     1     -39.834  51.582 -52.984  1.00  0.00     0.000 A 
HETATM   25  C   UNL     1     -39.991  51.900 -54.332  1.00  0.00     0.002 A 
HETATM   26  C   UNL     1     -40.420  53.176 -54.711  1.00  0.00     0.031 A 
ENDBRANCH  13  21
ENDBRANCH   7  10
BRANCH   1  27
HETATM   27  C   UNL     1     -42.157  58.592 -51.386  1.00  0.00     0.270 C 
HETATM   28  O   UNL     1     -43.099  57.880 -51.059  1.00  0.00    -0.265 OA
BRANCH  27  29
HETATM   29  O   UNL     1     -40.911  58.484 -50.870  1.00  0.00    -0.321 OA
BRANCH  29  30
HETATM   30  C   UNL     1     -40.378  59.657 -50.234  1.00  0.00     0.174 C 
HETATM   31  C   UNL     1     -38.869  59.703 -50.386  1.00  0.00     0.034 C 
ENDBRANCH  29  30
ENDBRANCH  27  29
ENDBRANCH   1  27
BRANCH   2  32
HETATM   32  C   UNL     1     -44.773  59.308 -53.196  1.00  0.00     0.439 C 
HETATM   33  F   UNL     1     -45.733  59.196 -52.256  1.00  0.00    -0.166 F 
HETATM   34  F   UNL     1     -45.375  59.746 -54.334  1.00  0.00    -0.166 F 
HETATM   35  F   UNL     1     -44.345  58.053 -53.466  1.00  0.00    -0.166 F 
ENDBRANCH   2  32
BRANCH   2  36
HETATM   36  O   UNL     1     -43.949  61.081 -51.662  1.00  0.00    -0.363 OA
HETATM   37  H   UNL     1     -44.916  61.016 -51.583  1.00  0.00     0.213 HD
ENDBRANCH   2  36
TORSDOF 8
ENDMDL
MODEL 10
REMARK VINA RESULT:      -7.0      2.391      5.689
REMARK  8 active torsions:
REMARK  status: ('A' for Active; 'I' for Inactive)
REMARK    1  A    between atoms: C_2  and  O_3 
REMARK    2  A    between atoms: O_3  and  C_4 
REMARK    3  A    between atoms: C_4  and  C_5 
REMARK    4  A    between atoms: C_6  and  C_8 
REMARK    5  A    between atoms: C_6  and  O_7 
REMARK    6  A    between atoms: C_16  and  C_17 
REMARK    7  A    between atoms: C_18  and  C_19 
REMARK    8  A    between atoms: N_26  and  C_27 
ROOT
HETATM    1  C   UNL     1     -41.656  56.034 -52.325  1.00  0.00     0.177 C 
HETATM    2  C   UNL     1     -42.396  56.318 -51.009  1.00  0.00     0.250 C 
HETATM    3  N   UNL     1     -41.692  57.409 -50.342  1.00  0.00    -0.303 N 
HETATM    4  C   UNL     1     -41.491  58.580 -50.997  1.00  0.00     0.319 C 
HETATM    5  O   UNL     1     -41.299  59.626 -50.395  1.00  0.00    -0.247 OA
HETATM    6  N   UNL     1     -41.541  58.520 -52.347  1.00  0.00    -0.333 N 
HETATM    7  C   UNL     1     -41.442  57.311 -53.147  1.00  0.00     0.142 C 
HETATM    8  H   UNL     1     -41.872  57.550 -49.354  1.00  0.00     0.167 HD
HETATM    9  H   UNL     1     -41.385  59.415 -52.798  1.00  0.00     0.165 HD
ENDROOT
BRANCH   7  10
HETATM   10  C   UNL     1     -42.265  57.534 -54.386  1.00  0.00     0.015 A 
HETATM   11  C   UNL     1     -43.156  58.623 -54.666  1.00  0.00     0.097 A 
HETATM   12  N   UNL     1     -43.694  58.509 -55.887  1.00  0.00    -0.167 NA
HETATM   13  N   UNL     1     -43.188  57.377 -56.415  1.00  0.00    -0.244 N 
HETATM   14  C   UNL     1     -42.329  56.763 -55.532  1.00  0.00     0.130 A 
BRANCH  11  15
HETATM   15  C   UNL     1     -43.513  59.778 -53.836  1.00  0.00    -0.005 A 
HETATM   16  C   UNL     1     -44.699  59.749 -53.087  1.00  0.00     0.014 A 
HETATM   17  C   UNL     1     -45.058  60.828 -52.275  1.00  0.00     0.001 A 
HETATM   18  C   UNL     1     -44.234  61.948 -52.204  1.00  0.00     0.000 A 
HETATM   19  C   UNL     1     -43.046  61.985 -52.933  1.00  0.00     0.001 A 
HETATM   20  C   UNL     1     -42.682  60.902 -53.737  1.00  0.00     0.014 A 
ENDBRANCH  11  15
BRANCH  13  21
HETATM   21  C   UNL     1     -43.548  56.957 -57.727  1.00  0.00     0.058 A 
HETATM   22  C   UNL     1     -44.326  57.804 -58.532  1.00  0.00     0.031 A 
HETATM   23  C   UNL     1     -44.687  57.414 -59.824  1.00  0.00     0.002 A 
HETATM   24  C   UNL     1     -44.277  56.179 -60.320  1.00  0.00     0.000 A 
HETATM   25  C   UNL     1     -43.506  55.330 -59.528  1.00  0.00     0.002 A 
HETATM   26  C   UNL     1     -43.139  55.715 -58.234  1.00  0.00     0.031 A 
ENDBRANCH  13  21
ENDBRANCH   7  10
BRANCH   1  27
HETATM   27  C   UNL     1     -42.092  54.849 -53.157  1.00  0.00     0.270 C 
HETATM   28  O   UNL     1     -43.262  54.499 -53.250  1.00  0.00    -0.265 OA
BRANCH  27  29
HETATM   29  O   UNL     1     -41.079  54.304 -53.869  1.00  0.00    -0.321 OA
BRANCH  29  30
HETATM   30  C   UNL     1     -40.417  53.174 -53.280  1.00  0.00     0.174 C 
HETATM   31  C   UNL     1     -40.538  51.960 -54.182  1.00  0.00     0.034 C 
ENDBRANCH  29  30
ENDBRANCH  27  29
ENDBRANCH   1  27
BRANCH   2  32
HETATM   32  C   UNL     1     -43.935  56.631 -51.142  1.00  0.00     0.439 C 
HETATM   33  F   UNL     1     -44.386  56.629 -52.413  1.00  0.00    -0.166 F 
HETATM   34  F   UNL     1     -44.666  55.712 -50.456  1.00  0.00    -0.166 F 
HETATM   35  F   UNL     1     -44.266  57.832 -50.614  1.00  0.00    -0.166 F 
ENDBRANCH   2  32
BRANCH   2  36
HETATM   36  O   UNL     1     -42.165  55.231 -50.103  1.00  0.00    -0.363 OA
HETATM   37  H   UNL     1     -42.845  54.566 -50.305  1.00  0.00     0.213 HD
ENDBRANCH   2  36
TORSDOF 8
ENDMDL
