MODEL 1
REMARK VINA RESULT:      -8.0      0.000      0.000
REMARK  5 active torsions:
REMARK  status: ('A' for Active; 'I' for Inactive)
REMARK    1  A    between atoms: C_2  and  C_3 
REMARK    2  A    between atoms: N_4  and  C_5 
REMARK    3  A    between atoms: C_5  and  C_6 
REMARK    4  A    between atoms: C_11  and  N_12 
REMARK       I    between atoms: N_12  and  C_13 
REMARK       I    between atoms: C_13  and  N_14 
REMARK    5  A    between atoms: N_14  and  C_15 
ROOT
HETATM    1  N   UNL     1     -40.979  57.586 -50.739  1.00  0.00    -0.306 N 
HETATM    2  C   UNL     1     -41.197  56.239 -50.700  1.00  0.00     0.321 C 
HETATM    3  N   UNL     1     -41.144  55.582 -51.896  1.00  0.00    -0.333 N 
HETATM    4  O   UNL     1     -41.356  55.680 -49.620  1.00  0.00    -0.247 OA
HETATM    5  H   UNL     1     -40.827  57.982 -49.823  1.00  0.00     0.171 HD
HETATM    6  H   UNL     1     -40.514  56.015 -52.559  1.00  0.00     0.165 HD
ENDROOT
BRANCH   1   7
HETATM    7  C   UNL     1     -41.228  58.473 -51.770  1.00  0.00     0.080 A 
HETATM    8  C   UNL     1     -42.451  59.069 -52.045  1.00  0.00     0.058 A 
HETATM    9  N   UNL     1     -42.253  59.741 -53.240  1.00  0.00    -0.272 N 
HETATM   10  N   UNL     1     -40.978  59.721 -53.665  1.00  0.00    -0.182 NA
HETATM   11  C   UNL     1     -40.366  58.923 -52.794  1.00  0.00     0.170 A 
BRANCH   8  12
HETATM   12  C   UNL     1     -43.787  59.101 -51.358  1.00  0.00     0.057 C 
HETATM   13  C   UNL     1     -44.586  57.810 -51.371  1.00  0.00     0.011 C 
ENDBRANCH   8  12
BRANCH   9  14
HETATM   14  C   UNL     1     -43.236  60.421 -54.070  1.00  0.00     0.155 C 
BRANCH  14  15
HETATM   15  C   UNL     1     -43.775  59.550 -55.220  1.00  0.00    -0.003 C 
HETATM   16  C   UNL     1     -45.150  58.958 -54.903  1.00  0.00     0.011 C 
HETATM   17  C   UNL     1     -43.855  60.377 -56.504  1.00  0.00     0.011 C 
ENDBRANCH  14  15
ENDBRANCH   9  14
ENDBRANCH   1   7
BRANCH   3  18
HETATM   18  C   UNL     1     -41.345  54.128 -52.021  1.00  0.00     0.039 C 
HETATM   19  C   UNL     1     -42.782  53.774 -51.580  1.00  0.00     0.039 C 
HETATM   20  C   UNL     1     -41.139  53.678 -53.503  1.00  0.00     0.070 C 
HETATM   21  C   UNL     1     -40.567  52.301 -53.354  1.00  0.00    -0.049 A 
HETATM   22  C   UNL     1     -40.100  52.089 -52.055  1.00  0.00    -0.049 A 
HETATM   23  C   UNL     1     -40.439  51.323 -54.326  1.00  0.00     0.007 A 
HETATM   24  C   UNL     1     -40.304  53.303 -51.202  1.00  0.00     0.070 C 
HETATM   25  C   UNL     1     -39.501  50.894 -51.696  1.00  0.00     0.007 A 
HETATM   26  C   UNL     1     -39.379  49.896 -52.664  1.00  0.00     0.001 A 
HETATM   27  C   UNL     1     -39.844  50.110 -53.970  1.00  0.00     0.001 A 
ENDBRANCH   3  18
TORSDOF 5
ENDMDL
MODEL 2
REMARK VINA RESULT:      -7.6      2.242      3.600
REMARK  5 active torsions:
REMARK  status: ('A' for Active; 'I' for Inactive)
REMARK    1  A    between atoms: C_2  and  C_3 
REMARK    2  A    between atoms: N_4  and  C_5 
REMARK    3  A    between atoms: C_5  and  C_6 
REMARK    4  A    between atoms: C_11  and  N_12 
REMARK       I    between atoms: N_12  and  C_13 
REMARK       I    between atoms: C_13  and  N_14 
REMARK    5  A    between atoms: N_14  and  C_15 
ROOT
HETATM    1  N   UNL     1     -44.458  55.988 -54.280  1.00  0.00    -0.306 N 
HETATM    2  C   UNL     1     -43.493  55.063 -54.556  1.00  0.00     0.321 C 
HETATM    3  N   UNL     1     -42.356  55.129 -53.802  1.00  0.00    -0.333 N 
HETATM    4  O   UNL     1     -43.708  54.193 -55.394  1.00  0.00    -0.247 OA
HETATM    5  H   UNL     1     -45.342  55.771 -54.714  1.00  0.00     0.171 HD
HETATM    6  H   UNL     1     -42.519  55.488 -52.870  1.00  0.00     0.165 HD
ENDROOT
BRANCH   1   7
HETATM    7  C   UNL     1     -44.310  57.265 -53.768  1.00  0.00     0.080 A 
HETATM    8  C   UNL     1     -44.234  57.591 -52.421  1.00  0.00     0.058 A 
HETATM    9  N   UNL     1     -44.246  58.976 -52.394  1.00  0.00    -0.272 N 
HETATM   10  N   UNL     1     -44.194  59.540 -53.614  1.00  0.00    -0.182 NA
HETATM   11  C   UNL     1     -44.268  58.503 -54.445  1.00  0.00     0.170 A 
BRANCH   8  12
HETATM   12  C   UNL     1     -44.155  56.800 -51.147  1.00  0.00     0.057 C 
HETATM   13  C   UNL     1     -42.771  56.347 -50.716  1.00  0.00     0.011 C 
ENDBRANCH   8  12
BRANCH   9  14
HETATM   14  C   UNL     1     -44.332  59.859 -51.241  1.00  0.00     0.155 C 
BRANCH  14  15
HETATM   15  C   UNL     1     -43.125  60.804 -51.099  1.00  0.00    -0.003 C 
HETATM   16  C   UNL     1     -43.440  62.021 -50.226  1.00  0.00     0.011 C 
HETATM   17  C   UNL     1     -41.937  60.042 -50.509  1.00  0.00     0.011 C 
ENDBRANCH  14  15
ENDBRANCH   9  14
ENDBRANCH   1   7
BRANCH   3  18
HETATM   18  C   UNL     1     -41.230  54.194 -53.969  1.00  0.00     0.039 C 
HETATM   19  C   UNL     1     -40.118  54.882 -54.791  1.00  0.00     0.039 C 
HETATM   20  C   UNL     1     -40.656  53.784 -52.574  1.00  0.00     0.070 C 
HETATM   21  C   UNL     1     -40.199  52.376 -52.806  1.00  0.00    -0.049 A 
HETATM   22  C   UNL     1     -40.760  51.852 -53.973  1.00  0.00    -0.049 A 
HETATM   23  C   UNL     1     -39.372  51.607 -52.005  1.00  0.00     0.007 A 
HETATM   24  C   UNL     1     -41.654  52.851 -54.640  1.00  0.00     0.070 C 
HETATM   25  C   UNL     1     -40.501  50.551 -54.369  1.00  0.00     0.007 A 
HETATM   26  C   UNL     1     -39.657  49.772 -53.577  1.00  0.00     0.001 A 
HETATM   27  C   UNL     1     -39.097  50.296 -52.402  1.00  0.00     0.001 A 
ENDBRANCH   3  18
TORSDOF 5
ENDMDL
MODEL 3
REMARK VINA RESULT:      -7.5      1.589      2.024
REMARK  5 active torsions:
REMARK  status: ('A' for Active; 'I' for Inactive)
REMARK    1  A    between atoms: C_2  and  C_3 
REMARK    2  A    between atoms: N_4  and  C_5 
REMARK    3  A    between atoms: C_5  and  C_6 
REMARK    4  A    between atoms: C_11  and  N_12 
REMARK       I    between atoms: N_12  and  C_13 
REMARK       I    between atoms: C_13  and  N_14 
REMARK    5  A    between atoms: N_14  and  C_15 
ROOT
HETATM    1  N   UNL     1     -42.501  58.258 -52.078  1.00  0.00    -0.306 N 
HETATM    2  C   UNL     1     -42.556  56.920 -51.812  1.00  0.00     0.321 C 
HETATM    3  N   UNL     1     -41.991  56.093 -52.741  1.00  0.00    -0.333 N 
HETATM    4  O   UNL     1     -43.033  56.531 -50.751  1.00  0.00    -0.247 OA
HETATM    5  H   UNL     1     -42.743  58.823 -51.279  1.00  0.00     0.171 HD
HETATM    6  H   UNL     1     -41.218  56.522 -53.234  1.00  0.00     0.165 HD
ENDROOT
BRANCH   1   7
HETATM    7  C   UNL     1     -42.458  58.894 -53.305  1.00  0.00     0.080 A 
HETATM    8  C   UNL     1     -43.469  58.883 -54.256  1.00  0.00     0.058 A 
HETATM    9  N   UNL     1     -42.919  59.514 -55.360  1.00  0.00    -0.272 N 
HETATM   10  N   UNL     1     -41.697  60.029 -55.134  1.00  0.00    -0.182 NA
HETATM   11  C   UNL     1     -41.405  59.622 -53.901  1.00  0.00     0.170 A 
BRANCH   8  12
HETATM   12  C   UNL     1     -44.879  58.367 -54.291  1.00  0.00     0.057 C 
HETATM   13  C   UNL     1     -45.050  56.884 -54.571  1.00  0.00     0.011 C 
ENDBRANCH   8  12
BRANCH   9  14
HETATM   14  C   UNL     1     -43.480  59.654 -56.696  1.00  0.00     0.155 C 
BRANCH  14  15
HETATM   15  C   UNL     1     -43.118  58.493 -57.639  1.00  0.00    -0.003 C 
HETATM   16  C   UNL     1     -44.329  57.988 -58.428  1.00  0.00     0.011 C 
HETATM   17  C   UNL     1     -42.021  58.934 -58.609  1.00  0.00     0.011 C 
ENDBRANCH  14  15
ENDBRANCH   9  14
ENDBRANCH   1   7
BRANCH   3  18
HETATM   18  C   UNL     1     -41.957  54.628 -52.594  1.00  0.00     0.039 C 
HETATM   19  C   UNL     1     -43.359  54.127 -52.186  1.00  0.00     0.039 C 
HETATM   20  C   UNL     1     -41.546  53.958 -53.945  1.00  0.00     0.070 C 
HETATM   21  C   UNL     1     -40.790  52.745 -53.496  1.00  0.00    -0.049 A 
HETATM   22  C   UNL     1     -40.421  52.852 -52.153  1.00  0.00    -0.049 A 
HETATM   23  C   UNL     1     -40.425  51.642 -54.249  1.00  0.00     0.007 A 
HETATM   24  C   UNL     1     -40.885  54.149 -51.566  1.00  0.00     0.070 C 
HETATM   25  C   UNL     1     -39.685  51.858 -51.532  1.00  0.00     0.007 A 
HETATM   26  C   UNL     1     -39.323  50.735 -52.278  1.00  0.00     0.001 A 
HETATM   27  C   UNL     1     -39.690  50.629 -53.629  1.00  0.00     0.001 A 
ENDBRANCH   3  18
TORSDOF 5
ENDMDL
MODEL 4
REMARK VINA RESULT:      -7.5      2.037      2.697
REMARK  5 active torsions:
REMARK  status: ('A' for Active; 'I' for Inactive)
REMARK    1  A    between atoms: C_2  and  C_3 
REMARK    2  A    between atoms: N_4  and  C_5 
REMARK    3  A    between atoms: C_5  and  C_6 
REMARK    4  A    between atoms: C_11  and  N_12 
REMARK       I    between atoms: N_12  and  C_13 
REMARK       I    between atoms: C_13  and  N_14 
REMARK    5  A    between atoms: N_14  and  C_15 
ROOT
HETATM    1  N   UNL     1     -41.033  57.878 -53.388  1.00  0.00    -0.306 N 
HETATM    2  C   UNL     1     -40.964  56.516 -53.439  1.00  0.00     0.321 C 
HETATM    3  N   UNL     1     -41.689  55.836 -52.502  1.00  0.00    -0.333 N 
HETATM    4  O   UNL     1     -40.332  55.973 -54.339  1.00  0.00    -0.247 OA
HETATM    5  H   UNL     1     -40.654  58.318 -54.212  1.00  0.00     0.171 HD
HETATM    6  H   UNL     1     -42.522  56.331 -52.210  1.00  0.00     0.165 HD
ENDROOT
BRANCH   1   7
HETATM    7  C   UNL     1     -41.259  58.691 -52.292  1.00  0.00     0.080 A 
HETATM    8  C   UNL     1     -42.486  59.224 -51.921  1.00  0.00     0.058 A 
HETATM    9  N   UNL     1     -42.194  60.081 -50.873  1.00  0.00    -0.272 N 
HETATM   10  N   UNL     1     -40.910  60.030 -50.476  1.00  0.00    -0.182 NA
HETATM   11  C   UNL     1     -40.339  59.215 -51.359  1.00  0.00     0.170 A 
BRANCH   8  12
HETATM   12  C   UNL     1     -43.899  59.056 -52.405  1.00  0.00     0.057 C 
HETATM   13  C   UNL     1     -44.667  57.870 -51.849  1.00  0.00     0.011 C 
ENDBRANCH   8  12
BRANCH   9  14
HETATM   14  C   UNL     1     -43.079  61.016 -50.194  1.00  0.00     0.155 C 
BRANCH  14  15
HETATM   15  C   UNL     1     -43.253  62.351 -50.941  1.00  0.00    -0.003 C 
HETATM   16  C   UNL     1     -44.703  62.591 -51.368  1.00  0.00     0.011 C 
HETATM   17  C   UNL     1     -42.779  63.506 -50.058  1.00  0.00     0.011 C 
ENDBRANCH  14  15
ENDBRANCH   9  14
ENDBRANCH   1   7
BRANCH   3  18
HETATM   18  C   UNL     1     -41.730  54.365 -52.432  1.00  0.00     0.039 C 
HETATM   19  C   UNL     1     -43.039  53.926 -51.740  1.00  0.00     0.039 C 
HETATM   20  C   UNL     1     -41.681  53.753 -53.869  1.00  0.00     0.070 C 
HETATM   21  C   UNL     1     -40.933  52.472 -53.658  1.00  0.00    -0.049 A 
HETATM   22  C   UNL     1     -40.268  52.476 -52.430  1.00  0.00    -0.049 A 
HETATM   23  C   UNL     1     -40.826  51.396 -54.523  1.00  0.00     0.007 A 
HETATM   24  C   UNL     1     -40.494  53.761 -51.696  1.00  0.00     0.070 C 
HETATM   25  C   UNL     1     -39.486  51.403 -52.037  1.00  0.00     0.007 A 
HETATM   26  C   UNL     1     -39.382  50.308 -52.896  1.00  0.00     0.001 A 
HETATM   27  C   UNL     1     -40.047  50.305 -54.131  1.00  0.00     0.001 A 
ENDBRANCH   3  18
TORSDOF 5
ENDMDL
MODEL 5
REMARK VINA RESULT:      -7.4      2.328      3.639
REMARK  5 active torsions:
REMARK  status: ('A' for Active; 'I' for Inactive)
REMARK    1  A    between atoms: C_2  and  C_3 
REMARK    2  A    between atoms: N_4  and  C_5 
REMARK    3  A    between atoms: C_5  and  C_6 
REMARK    4  A    between atoms: C_11  and  N_12 
REMARK       I    between atoms: N_12  and  C_13 
REMARK       I    between atoms: C_13  and  N_14 
REMARK    5  A    between atoms: N_14  and  C_15 
ROOT
HETATM    1  N   UNL     1     -44.419  56.646 -53.863  1.00  0.00    -0.306 N 
HETATM    2  C   UNL     1     -43.438  55.800 -54.293  1.00  0.00     0.321 C 
HETATM    3  N   UNL     1     -42.497  55.444 -53.371  1.00  0.00    -0.333 N 
HETATM    4  O   UNL     1     -43.481  55.351 -55.435  1.00  0.00    -0.247 OA
HETATM    5  H   UNL     1     -45.188  56.712 -54.512  1.00  0.00     0.171 HD
HETATM    6  H   UNL     1     -42.855  55.430 -52.424  1.00  0.00     0.165 HD
ENDROOT
BRANCH   1   7
HETATM    7  C   UNL     1     -44.359  57.601 -52.864  1.00  0.00     0.080 A 
HETATM    8  C   UNL     1     -43.548  58.728 -52.871  1.00  0.00     0.058 A 
HETATM    9  N   UNL     1     -43.717  59.289 -51.616  1.00  0.00    -0.272 N 
HETATM   10  N   UNL     1     -44.660  58.681 -50.875  1.00  0.00    -0.182 NA
HETATM   11  C   UNL     1     -45.023  57.638 -51.619  1.00  0.00     0.170 A 
BRANCH   8  12
HETATM   12  C   UNL     1     -42.631  59.361 -53.878  1.00  0.00     0.057 C 
HETATM   13  C   UNL     1     -41.170  58.950 -53.816  1.00  0.00     0.011 C 
ENDBRANCH   8  12
BRANCH   9  14
HETATM   14  C   UNL     1     -42.998  60.404 -51.019  1.00  0.00     0.155 C 
BRANCH  14  15
HETATM   15  C   UNL     1     -43.877  61.647 -50.785  1.00  0.00    -0.003 C 
HETATM   16  C   UNL     1     -43.075  62.828 -50.233  1.00  0.00     0.011 C 
HETATM   17  C   UNL     1     -44.559  62.054 -52.091  1.00  0.00     0.011 C 
ENDBRANCH  14  15
ENDBRANCH   9  14
ENDBRANCH   1   7
BRANCH   3  18
HETATM   18  C   UNL     1     -41.383  54.528 -53.674  1.00  0.00     0.039 C 
HETATM   19  C   UNL     1     -40.311  55.287 -54.487  1.00  0.00     0.039 C 
HETATM   20  C   UNL     1     -40.742  53.997 -52.352  1.00  0.00     0.070 C 
HETATM   21  C   UNL     1     -40.302  52.616 -52.729  1.00  0.00    -0.049 A 
HETATM   22  C   UNL     1     -40.922  52.197 -53.909  1.00  0.00    -0.049 A 
HETATM   23  C   UNL     1     -39.439  51.780 -52.042  1.00  0.00     0.007 A 
HETATM   24  C   UNL     1     -41.845  53.250 -54.439  1.00  0.00     0.070 C 
HETATM   25  C   UNL     1     -40.688  50.935 -54.431  1.00  0.00     0.007 A 
HETATM   26  C   UNL     1     -39.808  50.090 -53.753  1.00  0.00     0.001 A 
HETATM   27  C   UNL     1     -39.189  50.509 -52.565  1.00  0.00     0.001 A 
ENDBRANCH   3  18
TORSDOF 5
ENDMDL
MODEL 6
REMARK VINA RESULT:      -7.3      3.571      4.681
REMARK  5 active torsions:
REMARK  status: ('A' for Active; 'I' for Inactive)
REMARK    1  A    between atoms: C_2  and  C_3 
REMARK    2  A    between atoms: N_4  and  C_5 
REMARK    3  A    between atoms: C_5  and  C_6 
REMARK    4  A    between atoms: C_11  and  N_12 
REMARK       I    between atoms: N_12  and  C_13 
REMARK       I    between atoms: C_13  and  N_14 
REMARK    5  A    between atoms: N_14  and  C_15 
ROOT
HETATM    1  N   UNL     1     -42.647  58.325 -55.720  1.00  0.00    -0.306 N 
HETATM    2  C   UNL     1     -42.632  57.321 -54.795  1.00  0.00     0.321 C 
HETATM    3  N   UNL     1     -42.305  56.078 -55.256  1.00  0.00    -0.333 N 
HETATM    4  O   UNL     1     -42.837  57.581 -53.614  1.00  0.00    -0.247 OA
HETATM    5  H   UNL     1     -42.691  59.241 -55.299  1.00  0.00     0.171 HD
HETATM    6  H   UNL     1     -41.675  56.102 -56.048  1.00  0.00     0.165 HD
ENDROOT
BRANCH   1   7
HETATM    7  C   UNL     1     -42.904  58.247 -57.076  1.00  0.00     0.080 A 
HETATM    8  C   UNL     1     -44.163  58.180 -57.657  1.00  0.00     0.058 A 
HETATM    9  N   UNL     1     -43.917  57.962 -59.003  1.00  0.00    -0.272 N 
HETATM   10  N   UNL     1     -42.613  58.016 -59.329  1.00  0.00    -0.182 NA
HETATM   11  C   UNL     1     -41.999  58.153 -58.156  1.00  0.00     0.170 A 
BRANCH   8  12
HETATM   12  C   UNL     1     -45.569  58.285 -57.141  1.00  0.00     0.057 C 
HETATM   13  C   UNL     1     -46.257  59.627 -57.320  1.00  0.00     0.011 C 
ENDBRANCH   8  12
BRANCH   9  14
HETATM   14  C   UNL     1     -44.871  57.666 -60.061  1.00  0.00     0.155 C 
BRANCH  14  15
HETATM   15  C   UNL     1     -45.512  56.271 -59.938  1.00  0.00    -0.003 C 
HETATM   16  C   UNL     1     -47.015  56.297 -60.224  1.00  0.00     0.011 C 
HETATM   17  C   UNL     1     -44.823  55.297 -60.895  1.00  0.00     0.011 C 
ENDBRANCH  14  15
ENDBRANCH   9  14
ENDBRANCH   1   7
BRANCH   3  18
HETATM   18  C   UNL     1     -42.232  54.894 -54.382  1.00  0.00     0.039 C 
HETATM   19  C   UNL     1     -43.661  54.479 -53.970  1.00  0.00     0.039 C 
HETATM   20  C   UNL     1     -41.552  53.706 -55.136  1.00  0.00     0.070 C 
HETATM   21  C   UNL     1     -40.836  52.983 -54.037  1.00  0.00    -0.049 A 
HETATM   22  C   UNL     1     -40.724  53.785 -52.899  1.00  0.00    -0.049 A 
HETATM   23  C   UNL     1     -40.290  51.711 -54.069  1.00  0.00     0.007 A 
HETATM   24  C   UNL     1     -41.346  55.129 -53.120  1.00  0.00     0.070 C 
HETATM   25  C   UNL     1     -40.069  53.331 -51.766  1.00  0.00     0.007 A 
HETATM   26  C   UNL     1     -39.527  52.045 -51.783  1.00  0.00     0.001 A 
HETATM   27  C   UNL     1     -39.635  51.241 -52.927  1.00  0.00     0.001 A 
ENDBRANCH   3  18
TORSDOF 5
ENDMDL
MODEL 7
REMARK VINA RESULT:      -7.2      2.574      4.018
REMARK  5 active torsions:
REMARK  status: ('A' for Active; 'I' for Inactive)
REMARK    1  A    between atoms: C_2  and  C_3 
REMARK    2  A    between atoms: N_4  and  C_5 
REMARK    3  A    between atoms: C_5  and  C_6 
REMARK    4  A    between atoms: C_11  and  N_12 
REMARK       I    between atoms: N_12  and  C_13 
REMARK       I    between atoms: C_13  and  N_14 
REMARK    5  A    between atoms: N_14  and  C_15 
ROOT
HETATM    1  N   UNL     1     -44.725  56.376 -54.424  1.00  0.00    -0.306 N 
HETATM    2  C   UNL     1     -43.746  55.432 -54.305  1.00  0.00     0.321 C 
HETATM    3  N   UNL     1     -42.462  55.894 -54.253  1.00  0.00    -0.333 N 
HETATM    4  O   UNL     1     -44.053  54.251 -54.181  1.00  0.00    -0.247 OA
HETATM    5  H   UNL     1     -45.647  56.004 -54.253  1.00  0.00     0.171 HD
HETATM    6  H   UNL     1     -42.388  56.814 -53.839  1.00  0.00     0.165 HD
ENDROOT
BRANCH   1   7
HETATM    7  C   UNL     1     -44.654  57.625 -55.014  1.00  0.00     0.080 A 
HETATM    8  C   UNL     1     -44.429  57.871 -56.361  1.00  0.00     0.058 A 
HETATM    9  N   UNL     1     -44.289  59.246 -56.449  1.00  0.00    -0.272 N 
HETATM   10  N   UNL     1     -44.535  59.888 -55.293  1.00  0.00    -0.182 NA
HETATM   11  C   UNL     1     -44.720  58.903 -54.417  1.00  0.00     0.170 A 
BRANCH   8  12
HETATM   12  C   UNL     1     -44.320  57.009 -57.587  1.00  0.00     0.057 C 
HETATM   13  C   UNL     1     -43.009  56.267 -57.779  1.00  0.00     0.011 C 
ENDBRANCH   8  12
BRANCH   9  14
HETATM   14  C   UNL     1     -43.895  60.045 -57.600  1.00  0.00     0.155 C 
BRANCH  14  15
HETATM   15  C   UNL     1     -42.390  59.969 -57.914  1.00  0.00    -0.003 C 
HETATM   16  C   UNL     1     -42.120  59.555 -59.362  1.00  0.00     0.011 C 
HETATM   17  C   UNL     1     -41.733  61.323 -57.635  1.00  0.00     0.011 C 
ENDBRANCH  14  15
ENDBRANCH   9  14
ENDBRANCH   1   7
BRANCH   3  18
HETATM   18  C   UNL     1     -41.296  55.004 -54.112  1.00  0.00     0.039 C 
HETATM   19  C   UNL     1     -40.035  55.737 -54.620  1.00  0.00     0.039 C 
HETATM   20  C   UNL     1     -41.092  54.613 -52.613  1.00  0.00     0.070 C 
HETATM   21  C   UNL     1     -40.536  53.224 -52.707  1.00  0.00    -0.049 A 
HETATM   22  C   UNL     1     -40.751  52.683 -53.977  1.00  0.00    -0.049 A 
HETATM   23  C   UNL     1     -39.918  52.485 -51.712  1.00  0.00     0.007 A 
HETATM   24  C   UNL     1     -41.478  53.648 -54.861  1.00  0.00     0.070 C 
HETATM   25  C   UNL     1     -40.347  51.394 -54.282  1.00  0.00     0.007 A 
HETATM   26  C   UNL     1     -39.711  50.645 -53.291  1.00  0.00     0.001 A 
HETATM   27  C   UNL     1     -39.500  51.187 -52.014  1.00  0.00     0.001 A 
ENDBRANCH   3  18
TORSDOF 5
ENDMDL
MODEL 8
REMARK VINA RESULT:      -7.0      2.833      4.377
REMARK  5 active torsions:
REMARK  status: ('A' for Active; 'I' for Inactive)
REMARK    1  A    between atoms: C_2  and  C_3 
REMARK    2  A    between atoms: N_4  and  C_5 
REMARK    3  A    between atoms: C_5  and  C_6 
REMARK    4  A    between atoms: C_11  and  N_12 
REMARK       I    between atoms: N_12  and  C_13 
REMARK       I    between atoms: C_13  and  N_14 
REMARK    5  A    between atoms: N_14  and  C_15 
ROOT
HETATM    1  N   UNL     1     -43.972  58.524 -52.773  1.00  0.00    -0.306 N 
HETATM    2  C   UNL     1     -43.362  57.304 -52.820  1.00  0.00     0.321 C 
HETATM    3  N   UNL     1     -43.761  56.390 -51.888  1.00  0.00    -0.333 N 
HETATM    4  O   UNL     1     -42.557  57.062 -53.714  1.00  0.00    -0.247 OA
HETATM    5  H   UNL     1     -43.794  59.081 -53.596  1.00  0.00     0.171 HD
HETATM    6  H   UNL     1     -44.725  56.509 -51.603  1.00  0.00     0.165 HD
ENDROOT
BRANCH   1   7
HETATM    7  C   UNL     1     -44.515  59.178 -51.682  1.00  0.00     0.080 A 
HETATM    8  C   UNL     1     -43.861  60.118 -50.896  1.00  0.00     0.058 A 
HETATM    9  N   UNL     1     -44.735  60.370 -49.852  1.00  0.00    -0.272 N 
HETATM   10  N   UNL     1     -45.928  59.765 -49.988  1.00  0.00    -0.182 NA
HETATM   11  C   UNL     1     -45.780  59.016 -51.077  1.00  0.00     0.170 A 
BRANCH   8  12
HETATM   12  C   UNL     1     -42.534  60.817 -50.973  1.00  0.00     0.057 C 
HETATM   13  C   UNL     1     -41.333  60.050 -50.448  1.00  0.00     0.011 C 
ENDBRANCH   8  12
BRANCH   9  14
HETATM   14  C   UNL     1     -44.509  61.166 -48.654  1.00  0.00     0.155 C 
BRANCH  14  15
HETATM   15  C   UNL     1     -45.726  61.218 -47.712  1.00  0.00    -0.003 C 
HETATM   16  C   UNL     1     -45.411  60.649 -46.327  1.00  0.00     0.011 C 
HETATM   17  C   UNL     1     -46.217  62.660 -47.577  1.00  0.00     0.011 C 
ENDBRANCH  14  15
ENDBRANCH   9  14
ENDBRANCH   1   7
BRANCH   3  18
HETATM   18  C   UNL     1     -43.209  55.026 -51.815  1.00  0.00     0.039 C 
HETATM   19  C   UNL     1     -44.181  54.128 -51.019  1.00  0.00     0.039 C 
HETATM   20  C   UNL     1     -43.028  54.438 -53.251  1.00  0.00     0.070 C 
HETATM   21  C   UNL     1     -41.820  53.564 -53.101  1.00  0.00    -0.049 A 
HETATM   22  C   UNL     1     -41.121  53.871 -51.931  1.00  0.00    -0.049 A 
HETATM   23  C   UNL     1     -41.359  52.591 -53.971  1.00  0.00     0.007 A 
HETATM   24  C   UNL     1     -41.784  54.985 -51.181  1.00  0.00     0.070 C 
HETATM   25  C   UNL     1     -39.951  53.209 -51.602  1.00  0.00     0.007 A 
HETATM   26  C   UNL     1     -39.485  52.216 -52.465  1.00  0.00     0.001 A 
HETATM   27  C   UNL     1     -40.184  51.911 -53.643  1.00  0.00     0.001 A 
ENDBRANCH   3  18
TORSDOF 5
ENDMDL
MODEL 9
REMARK VINA RESULT:      -6.9      1.281      2.110
REMARK  5 active torsions:
REMARK  status: ('A' for Active; 'I' for Inactive)
REMARK    1  A    between atoms: C_2  and  C_3 
REMARK    2  A    between atoms: N_4  and  C_5 
REMARK    3  A    between atoms: C_5  and  C_6 
REMARK    4  A    between atoms: C_11  and  N_12 
REMARK       I    between atoms: N_12  and  C_13 
REMARK       I    between atoms: C_13  and  N_14 
REMARK    5  A    between atoms: N_14  and  C_15 
ROOT
HETATM    1  N   UNL     1     -42.250  58.127 -50.676  1.00  0.00    -0.306 N 
HETATM    2  C   UNL     1     -42.081  56.773 -50.657  1.00  0.00     0.321 C 
HETATM    3  N   UNL     1     -42.379  56.108 -51.811  1.00  0.00    -0.333 N 
HETATM    4  O   UNL     1     -41.615  56.234 -49.658  1.00  0.00    -0.247 OA
HETATM    5  H   UNL     1     -41.827  58.584 -49.882  1.00  0.00     0.171 HD
HETATM    6  H   UNL     1     -42.225  56.667 -52.641  1.00  0.00     0.165 HD
ENDROOT
BRANCH   1   7
HETATM    7  C   UNL     1     -43.132  58.877 -51.433  1.00  0.00     0.080 A 
HETATM    8  C   UNL     1     -42.897  59.349 -52.717  1.00  0.00     0.058 A 
HETATM    9  N   UNL     1     -43.983  60.162 -52.996  1.00  0.00    -0.272 N 
HETATM   10  N   UNL     1     -44.935  60.135 -52.048  1.00  0.00    -0.182 NA
HETATM   11  C   UNL     1     -44.403  59.385 -51.086  1.00  0.00     0.170 A 
BRANCH   8  12
HETATM   12  C   UNL     1     -41.802  59.156 -53.727  1.00  0.00     0.057 C 
HETATM   13  C   UNL     1     -40.413  58.882 -53.176  1.00  0.00     0.011 C 
ENDBRANCH   8  12
BRANCH   9  14
HETATM   14  C   UNL     1     -44.191  61.031 -54.145  1.00  0.00     0.155 C 
BRANCH  14  15
HETATM   15  C   UNL     1     -45.389  60.616 -55.020  1.00  0.00    -0.003 C 
HETATM   16  C   UNL     1     -45.574  61.541 -56.225  1.00  0.00     0.011 C 
HETATM   17  C   UNL     1     -45.205  59.175 -55.500  1.00  0.00     0.011 C 
ENDBRANCH  14  15
ENDBRANCH   9  14
ENDBRANCH   1   7
BRANCH   3  18
HETATM   18  C   UNL     1     -42.236  54.649 -51.955  1.00  0.00     0.039 C 
HETATM   19  C   UNL     1     -43.457  53.954 -51.314  1.00  0.00     0.039 C 
HETATM   20  C   UNL     1     -42.160  54.258 -53.466  1.00  0.00     0.070 C 
HETATM   21  C   UNL     1     -41.254  53.065 -53.454  1.00  0.00    -0.049 A 
HETATM   22  C   UNL     1     -40.554  52.979 -52.249  1.00  0.00    -0.049 A 
HETATM   23  C   UNL     1     -41.045  52.145 -54.468  1.00  0.00     0.007 A 
HETATM   24  C   UNL     1     -40.911  54.108 -51.333  1.00  0.00     0.070 C 
HETATM   25  C   UNL     1     -39.633  51.968 -52.027  1.00  0.00     0.007 A 
HETATM   26  C   UNL     1     -39.424  51.028 -53.037  1.00  0.00     0.001 A 
HETATM   27  C   UNL     1     -40.124  51.117 -54.250  1.00  0.00     0.001 A 
ENDBRANCH   3  18
TORSDOF 5
ENDMDL
MODEL 10
REMARK VINA RESULT:      -6.8      3.718      8.720
REMARK  5 active torsions:
REMARK  status: ('A' for Active; 'I' for Inactive)
REMARK    1  A    between atoms: C_2  and  C_3 
REMARK    2  A    between atoms: N_4  and  C_5 
REMARK    3  A    between atoms: C_5  and  C_6 
REMARK    4  A    between atoms: C_11  and  N_12 
REMARK       I    between atoms: N_12  and  C_13 
REMARK       I    between atoms: C_13  and  N_14 
REMARK    5  A    between atoms: N_14  and  C_15 
ROOT
HETATM    1  N   UNL     1     -43.192  55.778 -56.357  1.00  0.00    -0.306 N 
HETATM    2  C   UNL     1     -43.418  56.745 -57.294  1.00  0.00     0.321 C 
HETATM    3  N   UNL     1     -42.880  57.974 -57.038  1.00  0.00    -0.333 N 
HETATM    4  O   UNL     1     -44.015  56.462 -58.328  1.00  0.00    -0.247 OA
HETATM    5  H   UNL     1     -43.430  54.854 -56.687  1.00  0.00     0.171 HD
HETATM    6  H   UNL     1     -42.029  57.928 -56.493  1.00  0.00     0.165 HD
ENDROOT
BRANCH   1   7
HETATM    7  C   UNL     1     -42.984  55.923 -54.998  1.00  0.00     0.080 A 
HETATM    8  C   UNL     1     -41.794  55.667 -54.331  1.00  0.00     0.058 A 
HETATM    9  N   UNL     1     -42.108  55.803 -52.988  1.00  0.00    -0.272 N 
HETATM   10  N   UNL     1     -43.359  56.245 -52.769  1.00  0.00    -0.182 NA
HETATM   11  C   UNL     1     -43.899  56.283 -53.984  1.00  0.00     0.170 A 
BRANCH   8  12
HETATM   12  C   UNL     1     -40.400  55.310 -54.761  1.00  0.00     0.057 C 
HETATM   13  C   UNL     1     -40.157  53.859 -55.134  1.00  0.00     0.011 C 
ENDBRANCH   8  12
BRANCH   9  14
HETATM   14  C   UNL     1     -41.278  55.506 -51.830  1.00  0.00     0.155 C 
BRANCH  14  15
HETATM   15  C   UNL     1     -41.646  54.183 -51.134  1.00  0.00    -0.003 C 
HETATM   16  C   UNL     1     -40.672  53.055 -51.481  1.00  0.00     0.011 C 
HETATM   17  C   UNL     1     -41.678  54.386 -49.618  1.00  0.00     0.011 C 
ENDBRANCH  14  15
ENDBRANCH   9  14
ENDBRANCH   1   7
BRANCH   3  18
HETATM   18  C   UNL     1     -43.023  59.117 -57.956  1.00  0.00     0.039 C 
HETATM   19  C   UNL     1     -44.460  59.673 -57.853  1.00  0.00     0.039 C 
HETATM   20  C   UNL     1     -42.010  60.245 -57.577  1.00  0.00     0.070 C 
HETATM   21  C   UNL     1     -41.681  60.854 -58.906  1.00  0.00    -0.049 A 
HETATM   22  C   UNL     1     -42.065  60.012 -59.953  1.00  0.00    -0.049 A 
HETATM   23  C   UNL     1     -41.047  62.059 -59.157  1.00  0.00     0.007 A 
HETATM   24  C   UNL     1     -42.684  58.751 -59.434  1.00  0.00     0.070 C 
HETATM   25  C   UNL     1     -41.830  60.358 -61.273  1.00  0.00     0.007 A 
HETATM   26  C   UNL     1     -41.205  61.578 -61.537  1.00  0.00     0.001 A 
HETATM   27  C   UNL     1     -40.814  62.421 -60.486  1.00  0.00     0.001 A 
ENDBRANCH   3  18
TORSDOF 5
ENDMDL
