MODEL 1
REMARK VINA RESULT:      -9.4      0.000      0.000
REMARK  7 active torsions:
REMARK  status: ('A' for Active; 'I' for Inactive)
REMARK    1  A    between atoms: C_2  and  C_3 
REMARK    2  A    between atoms: C_6  and  C_7 
REMARK    3  A    between atoms: C_10  and  C_11 
REMARK       I    between atoms: C_11  and  N_12 
REMARK    4  A    between atoms: N_12  and  C_13 
REMARK    5  A    between atoms: C_25  and  C_26 
REMARK       I    between atoms: C_26  and  N_27 
REMARK    6  A    between atoms: N_27  and  C_28 
REMARK    7  A    between atoms: C_31  and  O_32 
ROOT
HETATM    1  C   UNL     1     -43.357  56.736 -54.943  1.00  0.00     0.185 C 
HETATM    2  N   UNL     1     -43.462  57.435 -53.654  1.00  0.00    -0.239 N 
HETATM    3  C   UNL     1     -42.931  58.679 -53.408  1.00  0.00     0.142 A 
HETATM    4  C   UNL     1     -43.161  58.923 -52.066  1.00  0.00     0.097 A 
HETATM    5  C   UNL     1     -43.946  57.814 -51.650  1.00  0.00     0.160 A 
HETATM    6  N   UNL     1     -44.150  56.916 -52.616  1.00  0.00    -0.181 NA
HETATM    7  N   UNL     1     -42.378  59.366 -54.444  1.00  0.00    -0.343 N 
HETATM    8  C   UNL     1     -42.514  58.937 -55.775  1.00  0.00     0.021 C 
HETATM    9  C   UNL     1     -42.103  59.947 -56.821  1.00  0.00     0.069 C 
HETATM   10  C   UNL     1     -42.998  57.700 -56.063  1.00  0.00     0.061 C 
HETATM   11  H   UNL     1     -42.266  60.379 -54.369  1.00  0.00     0.167 HD
ENDROOT
BRANCH  10  12
HETATM   12  C   UNL     1     -43.419  57.335 -57.456  1.00  0.00     0.256 C 
HETATM   13  N   UNL     1     -44.769  57.096 -57.614  1.00  0.00    -0.323 N 
HETATM   14  H   UNL     1     -45.352  57.058 -56.789  1.00  0.00     0.169 HD
HETATM   15  O   UNL     1     -42.582  57.329 -58.353  1.00  0.00    -0.267 OA
BRANCH  13  16
HETATM   16  C   UNL     1     -45.471  56.922 -58.828  1.00  0.00     0.035 A 
HETATM   17  C   UNL     1     -46.508  57.744 -59.264  1.00  0.00     0.032 A 
HETATM   18  C   UNL     1     -47.174  57.467 -60.466  1.00  0.00     0.039 A 
HETATM   19  C   UNL     1     -46.825  56.362 -61.241  1.00  0.00     0.068 A 
HETATM   20  C   UNL     1     -45.781  55.542 -60.817  1.00  0.00     0.039 A 
HETATM   21  C   UNL     1     -45.107  55.825 -59.621  1.00  0.00     0.032 A 
BRANCH  19  22
HETATM   22  O   UNL     1     -47.568  56.200 -62.377  1.00  0.00    -0.356 OA
HETATM   23  C   UNL     1     -48.814  56.882 -62.431  1.00  0.00     0.210 C 
ENDBRANCH  19  22
ENDBRANCH  13  16
ENDBRANCH  10  12
BRANCH   1  24
HETATM   24  C   UNL     1     -42.383  55.563 -54.780  1.00  0.00    -0.029 A 
HETATM   25  C   UNL     1     -42.889  54.289 -54.474  1.00  0.00     0.010 A 
HETATM   26  C   UNL     1     -42.032  53.204 -54.284  1.00  0.00     0.007 A 
HETATM   27  C   UNL     1     -40.646  53.362 -54.400  1.00  0.00    -0.059 A 
HETATM   28  C   UNL     1     -40.135  54.627 -54.705  1.00  0.00     0.007 A 
HETATM   29  C   UNL     1     -40.990  55.720 -54.881  1.00  0.00     0.010 A 
BRANCH  27  30
HETATM   30  C   UNL     1     -39.721  52.194 -54.169  1.00  0.00     0.034 C 
HETATM   31  C   UNL     1     -40.420  50.855 -54.346  1.00  0.00     0.010 C 
ENDBRANCH  27  30
ENDBRANCH   1  24
BRANCH   4  32
HETATM   32  C   UNL     1     -42.776  60.033 -51.211  1.00  0.00     0.261 C 
HETATM   33  N   UNL     1     -43.784  60.952 -50.982  1.00  0.00    -0.323 N 
HETATM   34  H   UNL     1     -44.656  60.784 -51.465  1.00  0.00     0.169 HD
HETATM   35  O   UNL     1     -41.628  60.107 -50.787  1.00  0.00    -0.267 OA
BRANCH  33  36
HETATM   36  C   UNL     1     -43.704  62.142 -50.226  1.00  0.00     0.035 A 
HETATM   37  C   UNL     1     -42.876  63.219 -50.551  1.00  0.00     0.029 A 
HETATM   38  C   UNL     1     -42.863  64.372 -49.759  1.00  0.00     0.002 A 
HETATM   39  C   UNL     1     -43.671  64.455 -48.629  1.00  0.00     0.000 A 
HETATM   40  C   UNL     1     -44.497  63.386 -48.293  1.00  0.00     0.002 A 
HETATM   41  C   UNL     1     -44.518  62.237 -49.091  1.00  0.00     0.029 A 
ENDBRANCH  33  36
ENDBRANCH   4  32
TORSDOF 7
ENDMDL
MODEL 2
REMARK VINA RESULT:      -9.1      3.251      8.326
REMARK  7 active torsions:
REMARK  status: ('A' for Active; 'I' for Inactive)
REMARK    1  A    between atoms: C_2  and  C_3 
REMARK    2  A    between atoms: C_6  and  C_7 
REMARK    3  A    between atoms: C_10  and  C_11 
REMARK       I    between atoms: C_11  and  N_12 
REMARK    4  A    between atoms: N_12  and  C_13 
REMARK    5  A    between atoms: C_25  and  C_26 
REMARK       I    between atoms: C_26  and  N_27 
REMARK    6  A    between atoms: N_27  and  C_28 
REMARK    7  A    between atoms: C_31  and  O_32 
ROOT
HETATM    1  C   UNL     1     -42.236  59.229 -54.922  1.00  0.00     0.185 C 
HETATM    2  N   UNL     1     -41.783  57.970 -54.314  1.00  0.00    -0.239 N 
HETATM    3  C   UNL     1     -42.087  56.724 -54.807  1.00  0.00     0.142 A 
HETATM    4  C   UNL     1     -41.561  55.825 -53.898  1.00  0.00     0.097 A 
HETATM    5  C   UNL     1     -40.859  56.647 -52.976  1.00  0.00     0.160 A 
HETATM    6  N   UNL     1     -40.973  57.952 -53.235  1.00  0.00    -0.181 NA
HETATM    7  N   UNL     1     -42.743  56.638 -55.997  1.00  0.00    -0.343 N 
HETATM    8  C   UNL     1     -42.936  57.760 -56.819  1.00  0.00     0.021 C 
HETATM    9  C   UNL     1     -43.414  57.456 -58.220  1.00  0.00     0.069 C 
HETATM   10  C   UNL     1     -42.686  59.014 -56.359  1.00  0.00     0.061 C 
HETATM   11  H   UNL     1     -42.705  55.766 -56.527  1.00  0.00     0.167 HD
ENDROOT
BRANCH  10  12
HETATM   12  C   UNL     1     -42.606  60.185 -57.295  1.00  0.00     0.256 C 
HETATM   13  N   UNL     1     -41.398  60.329 -57.947  1.00  0.00    -0.323 N 
HETATM   14  H   UNL     1     -40.627  59.737 -57.670  1.00  0.00     0.169 HD
HETATM   15  O   UNL     1     -43.599  60.884 -57.467  1.00  0.00    -0.267 OA
BRANCH  13  16
HETATM   16  C   UNL     1     -41.099  61.211 -59.010  1.00  0.00     0.035 A 
HETATM   17  C   UNL     1     -41.619  61.097 -60.298  1.00  0.00     0.032 A 
HETATM   18  C   UNL     1     -41.231  61.997 -61.299  1.00  0.00     0.039 A 
HETATM   19  C   UNL     1     -40.314  63.014 -61.035  1.00  0.00     0.068 A 
HETATM   20  C   UNL     1     -39.800  63.142 -59.747  1.00  0.00     0.039 A 
HETATM   21  C   UNL     1     -40.196  62.248 -58.741  1.00  0.00     0.032 A 
BRANCH  19  22
HETATM   22  O   UNL     1     -40.011  63.807 -62.106  1.00  0.00    -0.356 OA
HETATM   23  C   UNL     1     -38.903  63.412 -62.905  1.00  0.00     0.210 C 
ENDBRANCH  19  22
ENDBRANCH  13  16
ENDBRANCH  10  12
BRANCH   1  24
HETATM   24  C   UNL     1     -43.301  59.851 -54.012  1.00  0.00    -0.029 A 
HETATM   25  C   UNL     1     -42.975  60.984 -53.248  1.00  0.00     0.010 A 
HETATM   26  C   UNL     1     -43.907  61.558 -52.383  1.00  0.00     0.007 A 
HETATM   27  C   UNL     1     -45.192  61.018 -52.260  1.00  0.00    -0.059 A 
HETATM   28  C   UNL     1     -45.526  59.891 -53.016  1.00  0.00     0.007 A 
HETATM   29  C   UNL     1     -44.589  59.304 -53.874  1.00  0.00     0.010 A 
BRANCH  27  30
HETATM   30  C   UNL     1     -46.189  61.625 -51.304  1.00  0.00     0.034 C 
HETATM   31  C   UNL     1     -45.786  61.438 -49.849  1.00  0.00     0.010 C 
ENDBRANCH  27  30
ENDBRANCH   1  24
BRANCH   4  32
HETATM   32  C   UNL     1     -41.617  54.374 -53.838  1.00  0.00     0.261 C 
HETATM   33  N   UNL     1     -40.439  53.774 -53.430  1.00  0.00    -0.323 N 
HETATM   34  H   UNL     1     -39.659  54.395 -53.264  1.00  0.00     0.169 HD
HETATM   35  O   UNL     1     -42.643  53.788 -54.167  1.00  0.00    -0.267 OA
BRANCH  33  36
HETATM   36  C   UNL     1     -40.178  52.392 -53.307  1.00  0.00     0.035 A 
HETATM   37  C   UNL     1     -40.244  51.487 -54.369  1.00  0.00     0.029 A 
HETATM   38  C   UNL     1     -39.957  50.133 -54.171  1.00  0.00     0.002 A 
HETATM   39  C   UNL     1     -39.610  49.669 -52.905  1.00  0.00     0.000 A 
HETATM   40  C   UNL     1     -39.546  50.560 -51.838  1.00  0.00     0.002 A 
HETATM   41  C   UNL     1     -39.822  51.917 -52.039  1.00  0.00     0.029 A 
ENDBRANCH  33  36
ENDBRANCH   4  32
TORSDOF 7
ENDMDL
MODEL 3
REMARK VINA RESULT:      -8.8      2.571      6.851
REMARK  7 active torsions:
REMARK  status: ('A' for Active; 'I' for Inactive)
REMARK    1  A    between atoms: C_2  and  C_3 
REMARK    2  A    between atoms: C_6  and  C_7 
REMARK    3  A    between atoms: C_10  and  C_11 
REMARK       I    between atoms: C_11  and  N_12 
REMARK    4  A    between atoms: N_12  and  C_13 
REMARK    5  A    between atoms: C_25  and  C_26 
REMARK       I    between atoms: C_26  and  N_27 
REMARK    6  A    between atoms: N_27  and  C_28 
REMARK    7  A    between atoms: C_31  and  O_32 
ROOT
HETATM    1  C   UNL     1     -43.106  58.031 -54.411  1.00  0.00     0.185 C 
HETATM    2  N   UNL     1     -43.094  59.420 -53.931  1.00  0.00    -0.239 N 
HETATM    3  C   UNL     1     -43.701  59.839 -52.772  1.00  0.00     0.142 A 
HETATM    4  C   UNL     1     -43.542  61.212 -52.743  1.00  0.00     0.097 A 
HETATM    5  C   UNL     1     -42.717  61.481 -53.869  1.00  0.00     0.160 A 
HETATM    6  N   UNL     1     -42.424  60.393 -54.584  1.00  0.00    -0.181 NA
HETATM    7  N   UNL     1     -44.244  58.902 -51.947  1.00  0.00    -0.343 N 
HETATM    8  C   UNL     1     -44.029  57.528 -52.144  1.00  0.00     0.021 C 
HETATM    9  C   UNL     1     -44.447  56.640 -50.994  1.00  0.00     0.069 C 
HETATM   10  C   UNL     1     -43.467  57.067 -53.292  1.00  0.00     0.061 C 
HETATM   11  H   UNL     1     -44.414  59.135 -50.968  1.00  0.00     0.167 HD
ENDROOT
BRANCH  10  12
HETATM   12  C   UNL     1     -42.967  55.655 -53.402  1.00  0.00     0.256 C 
HETATM   13  N   UNL     1     -41.731  55.428 -52.832  1.00  0.00    -0.323 N 
HETATM   14  H   UNL     1     -41.200  56.222 -52.500  1.00  0.00     0.169 HD
HETATM   15  O   UNL     1     -43.684  54.804 -53.917  1.00  0.00    -0.267 OA
BRANCH  13  16
HETATM   16  C   UNL     1     -41.103  54.180 -52.618  1.00  0.00     0.035 A 
HETATM   17  C   UNL     1     -40.858  53.626 -51.363  1.00  0.00     0.032 A 
HETATM   18  C   UNL     1     -40.191  52.399 -51.250  1.00  0.00     0.039 A 
HETATM   19  C   UNL     1     -39.749  51.715 -52.382  1.00  0.00     0.068 A 
HETATM   20  C   UNL     1     -40.002  52.257 -53.640  1.00  0.00     0.039 A 
HETATM   21  C   UNL     1     -40.680  53.479 -53.755  1.00  0.00     0.032 A 
BRANCH  19  22
HETATM   22  O   UNL     1     -39.097  50.541 -52.125  1.00  0.00    -0.356 OA
HETATM   23  C   UNL     1     -39.515  49.813 -50.978  1.00  0.00     0.210 C 
ENDBRANCH  19  22
ENDBRANCH  13  16
ENDBRANCH  10  12
BRANCH   1  24
HETATM   24  C   UNL     1     -44.021  57.949 -55.638  1.00  0.00    -0.029 A 
HETATM   25  C   UNL     1     -43.496  57.492 -56.857  1.00  0.00     0.010 A 
HETATM   26  C   UNL     1     -44.289  57.436 -58.004  1.00  0.00     0.007 A 
HETATM   27  C   UNL     1     -45.631  57.832 -57.962  1.00  0.00    -0.059 A 
HETATM   28  C   UNL     1     -46.162  58.288 -56.752  1.00  0.00     0.007 A 
HETATM   29  C   UNL     1     -45.365  58.359 -55.605  1.00  0.00     0.010 A 
BRANCH  27  30
HETATM   30  C   UNL     1     -46.479  57.795 -59.209  1.00  0.00     0.034 C 
HETATM   31  C   UNL     1     -46.458  56.433 -59.886  1.00  0.00     0.010 C 
ENDBRANCH  27  30
ENDBRANCH   1  24
BRANCH   4  32
HETATM   32  C   UNL     1     -44.022  62.217 -51.809  1.00  0.00     0.261 C 
HETATM   33  N   UNL     1     -43.686  61.975 -50.489  1.00  0.00    -0.323 N 
HETATM   34  H   UNL     1     -43.190  61.113 -50.309  1.00  0.00     0.169 HD
HETATM   35  O   UNL     1     -44.693  63.159 -52.217  1.00  0.00    -0.267 OA
BRANCH  33  36
HETATM   36  C   UNL     1     -44.035  62.747 -49.360  1.00  0.00     0.035 A 
HETATM   37  C   UNL     1     -43.638  64.072 -49.167  1.00  0.00     0.029 A 
HETATM   38  C   UNL     1     -44.038  64.777 -48.027  1.00  0.00     0.002 A 
HETATM   39  C   UNL     1     -44.830  64.160 -47.064  1.00  0.00     0.000 A 
HETATM   40  C   UNL     1     -45.227  62.838 -47.242  1.00  0.00     0.002 A 
HETATM   41  C   UNL     1     -44.837  62.136 -48.388  1.00  0.00     0.029 A 
ENDBRANCH  33  36
ENDBRANCH   4  32
TORSDOF 7
ENDMDL
MODEL 4
REMARK VINA RESULT:      -8.6      3.964      7.089
REMARK  7 active torsions:
REMARK  status: ('A' for Active; 'I' for Inactive)
REMARK    1  A    between atoms: C_2  and  C_3 
REMARK    2  A    between atoms: C_6  and  C_7 
REMARK    3  A    between atoms: C_10  and  C_11 
REMARK       I    between atoms: C_11  and  N_12 
REMARK    4  A    between atoms: N_12  and  C_13 
REMARK    5  A    between atoms: C_25  and  C_26 
REMARK       I    between atoms: C_26  and  N_27 
REMARK    6  A    between atoms: N_27  and  C_28 
REMARK    7  A    between atoms: C_31  and  O_32 
ROOT
HETATM    1  C   UNL     1     -43.348  58.799 -54.710  1.00  0.00     0.185 C 
HETATM    2  N   UNL     1     -44.130  60.030 -54.533  1.00  0.00    -0.239 N 
HETATM    3  C   UNL     1     -45.152  60.169 -53.624  1.00  0.00     0.142 A 
HETATM    4  C   UNL     1     -45.682  61.427 -53.849  1.00  0.00     0.097 A 
HETATM    5  C   UNL     1     -44.815  61.990 -54.824  1.00  0.00     0.160 A 
HETATM    6  N   UNL     1     -43.857  61.153 -55.229  1.00  0.00    -0.181 NA
HETATM    7  N   UNL     1     -45.384  59.155 -52.746  1.00  0.00    -0.343 N 
HETATM    8  C   UNL     1     -44.496  58.076 -52.610  1.00  0.00     0.021 C 
HETATM    9  C   UNL     1     -44.735  57.194 -51.406  1.00  0.00     0.069 C 
HETATM   10  C   UNL     1     -43.495  57.878 -53.508  1.00  0.00     0.061 C 
HETATM   11  H   UNL     1     -45.903  59.346 -51.887  1.00  0.00     0.167 HD
ENDROOT
BRANCH  10  12
HETATM   12  C   UNL     1     -42.375  56.919 -53.225  1.00  0.00     0.256 C 
HETATM   13  N   UNL     1     -42.626  55.609 -53.576  1.00  0.00    -0.323 N 
HETATM   14  H   UNL     1     -43.560  55.359 -53.872  1.00  0.00     0.169 HD
HETATM   15  O   UNL     1     -41.318  57.349 -52.773  1.00  0.00    -0.267 OA
BRANCH  13  16
HETATM   16  C   UNL     1     -41.704  54.538 -53.603  1.00  0.00     0.035 A 
HETATM   17  C   UNL     1     -41.066  54.076 -54.752  1.00  0.00     0.032 A 
HETATM   18  C   UNL     1     -40.197  52.979 -54.686  1.00  0.00     0.039 A 
HETATM   19  C   UNL     1     -39.961  52.321 -53.480  1.00  0.00     0.068 A 
HETATM   20  C   UNL     1     -40.586  52.785 -52.324  1.00  0.00     0.039 A 
HETATM   21  C   UNL     1     -41.447  53.890 -52.387  1.00  0.00     0.032 A 
BRANCH  19  22
HETATM   22  O   UNL     1     -39.108  51.256 -53.563  1.00  0.00    -0.356 OA
HETATM   23  C   UNL     1     -39.680  50.000 -53.904  1.00  0.00     0.210 C 
ENDBRANCH  19  22
ENDBRANCH  13  16
ENDBRANCH  10  12
BRANCH   1  24
HETATM   24  C   UNL     1     -43.743  58.162 -56.047  1.00  0.00    -0.029 A 
HETATM   25  C   UNL     1     -42.792  57.407 -56.754  1.00  0.00     0.010 A 
HETATM   26  C   UNL     1     -43.103  56.840 -57.991  1.00  0.00     0.007 A 
HETATM   27  C   UNL     1     -44.373  57.008 -58.553  1.00  0.00    -0.059 A 
HETATM   28  C   UNL     1     -45.326  57.757 -57.855  1.00  0.00     0.007 A 
HETATM   29  C   UNL     1     -45.013  58.339 -56.622  1.00  0.00     0.010 A 
BRANCH  27  30
HETATM   30  C   UNL     1     -44.698  56.417 -59.901  1.00  0.00     0.034 C 
HETATM   31  C   UNL     1     -44.396  54.928 -59.971  1.00  0.00     0.010 C 
ENDBRANCH  27  30
ENDBRANCH   1  24
BRANCH   4  32
HETATM   32  C   UNL     1     -46.815  62.114 -53.252  1.00  0.00     0.261 C 
HETATM   33  N   UNL     1     -47.983  62.032 -53.989  1.00  0.00    -0.323 N 
HETATM   34  H   UNL     1     -47.916  61.551 -54.875  1.00  0.00     0.169 HD
HETATM   35  O   UNL     1     -46.673  62.726 -52.199  1.00  0.00    -0.267 OA
BRANCH  33  36
HETATM   36  C   UNL     1     -49.230  62.621 -53.686  1.00  0.00     0.035 A 
HETATM   37  C   UNL     1     -49.531  63.968 -53.900  1.00  0.00     0.029 A 
HETATM   38  C   UNL     1     -50.796  64.475 -53.588  1.00  0.00     0.002 A 
HETATM   39  C   UNL     1     -51.771  63.640 -53.049  1.00  0.00     0.000 A 
HETATM   40  C   UNL     1     -51.482  62.297 -52.827  1.00  0.00     0.002 A 
HETATM   41  C   UNL     1     -50.220  61.788 -53.150  1.00  0.00     0.029 A 
ENDBRANCH  33  36
ENDBRANCH   4  32
TORSDOF 7
ENDMDL
MODEL 5
REMARK VINA RESULT:      -8.4      3.709      8.019
REMARK  7 active torsions:
REMARK  status: ('A' for Active; 'I' for Inactive)
REMARK    1  A    between atoms: C_2  and  C_3 
REMARK    2  A    between atoms: C_6  and  C_7 
REMARK    3  A    between atoms: C_10  and  C_11 
REMARK       I    between atoms: C_11  and  N_12 
REMARK    4  A    between atoms: N_12  and  C_13 
REMARK    5  A    between atoms: C_25  and  C_26 
REMARK       I    between atoms: C_26  and  N_27 
REMARK    6  A    between atoms: N_27  and  C_28 
REMARK    7  A    between atoms: C_31  and  O_32 
ROOT
HETATM    1  C   UNL     1     -43.379  57.442 -53.171  1.00  0.00     0.185 C 
HETATM    2  N   UNL     1     -44.249  58.540 -53.615  1.00  0.00    -0.239 N 
HETATM    3  C   UNL     1     -44.391  58.928 -54.926  1.00  0.00     0.142 A 
HETATM    4  C   UNL     1     -45.207  60.044 -54.898  1.00  0.00     0.097 A 
HETATM    5  C   UNL     1     -45.590  60.149 -53.534  1.00  0.00     0.160 A 
HETATM    6  N   UNL     1     -45.027  59.225 -52.752  1.00  0.00    -0.181 NA
HETATM    7  N   UNL     1     -43.791  58.182 -55.894  1.00  0.00    -0.343 N 
HETATM    8  C   UNL     1     -43.211  56.934 -55.613  1.00  0.00     0.021 C 
HETATM    9  C   UNL     1     -42.851  56.105 -56.825  1.00  0.00     0.069 C 
HETATM   10  C   UNL     1     -43.016  56.527 -54.331  1.00  0.00     0.061 C 
HETATM   11  H   UNL     1     -44.123  58.251 -56.857  1.00  0.00     0.167 HD
ENDROOT
BRANCH  10  12
HETATM   12  C   UNL     1     -42.673  55.101 -54.011  1.00  0.00     0.256 C 
HETATM   13  N   UNL     1     -41.325  54.842 -53.870  1.00  0.00    -0.323 N 
HETATM   14  H   UNL     1     -40.666  55.572 -54.108  1.00  0.00     0.169 HD
HETATM   15  O   UNL     1     -43.578  54.291 -53.839  1.00  0.00    -0.267 OA
BRANCH  13  16
HETATM   16  C   UNL     1     -40.727  53.655 -53.391  1.00  0.00     0.035 A 
HETATM   17  C   UNL     1     -40.400  52.560 -54.188  1.00  0.00     0.032 A 
HETATM   18  C   UNL     1     -39.846  51.407 -53.615  1.00  0.00     0.039 A 
HETATM   19  C   UNL     1     -39.622  51.326 -52.241  1.00  0.00     0.068 A 
HETATM   20  C   UNL     1     -39.934  52.422 -51.440  1.00  0.00     0.039 A 
HETATM   21  C   UNL     1     -40.478  53.580 -52.014  1.00  0.00     0.032 A 
BRANCH  19  22
HETATM   22  O   UNL     1     -39.095  50.139 -51.815  1.00  0.00    -0.356 OA
HETATM   23  C   UNL     1     -39.681  49.555 -50.658  1.00  0.00     0.210 C 
ENDBRANCH  19  22
ENDBRANCH  13  16
ENDBRANCH  10  12
BRANCH   1  24
HETATM   24  C   UNL     1     -42.175  58.042 -52.437  1.00  0.00    -0.029 A 
HETATM   25  C   UNL     1     -42.179  58.083 -51.033  1.00  0.00     0.010 A 
HETATM   26  C   UNL     1     -41.116  58.653 -50.330  1.00  0.00     0.007 A 
HETATM   27  C   UNL     1     -40.019  59.194 -51.011  1.00  0.00    -0.059 A 
HETATM   28  C   UNL     1     -40.008  59.156 -52.409  1.00  0.00     0.007 A 
HETATM   29  C   UNL     1     -41.078  58.599 -53.117  1.00  0.00     0.010 A 
BRANCH  27  30
HETATM   30  C   UNL     1     -38.885  59.833 -50.250  1.00  0.00     0.034 C 
HETATM   31  C   UNL     1     -37.551  59.151 -50.514  1.00  0.00     0.010 C 
ENDBRANCH  27  30
ENDBRANCH   1  24
BRANCH   4  32
HETATM   32  C   UNL     1     -45.659  60.932 -55.956  1.00  0.00     0.261 C 
HETATM   33  N   UNL     1     -46.846  60.548 -56.554  1.00  0.00    -0.323 N 
HETATM   34  H   UNL     1     -47.245  59.678 -56.231  1.00  0.00     0.169 HD
HETATM   35  O   UNL     1     -44.981  61.905 -56.268  1.00  0.00    -0.267 OA
BRANCH  33  36
HETATM   36  C   UNL     1     -47.512  61.185 -57.624  1.00  0.00     0.035 A 
HETATM   37  C   UNL     1     -48.331  62.307 -57.476  1.00  0.00     0.029 A 
HETATM   38  C   UNL     1     -48.947  62.891 -58.588  1.00  0.00     0.002 A 
HETATM   39  C   UNL     1     -48.757  62.352 -59.857  1.00  0.00     0.000 A 
HETATM   40  C   UNL     1     -47.947  61.232 -60.016  1.00  0.00     0.002 A 
HETATM   41  C   UNL     1     -47.322  60.654 -58.905  1.00  0.00     0.029 A 
ENDBRANCH  33  36
ENDBRANCH   4  32
TORSDOF 7
ENDMDL
MODEL 6
REMARK VINA RESULT:      -8.4      2.519      9.168
REMARK  7 active torsions:
REMARK  status: ('A' for Active; 'I' for Inactive)
REMARK    1  A    between atoms: C_2  and  C_3 
REMARK    2  A    between atoms: C_6  and  C_7 
REMARK    3  A    between atoms: C_10  and  C_11 
REMARK       I    between atoms: C_11  and  N_12 
REMARK    4  A    between atoms: N_12  and  C_13 
REMARK    5  A    between atoms: C_25  and  C_26 
REMARK       I    between atoms: C_26  and  N_27 
REMARK    6  A    between atoms: N_27  and  C_28 
REMARK    7  A    between atoms: C_31  and  O_32 
ROOT
HETATM    1  C   UNL     1     -42.254  57.059 -56.556  1.00  0.00     0.185 C 
HETATM    2  N   UNL     1     -42.976  56.788 -57.807  1.00  0.00    -0.239 N 
HETATM    3  C   UNL     1     -44.311  57.055 -57.999  1.00  0.00     0.142 A 
HETATM    4  C   UNL     1     -44.612  56.563 -59.256  1.00  0.00     0.097 A 
HETATM    5  C   UNL     1     -43.354  56.143 -59.766  1.00  0.00     0.160 A 
HETATM    6  N   UNL     1     -42.352  56.296 -58.897  1.00  0.00    -0.181 NA
HETATM    7  N   UNL     1     -44.987  57.722 -57.024  1.00  0.00    -0.343 N 
HETATM    8  C   UNL     1     -44.325  58.313 -55.935  1.00  0.00     0.021 C 
HETATM    9  C   UNL     1     -45.167  59.255 -55.105  1.00  0.00     0.069 C 
HETATM   10  C   UNL     1     -43.016  58.046 -55.685  1.00  0.00     0.061 C 
HETATM   11  H   UNL     1     -45.860  58.198 -57.257  1.00  0.00     0.167 HD
ENDROOT
BRANCH  10  12
HETATM   12  C   UNL     1     -42.223  58.877 -54.719  1.00  0.00     0.256 C 
HETATM   13  N   UNL     1     -42.098  58.341 -53.454  1.00  0.00    -0.323 N 
HETATM   14  H   UNL     1     -42.634  57.515 -53.225  1.00  0.00     0.169 HD
HETATM   15  O   UNL     1     -41.701  59.916 -55.110  1.00  0.00    -0.267 OA
BRANCH  13  16
HETATM   16  C   UNL     1     -41.264  58.799 -52.409  1.00  0.00     0.035 A 
HETATM   17  C   UNL     1     -41.726  59.341 -51.211  1.00  0.00     0.032 A 
HETATM   18  C   UNL     1     -40.820  59.807 -50.249  1.00  0.00     0.039 A 
HETATM   19  C   UNL     1     -39.445  59.750 -50.471  1.00  0.00     0.068 A 
HETATM   20  C   UNL     1     -38.975  59.197 -51.660  1.00  0.00     0.039 A 
HETATM   21  C   UNL     1     -39.881  58.720 -52.619  1.00  0.00     0.032 A 
BRANCH  19  22
HETATM   22  O   UNL     1     -38.678  60.255 -49.459  1.00  0.00    -0.356 OA
HETATM   23  C   UNL     1     -37.317  59.844 -49.417  1.00  0.00     0.210 C 
ENDBRANCH  19  22
ENDBRANCH  13  16
ENDBRANCH  10  12
BRANCH   1  24
HETATM   24  C   UNL     1     -41.945  55.721 -55.874  1.00  0.00    -0.029 A 
HETATM   25  C   UNL     1     -42.967  54.766 -55.744  1.00  0.00     0.010 A 
HETATM   26  C   UNL     1     -42.734  53.550 -55.099  1.00  0.00     0.007 A 
HETATM   27  C   UNL     1     -41.472  53.254 -54.571  1.00  0.00    -0.059 A 
HETATM   28  C   UNL     1     -40.449  54.199 -54.697  1.00  0.00     0.007 A 
HETATM   29  C   UNL     1     -40.684  55.425 -55.330  1.00  0.00     0.010 A 
BRANCH  27  30
HETATM   30  C   UNL     1     -41.230  51.951 -53.852  1.00  0.00     0.034 C 
HETATM   31  C   UNL     1     -39.964  51.253 -54.325  1.00  0.00     0.010 C 
ENDBRANCH  27  30
ENDBRANCH   1  24
BRANCH   4  32
HETATM   32  C   UNL     1     -45.867  56.491 -59.985  1.00  0.00     0.261 C 
HETATM   33  N   UNL     1     -46.317  57.707 -60.467  1.00  0.00    -0.323 N 
HETATM   34  H   UNL     1     -45.759  58.514 -60.225  1.00  0.00     0.169 HD
HETATM   35  O   UNL     1     -46.446  55.416 -60.099  1.00  0.00    -0.267 OA
BRANCH  33  36
HETATM   36  C   UNL     1     -47.510  57.959 -61.178  1.00  0.00     0.035 A 
HETATM   37  C   UNL     1     -48.145  57.020 -61.996  1.00  0.00     0.029 A 
HETATM   38  C   UNL     1     -49.335  57.341 -62.658  1.00  0.00     0.002 A 
HETATM   39  C   UNL     1     -49.896  58.607 -62.517  1.00  0.00     0.000 A 
HETATM   40  C   UNL     1     -49.270  59.552 -61.709  1.00  0.00     0.002 A 
HETATM   41  C   UNL     1     -48.086  59.227 -61.038  1.00  0.00     0.029 A 
ENDBRANCH  33  36
ENDBRANCH   4  32
TORSDOF 7
ENDMDL
MODEL 7
REMARK VINA RESULT:      -8.4      4.019     10.438
REMARK  7 active torsions:
REMARK  status: ('A' for Active; 'I' for Inactive)
REMARK    1  A    between atoms: C_2  and  C_3 
REMARK    2  A    between atoms: C_6  and  C_7 
REMARK    3  A    between atoms: C_10  and  C_11 
REMARK       I    between atoms: C_11  and  N_12 
REMARK    4  A    between atoms: N_12  and  C_13 
REMARK    5  A    between atoms: C_25  and  C_26 
REMARK       I    between atoms: C_26  and  N_27 
REMARK    6  A    between atoms: N_27  and  C_28 
REMARK    7  A    between atoms: C_31  and  O_32 
ROOT
HETATM    1  C   UNL     1     -43.913  59.760 -52.436  1.00  0.00     0.185 C 
HETATM    2  N   UNL     1     -43.603  58.400 -52.899  1.00  0.00    -0.239 N 
HETATM    3  C   UNL     1     -42.374  57.801 -52.761  1.00  0.00     0.142 A 
HETATM    4  C   UNL     1     -42.477  56.584 -53.410  1.00  0.00     0.097 A 
HETATM    5  C   UNL     1     -43.847  56.514 -53.782  1.00  0.00     0.160 A 
HETATM    6  N   UNL     1     -44.541  57.607 -53.457  1.00  0.00    -0.181 NA
HETATM    7  N   UNL     1     -41.412  58.447 -52.046  1.00  0.00    -0.343 N 
HETATM    8  C   UNL     1     -41.698  59.595 -51.289  1.00  0.00     0.021 C 
HETATM    9  C   UNL     1     -40.610  60.021 -50.331  1.00  0.00     0.069 C 
HETATM   10  C   UNL     1     -42.886  60.242 -51.422  1.00  0.00     0.061 C 
HETATM   11  H   UNL     1     -40.626  57.915 -51.669  1.00  0.00     0.167 HD
ENDROOT
BRANCH  10  12
HETATM   12  C   UNL     1     -43.323  61.280 -50.430  1.00  0.00     0.256 C 
HETATM   13  N   UNL     1     -44.238  60.844 -49.494  1.00  0.00    -0.323 N 
HETATM   14  H   UNL     1     -44.641  59.923 -49.605  1.00  0.00     0.169 HD
HETATM   15  O   UNL     1     -42.816  62.396 -50.468  1.00  0.00    -0.267 OA
BRANCH  13  16
HETATM   16  C   UNL     1     -44.678  61.533 -48.341  1.00  0.00     0.035 A 
HETATM   17  C   UNL     1     -44.700  62.920 -48.213  1.00  0.00     0.032 A 
HETATM   18  C   UNL     1     -45.115  63.513 -47.013  1.00  0.00     0.039 A 
HETATM   19  C   UNL     1     -45.501  62.734 -45.923  1.00  0.00     0.068 A 
HETATM   20  C   UNL     1     -45.493  61.347 -46.048  1.00  0.00     0.039 A 
HETATM   21  C   UNL     1     -45.089  60.752 -47.252  1.00  0.00     0.032 A 
BRANCH  19  22
HETATM   22  O   UNL     1     -45.864  63.441 -44.811  1.00  0.00    -0.356 OA
HETATM   23  C   UNL     1     -44.813  64.018 -44.046  1.00  0.00     0.210 C 
ENDBRANCH  19  22
ENDBRANCH  13  16
ENDBRANCH  10  12
BRANCH   1  24
HETATM   24  C   UNL     1     -44.066  60.667 -53.662  1.00  0.00    -0.029 A 
HETATM   25  C   UNL     1     -43.011  60.756 -54.585  1.00  0.00     0.010 A 
HETATM   26  C   UNL     1     -43.098  61.597 -55.695  1.00  0.00     0.007 A 
HETATM   27  C   UNL     1     -44.245  62.368 -55.916  1.00  0.00    -0.059 A 
HETATM   28  C   UNL     1     -45.300  62.285 -55.003  1.00  0.00     0.007 A 
HETATM   29  C   UNL     1     -45.209  61.455 -53.880  1.00  0.00     0.010 A 
BRANCH  27  30
HETATM   30  C   UNL     1     -44.327  63.296 -57.102  1.00  0.00     0.034 C 
HETATM   31  C   UNL     1     -42.982  63.919 -57.446  1.00  0.00     0.010 C 
ENDBRANCH  27  30
ENDBRANCH   1  24
BRANCH   4  32
HETATM   32  C   UNL     1     -41.497  55.541 -53.660  1.00  0.00     0.261 C 
HETATM   33  N   UNL     1     -41.856  54.294 -53.183  1.00  0.00    -0.323 N 
HETATM   34  H   UNL     1     -42.729  54.247 -52.676  1.00  0.00     0.169 HD
HETATM   35  O   UNL     1     -40.442  55.817 -54.223  1.00  0.00    -0.267 OA
BRANCH  33  36
HETATM   36  C   UNL     1     -41.102  53.102 -53.246  1.00  0.00     0.035 A 
HETATM   37  C   UNL     1     -41.146  52.206 -54.317  1.00  0.00     0.029 A 
HETATM   38  C   UNL     1     -40.356  51.051 -54.313  1.00  0.00     0.002 A 
HETATM   39  C   UNL     1     -39.524  50.776 -53.232  1.00  0.00     0.000 A 
HETATM   40  C   UNL     1     -39.476  51.659 -52.157  1.00  0.00     0.002 A 
HETATM   41  C   UNL     1     -40.257  52.820 -52.167  1.00  0.00     0.029 A 
ENDBRANCH  33  36
ENDBRANCH   4  32
TORSDOF 7
ENDMDL
MODEL 8
REMARK VINA RESULT:      -8.3      2.760     10.010
REMARK  7 active torsions:
REMARK  status: ('A' for Active; 'I' for Inactive)
REMARK    1  A    between atoms: C_2  and  C_3 
REMARK    2  A    between atoms: C_6  and  C_7 
REMARK    3  A    between atoms: C_10  and  C_11 
REMARK       I    between atoms: C_11  and  N_12 
REMARK    4  A    between atoms: N_12  and  C_13 
REMARK    5  A    between atoms: C_25  and  C_26 
REMARK       I    between atoms: C_26  and  N_27 
REMARK    6  A    between atoms: N_27  and  C_28 
REMARK    7  A    between atoms: C_31  and  O_32 
ROOT
HETATM    1  C   UNL     1     -43.042  59.453 -52.276  1.00  0.00     0.185 C 
HETATM    2  N   UNL     1     -43.188  59.122 -53.700  1.00  0.00    -0.239 N 
HETATM    3  C   UNL     1     -44.392  59.070 -54.360  1.00  0.00     0.142 A 
HETATM    4  C   UNL     1     -44.100  58.629 -55.637  1.00  0.00     0.097 A 
HETATM    5  C   UNL     1     -42.680  58.574 -55.660  1.00  0.00     0.160 A 
HETATM    6  N   UNL     1     -42.118  58.892 -54.491  1.00  0.00    -0.181 NA
HETATM    7  N   UNL     1     -45.514  59.465 -53.696  1.00  0.00    -0.343 N 
HETATM    8  C   UNL     1     -45.449  60.105 -52.448  1.00  0.00     0.021 C 
HETATM    9  C   UNL     1     -46.739  60.739 -51.982  1.00  0.00     0.069 C 
HETATM   10  C   UNL     1     -44.287  60.146 -51.744  1.00  0.00     0.061 C 
HETATM   11  H   UNL     1     -46.343  59.732 -54.230  1.00  0.00     0.167 HD
ENDROOT
BRANCH  10  12
HETATM   12  C   UNL     1     -44.123  61.060 -50.565  1.00  0.00     0.256 C 
HETATM   13  N   UNL     1     -45.095  60.938 -49.593  1.00  0.00    -0.323 N 
HETATM   14  H   UNL     1     -45.898  60.355 -49.784  1.00  0.00     0.169 HD
HETATM   15  O   UNL     1     -43.140  61.792 -50.505  1.00  0.00    -0.267 OA
BRANCH  13  16
HETATM   16  C   UNL     1     -45.097  61.523 -48.306  1.00  0.00     0.035 A 
HETATM   17  C   UNL     1     -45.114  60.803 -47.113  1.00  0.00     0.032 A 
HETATM   18  C   UNL     1     -45.156  61.473 -45.883  1.00  0.00     0.039 A 
HETATM   19  C   UNL     1     -45.194  62.865 -45.825  1.00  0.00     0.068 A 
HETATM   20  C   UNL     1     -45.165  63.592 -47.013  1.00  0.00     0.039 A 
HETATM   21  C   UNL     1     -45.111  62.923 -48.244  1.00  0.00     0.032 A 
BRANCH  19  22
HETATM   22  O   UNL     1     -45.253  63.386 -44.562  1.00  0.00    -0.356 OA
HETATM   23  C   UNL     1     -44.251  62.962 -43.646  1.00  0.00     0.210 C 
ENDBRANCH  19  22
ENDBRANCH  13  16
ENDBRANCH  10  12
BRANCH   1  24
HETATM   24  C   UNL     1     -42.654  58.178 -51.519  1.00  0.00    -0.029 A 
HETATM   25  C   UNL     1     -41.380  58.088 -50.935  1.00  0.00     0.010 A 
HETATM   26  C   UNL     1     -40.977  56.930 -50.267  1.00  0.00     0.007 A 
HETATM   27  C   UNL     1     -41.840  55.833 -50.160  1.00  0.00    -0.059 A 
HETATM   28  C   UNL     1     -43.111  55.916 -50.737  1.00  0.00     0.007 A 
HETATM   29  C   UNL     1     -43.511  57.069 -51.420  1.00  0.00     0.010 A 
BRANCH  27  30
HETATM   30  C   UNL     1     -41.394  54.574 -49.460  1.00  0.00     0.034 C 
HETATM   31  C   UNL     1     -39.937  54.238 -49.742  1.00  0.00     0.010 C 
ENDBRANCH  27  30
ENDBRANCH   1  24
BRANCH   4  32
HETATM   32  C   UNL     1     -44.959  58.315 -56.767  1.00  0.00     0.261 C 
HETATM   33  N   UNL     1     -44.478  57.310 -57.587  1.00  0.00    -0.323 N 
HETATM   34  H   UNL     1     -43.570  56.937 -57.346  1.00  0.00     0.169 HD
HETATM   35  O   UNL     1     -45.995  58.948 -56.941  1.00  0.00    -0.267 OA
BRANCH  33  36
HETATM   36  C   UNL     1     -45.067  56.813 -58.769  1.00  0.00     0.035 A 
HETATM   37  C   UNL     1     -46.370  57.109 -59.176  1.00  0.00     0.029 A 
HETATM   38  C   UNL     1     -46.879  56.588 -60.371  1.00  0.00     0.002 A 
HETATM   39  C   UNL     1     -46.093  55.757 -61.163  1.00  0.00     0.000 A 
HETATM   40  C   UNL     1     -44.796  55.450 -60.765  1.00  0.00     0.002 A 
HETATM   41  C   UNL     1     -44.282  55.981 -59.576  1.00  0.00     0.029 A 
ENDBRANCH  33  36
ENDBRANCH   4  32
TORSDOF 7
ENDMDL
MODEL 9
REMARK VINA RESULT:      -8.2      3.786      7.834
REMARK  7 active torsions:
REMARK  status: ('A' for Active; 'I' for Inactive)
REMARK    1  A    between atoms: C_2  and  C_3 
REMARK    2  A    between atoms: C_6  and  C_7 
REMARK    3  A    between atoms: C_10  and  C_11 
REMARK       I    between atoms: C_11  and  N_12 
REMARK    4  A    between atoms: N_12  and  C_13 
REMARK    5  A    between atoms: C_25  and  C_26 
REMARK       I    between atoms: C_26  and  N_27 
REMARK    6  A    between atoms: N_27  and  C_28 
REMARK    7  A    between atoms: C_31  and  O_32 
ROOT
HETATM    1  C   UNL     1     -43.444  57.553 -53.496  1.00  0.00     0.185 C 
HETATM    2  N   UNL     1     -44.254  58.672 -54.000  1.00  0.00    -0.239 N 
HETATM    3  C   UNL     1     -44.299  59.058 -55.318  1.00  0.00     0.142 A 
HETATM    4  C   UNL     1     -45.086  60.195 -55.347  1.00  0.00     0.097 A 
HETATM    5  C   UNL     1     -45.556  60.315 -54.011  1.00  0.00     0.160 A 
HETATM    6  N   UNL     1     -45.070  59.381 -53.191  1.00  0.00    -0.181 NA
HETATM    7  N   UNL     1     -43.656  58.292 -56.242  1.00  0.00    -0.343 N 
HETATM    8  C   UNL     1     -43.128  57.031 -55.920  1.00  0.00     0.021 C 
HETATM    9  C   UNL     1     -42.711  56.188 -57.103  1.00  0.00     0.069 C 
HETATM   10  C   UNL     1     -43.029  56.625 -54.627  1.00  0.00     0.061 C 
HETATM   11  H   UNL     1     -43.922  58.366 -57.225  1.00  0.00     0.167 HD
ENDROOT
BRANCH  10  12
HETATM   12  C   UNL     1     -42.745  55.192 -54.281  1.00  0.00     0.256 C 
HETATM   13  N   UNL     1     -41.420  54.905 -54.023  1.00  0.00    -0.323 N 
HETATM   14  H   UNL     1     -40.728  55.621 -54.200  1.00  0.00     0.169 HD
HETATM   15  O   UNL     1     -43.679  54.401 -54.192  1.00  0.00    -0.267 OA
BRANCH  13  16
HETATM   16  C   UNL     1     -40.891  53.705 -53.496  1.00  0.00     0.035 A 
HETATM   17  C   UNL     1     -40.643  53.480 -52.143  1.00  0.00     0.032 A 
HETATM   18  C   UNL     1     -40.077  52.271 -51.719  1.00  0.00     0.039 A 
HETATM   19  C   UNL     1     -39.740  51.276 -52.636  1.00  0.00     0.068 A 
HETATM   20  C   UNL     1     -39.996  51.489 -53.988  1.00  0.00     0.039 A 
HETATM   21  C   UNL     1     -40.573  52.694 -54.413  1.00  0.00     0.032 A 
BRANCH  19  22
HETATM   22  O   UNL     1     -39.179  50.156 -52.088  1.00  0.00    -0.356 OA
HETATM   23  C   UNL     1     -39.614  49.793 -50.784  1.00  0.00     0.210 C 
ENDBRANCH  19  22
ENDBRANCH  13  16
ENDBRANCH  10  12
BRANCH   1  24
HETATM   24  C   UNL     1     -42.277  58.126 -52.686  1.00  0.00    -0.029 A 
HETATM   25  C   UNL     1     -42.431  58.319 -51.303  1.00  0.00     0.010 A 
HETATM   26  C   UNL     1     -41.402  58.870 -50.537  1.00  0.00     0.007 A 
HETATM   27  C   UNL     1     -40.190  59.238 -51.131  1.00  0.00    -0.059 A 
HETATM   28  C   UNL     1     -40.028  59.049 -52.507  1.00  0.00     0.007 A 
HETATM   29  C   UNL     1     -41.062  58.511 -53.280  1.00  0.00     0.010 A 
BRANCH  27  30
HETATM   30  C   UNL     1     -39.090  59.858 -50.306  1.00  0.00     0.034 C 
HETATM   31  C   UNL     1     -37.731  59.239 -50.592  1.00  0.00     0.010 C 
ENDBRANCH  27  30
ENDBRANCH   1  24
BRANCH   4  32
HETATM   32  C   UNL     1     -45.444  61.089 -56.435  1.00  0.00     0.261 C 
HETATM   33  N   UNL     1     -44.373  61.512 -57.201  1.00  0.00    -0.323 N 
HETATM   34  H   UNL     1     -43.461  61.198 -56.901  1.00  0.00     0.169 HD
HETATM   35  O   UNL     1     -46.613  61.430 -56.586  1.00  0.00    -0.267 OA
BRANCH  33  36
HETATM   36  C   UNL     1     -44.401  62.402 -58.296  1.00  0.00     0.035 A 
HETATM   37  C   UNL     1     -44.763  62.033 -59.594  1.00  0.00     0.029 A 
HETATM   38  C   UNL     1     -44.780  62.978 -60.625  1.00  0.00     0.002 A 
HETATM   39  C   UNL     1     -44.427  64.300 -60.370  1.00  0.00     0.000 A 
HETATM   40  C   UNL     1     -44.060  64.678 -59.082  1.00  0.00     0.002 A 
HETATM   41  C   UNL     1     -44.053  63.736 -58.048  1.00  0.00     0.029 A 
ENDBRANCH  33  36
ENDBRANCH   4  32
TORSDOF 7
ENDMDL
MODEL 10
REMARK VINA RESULT:      -8.2      4.851      7.871
REMARK  7 active torsions:
REMARK  status: ('A' for Active; 'I' for Inactive)
REMARK    1  A    between atoms: C_2  and  C_3 
REMARK    2  A    between atoms: C_6  and  C_7 
REMARK    3  A    between atoms: C_10  and  C_11 
REMARK       I    between atoms: C_11  and  N_12 
REMARK    4  A    between atoms: N_12  and  C_13 
REMARK    5  A    between atoms: C_25  and  C_26 
REMARK       I    between atoms: C_26  and  N_27 
REMARK    6  A    between atoms: N_27  and  C_28 
REMARK    7  A    between atoms: C_31  and  O_32 
ROOT
HETATM    1  C   UNL     1     -44.239  58.456 -60.443  1.00  0.00     0.185 C 
HETATM    2  N   UNL     1     -43.615  57.324 -59.744  1.00  0.00    -0.239 N 
HETATM    3  C   UNL     1     -43.948  56.926 -58.472  1.00  0.00     0.142 A 
HETATM    4  C   UNL     1     -43.069  55.906 -58.158  1.00  0.00     0.097 A 
HETATM    5  C   UNL     1     -42.345  55.700 -59.363  1.00  0.00     0.160 A 
HETATM    6  N   UNL     1     -42.687  56.545 -60.338  1.00  0.00    -0.181 NA
HETATM    7  N   UNL     1     -45.002  57.530 -57.857  1.00  0.00    -0.343 N 
HETATM    8  C   UNL     1     -45.869  58.392 -58.548  1.00  0.00     0.021 C 
HETATM    9  C   UNL     1     -47.142  58.747 -57.816  1.00  0.00     0.069 C 
HETATM   10  C   UNL     1     -45.560  58.841 -59.793  1.00  0.00     0.061 C 
HETATM   11  H   UNL     1     -45.459  57.062 -57.072  1.00  0.00     0.167 HD
ENDROOT
BRANCH  10  12
HETATM   12  C   UNL     1     -46.588  59.515 -60.655  1.00  0.00     0.256 C 
HETATM   13  N   UNL     1     -47.491  58.664 -61.259  1.00  0.00    -0.323 N 
HETATM   14  H   UNL     1     -47.335  57.667 -61.190  1.00  0.00     0.169 HD
HETATM   15  O   UNL     1     -46.604  60.740 -60.722  1.00  0.00    -0.267 OA
BRANCH  13  16
HETATM   16  C   UNL     1     -48.665  59.021 -61.961  1.00  0.00     0.035 A 
HETATM   17  C   UNL     1     -49.654  59.868 -61.464  1.00  0.00     0.032 A 
HETATM   18  C   UNL     1     -50.805  60.130 -62.219  1.00  0.00     0.039 A 
HETATM   19  C   UNL     1     -50.992  59.544 -63.470  1.00  0.00     0.068 A 
HETATM   20  C   UNL     1     -50.002  58.706 -63.978  1.00  0.00     0.039 A 
HETATM   21  C   UNL     1     -48.845  58.451 -63.228  1.00  0.00     0.032 A 
BRANCH  19  22
HETATM   22  O   UNL     1     -52.167  59.872 -64.087  1.00  0.00    -0.356 OA
HETATM   23  C   UNL     1     -53.188  60.430 -63.270  1.00  0.00     0.210 C 
ENDBRANCH  19  22
ENDBRANCH  13  16
ENDBRANCH  10  12
BRANCH   1  24
HETATM   24  C   UNL     1     -43.219  59.597 -60.526  1.00  0.00    -0.029 A 
HETATM   25  C   UNL     1     -42.575  60.028 -59.355  1.00  0.00     0.010 A 
HETATM   26  C   UNL     1     -41.665  61.086 -59.384  1.00  0.00     0.007 A 
HETATM   27  C   UNL     1     -41.372  61.740 -60.587  1.00  0.00    -0.059 A 
HETATM   28  C   UNL     1     -42.008  61.317 -61.757  1.00  0.00     0.007 A 
HETATM   29  C   UNL     1     -42.931  60.266 -61.728  1.00  0.00     0.010 A 
BRANCH  27  30
HETATM   30  C   UNL     1     -40.409  62.900 -60.612  1.00  0.00     0.034 C 
HETATM   31  C   UNL     1     -39.504  62.931 -59.389  1.00  0.00     0.010 C 
ENDBRANCH  27  30
ENDBRANCH   1  24
BRANCH   4  32
HETATM   32  C   UNL     1     -42.883  55.138 -56.938  1.00  0.00     0.261 C 
HETATM   33  N   UNL     1     -41.796  55.530 -56.178  1.00  0.00    -0.323 N 
HETATM   34  H   UNL     1     -41.225  56.268 -56.567  1.00  0.00     0.169 HD
HETATM   35  O   UNL     1     -43.641  54.209 -56.680  1.00  0.00    -0.267 OA
BRANCH  33  36
HETATM   36  C   UNL     1     -41.344  54.957 -54.969  1.00  0.00     0.035 A 
HETATM   37  C   UNL     1     -41.545  55.530 -53.711  1.00  0.00     0.029 A 
HETATM   38  C   UNL     1     -41.079  54.893 -52.556  1.00  0.00     0.002 A 
HETATM   39  C   UNL     1     -40.399  53.682 -52.649  1.00  0.00     0.000 A 
HETATM   40  C   UNL     1     -40.189  53.105 -53.898  1.00  0.00     0.002 A 
HETATM   41  C   UNL     1     -40.665  53.736 -55.052  1.00  0.00     0.029 A 
ENDBRANCH  33  36
ENDBRANCH   4  32
TORSDOF 7
ENDMDL
