MODEL 1
REMARK VINA RESULT:      -8.2      0.000      0.000
REMARK  6 active torsions:
REMARK  status: ('A' for Active; 'I' for Inactive)
REMARK    1  A    between atoms: C_2  and  C_3 
REMARK    2  A    between atoms: C_3  and  N_4 
REMARK       I    between atoms: N_4  and  C_5 
REMARK    3  A    between atoms: C_5  and  C_6 
REMARK    4  A    between atoms: C_8  and  C_9 
REMARK    5  A    between atoms: C_9  and  N_10 
REMARK       I    between atoms: N_10  and  C_11 
REMARK    6  A    between atoms: C_11  and  C_12 
ROOT
HETATM    1  C   UNL     1     -40.634  53.277 -54.915  1.00  0.00     0.161 C 
ENDROOT
BRANCH   1   2
HETATM    2  C   UNL     1     -40.550  53.396 -53.416  1.00  0.00    -0.040 A 
HETATM    3  C   UNL     1     -40.965  54.577 -52.783  1.00  0.00     0.026 A 
HETATM    4  C   UNL     1     -40.879  54.712 -51.393  1.00  0.00     0.032 A 
HETATM    5  C   UNL     1     -40.405  53.648 -50.621  1.00  0.00     0.017 A 
HETATM    6  C   UNL     1     -39.981  52.472 -51.242  1.00  0.00     0.002 A 
HETATM    7  C   UNL     1     -40.043  52.350 -52.633  1.00  0.00     0.009 A 
BRANCH   4   8
HETATM    8  C   UNL     1     -41.298  55.967 -50.711  1.00  0.00     0.252 C 
HETATM    9  N   UNL     1     -41.461  57.066 -51.529  1.00  0.00    -0.353 N 
HETATM   10  H   UNL     1     -41.118  57.011 -52.480  1.00  0.00     0.163 HD
HETATM   11  O   UNL     1     -41.445  55.987 -49.494  1.00  0.00    -0.268 OA
BRANCH   9  12
HETATM   12  C   UNL     1     -41.787  58.383 -51.000  1.00  0.00     0.080 C 
HETATM   13  C   UNL     1     -43.212  58.763 -51.395  1.00  0.00     0.032 C 
BRANCH  12  14
HETATM   14  C   UNL     1     -40.756  59.446 -51.420  1.00  0.00     0.020 C 
HETATM   15  C   UNL     1     -39.356  59.235 -50.856  1.00  0.00     0.007 C 
ENDBRANCH  12  14
ENDBRANCH   9  12
ENDBRANCH   4   8
ENDBRANCH   1   2
BRANCH   1  16
HETATM   16  N   UNL     1     -41.104  54.488 -55.532  1.00  0.00    -0.351 N 
HETATM   17  C   UNL     1     -42.417  54.700 -55.889  1.00  0.00     0.273 C 
HETATM   18  O   UNL     1     -43.325  53.908 -55.644  1.00  0.00    -0.266 OA
HETATM   19  H   UNL     1     -40.456  55.226 -55.788  1.00  0.00     0.163 HD
BRANCH  17  20
HETATM   20  C   UNL     1     -42.622  55.968 -56.609  1.00  0.00     0.157 A 
HETATM   21  N   UNL     1     -42.236  57.148 -56.074  1.00  0.00    -0.168 NA
HETATM   22  N   UNL     1     -42.549  58.046 -57.026  1.00  0.00    -0.277 N 
HETATM   23  H   UNL     1     -42.337  59.022 -56.854  1.00  0.00     0.189 HD
HETATM   24  C   UNL     1     -43.134  57.513 -58.139  1.00  0.00     0.063 A 
HETATM   25  C   UNL     1     -43.204  56.146 -57.898  1.00  0.00     0.029 A 
HETATM   26  C   UNL     1     -43.597  58.105 -59.318  1.00  0.00     0.032 A 
HETATM   27  C   UNL     1     -43.777  55.313 -58.879  1.00  0.00     0.023 A 
HETATM   28  C   UNL     1     -44.262  55.877 -60.072  1.00  0.00    -0.061 A 
HETATM   29  C   UNL     1     -44.165  57.258 -60.278  1.00  0.00     0.009 A 
HETATM   30  C   UNL     1     -44.889  54.987 -61.106  1.00  0.00     0.048 C 
ENDBRANCH  17  20
ENDBRANCH   1  16
TORSDOF 6
ENDMDL
MODEL 2
REMARK VINA RESULT:      -8.1      1.893      7.787
REMARK  6 active torsions:
REMARK  status: ('A' for Active; 'I' for Inactive)
REMARK    1  A    between atoms: C_2  and  C_3 
REMARK    2  A    between atoms: C_3  and  N_4 
REMARK       I    between atoms: N_4  and  C_5 
REMARK    3  A    between atoms: C_5  and  C_6 
REMARK    4  A    between atoms: C_8  and  C_9 
REMARK    5  A    between atoms: C_9  and  N_10 
REMARK       I    between atoms: N_10  and  C_11 
REMARK    6  A    between atoms: C_11  and  C_12 
ROOT
HETATM    1  C   UNL     1     -43.511  57.661 -51.642  1.00  0.00     0.161 C 
ENDROOT
BRANCH   1   2
HETATM    2  C   UNL     1     -43.007  58.064 -53.003  1.00  0.00    -0.040 A 
HETATM    3  C   UNL     1     -43.048  57.146 -54.064  1.00  0.00     0.026 A 
HETATM    4  C   UNL     1     -42.569  57.496 -55.331  1.00  0.00     0.032 A 
HETATM    5  C   UNL     1     -42.075  58.785 -55.554  1.00  0.00     0.017 A 
HETATM    6  C   UNL     1     -42.021  59.702 -54.503  1.00  0.00     0.002 A 
HETATM    7  C   UNL     1     -42.475  59.340 -53.232  1.00  0.00     0.009 A 
BRANCH   4   8
HETATM    8  C   UNL     1     -42.589  56.527 -56.461  1.00  0.00     0.252 C 
HETATM    9  N   UNL     1     -42.604  57.082 -57.724  1.00  0.00    -0.353 N 
HETATM   10  H   UNL     1     -42.783  58.075 -57.810  1.00  0.00     0.163 HD
HETATM   11  O   UNL     1     -42.625  55.323 -56.238  1.00  0.00    -0.268 OA
BRANCH   9  12
HETATM   12  C   UNL     1     -42.708  56.267 -58.926  1.00  0.00     0.080 C 
HETATM   13  C   UNL     1     -41.992  56.956 -60.085  1.00  0.00     0.032 C 
BRANCH  12  14
HETATM   14  C   UNL     1     -44.169  55.916 -59.262  1.00  0.00     0.020 C 
HETATM   15  C   UNL     1     -44.409  54.454 -59.614  1.00  0.00     0.007 C 
ENDBRANCH  12  14
ENDBRANCH   9  12
ENDBRANCH   4   8
ENDBRANCH   1   2
BRANCH   1  16
HETATM   16  N   UNL     1     -42.851  56.485 -51.143  1.00  0.00    -0.351 N 
HETATM   17  C   UNL     1     -41.634  56.510 -50.499  1.00  0.00     0.273 C 
HETATM   18  O   UNL     1     -41.033  57.546 -50.221  1.00  0.00    -0.266 OA
HETATM   19  H   UNL     1     -43.242  55.562 -51.304  1.00  0.00     0.163 HD
BRANCH  17  20
HETATM   20  C   UNL     1     -41.117  55.167 -50.190  1.00  0.00     0.157 A 
HETATM   21  N   UNL     1     -40.943  54.759 -48.912  1.00  0.00    -0.168 NA
HETATM   22  N   UNL     1     -40.503  53.494 -49.039  1.00  0.00    -0.277 N 
HETATM   23  H   UNL     1     -40.311  52.964 -48.196  1.00  0.00     0.189 HD
HETATM   24  C   UNL     1     -40.365  53.068 -50.330  1.00  0.00     0.063 A 
HETATM   25  C   UNL     1     -40.754  54.145 -51.116  1.00  0.00     0.029 A 
HETATM   26  C   UNL     1     -39.941  51.847 -50.864  1.00  0.00     0.032 A 
HETATM   27  C   UNL     1     -40.712  54.013 -52.518  1.00  0.00     0.023 A 
HETATM   28  C   UNL     1     -40.281  52.802 -53.088  1.00  0.00    -0.061 A 
HETATM   29  C   UNL     1     -39.905  51.739 -52.259  1.00  0.00     0.009 A 
HETATM   30  C   UNL     1     -40.219  52.673 -54.582  1.00  0.00     0.048 C 
ENDBRANCH  17  20
ENDBRANCH   1  16
TORSDOF 6
ENDMDL
MODEL 3
REMARK VINA RESULT:      -7.9      2.322      4.673
REMARK  6 active torsions:
REMARK  status: ('A' for Active; 'I' for Inactive)
REMARK    1  A    between atoms: C_2  and  C_3 
REMARK    2  A    between atoms: C_3  and  N_4 
REMARK       I    between atoms: N_4  and  C_5 
REMARK    3  A    between atoms: C_5  and  C_6 
REMARK    4  A    between atoms: C_8  and  C_9 
REMARK    5  A    between atoms: C_9  and  N_10 
REMARK       I    between atoms: N_10  and  C_11 
REMARK    6  A    between atoms: C_11  and  C_12 
ROOT
HETATM    1  C   UNL     1     -41.906  58.130 -52.678  1.00  0.00     0.161 C 
ENDROOT
BRANCH   1   2
HETATM    2  C   UNL     1     -42.140  56.661 -52.436  1.00  0.00    -0.040 A 
HETATM    3  C   UNL     1     -41.272  55.713 -53.000  1.00  0.00     0.026 A 
HETATM    4  C   UNL     1     -41.483  54.344 -52.801  1.00  0.00     0.032 A 
HETATM    5  C   UNL     1     -42.548  53.915 -52.004  1.00  0.00     0.017 A 
HETATM    6  C   UNL     1     -43.421  54.849 -51.446  1.00  0.00     0.002 A 
HETATM    7  C   UNL     1     -43.225  56.215 -51.669  1.00  0.00     0.009 A 
BRANCH   4   8
HETATM    8  C   UNL     1     -40.582  53.327 -53.409  1.00  0.00     0.252 C 
HETATM    9  N   UNL     1     -40.502  52.123 -52.738  1.00  0.00    -0.353 N 
HETATM   10  H   UNL     1     -40.895  52.065 -51.807  1.00  0.00     0.163 HD
HETATM   11  O   UNL     1     -39.944  53.594 -54.420  1.00  0.00    -0.268 OA
BRANCH   9  12
HETATM   12  C   UNL     1     -39.600  51.061 -53.161  1.00  0.00     0.080 C 
HETATM   13  C   UNL     1     -40.268  50.212 -54.241  1.00  0.00     0.032 C 
BRANCH  12  14
HETATM   14  C   UNL     1     -39.103  50.217 -51.973  1.00  0.00     0.020 C 
HETATM   15  C   UNL     1     -39.935  50.351 -50.704  1.00  0.00     0.007 C 
ENDBRANCH  12  14
ENDBRANCH   9  12
ENDBRANCH   4   8
ENDBRANCH   1   2
BRANCH   1  16
HETATM   16  N   UNL     1     -41.765  58.437 -54.075  1.00  0.00    -0.351 N 
HETATM   17  C   UNL     1     -42.824  58.486 -54.954  1.00  0.00     0.273 C 
HETATM   18  O   UNL     1     -43.997  58.350 -54.614  1.00  0.00    -0.266 OA
HETATM   19  H   UNL     1     -40.847  58.573 -54.487  1.00  0.00     0.163 HD
BRANCH  17  20
HETATM   20  C   UNL     1     -42.407  58.704 -56.349  1.00  0.00     0.157 A 
HETATM   21  N   UNL     1     -41.741  59.824 -56.715  1.00  0.00    -0.168 NA
HETATM   22  N   UNL     1     -41.508  59.640 -58.027  1.00  0.00    -0.277 N 
HETATM   23  H   UNL     1     -40.999  60.358 -58.530  1.00  0.00     0.189 HD
HETATM   24  C   UNL     1     -42.003  58.471 -58.534  1.00  0.00     0.063 A 
HETATM   25  C   UNL     1     -42.607  57.832 -57.459  1.00  0.00     0.029 A 
HETATM   26  C   UNL     1     -41.968  57.931 -59.823  1.00  0.00     0.032 A 
HETATM   27  C   UNL     1     -43.225  56.584 -57.671  1.00  0.00     0.023 A 
HETATM   28  C   UNL     1     -43.218  56.017 -58.958  1.00  0.00    -0.061 A 
HETATM   29  C   UNL     1     -42.591  56.691 -60.012  1.00  0.00     0.009 A 
HETATM   30  C   UNL     1     -43.895  54.696 -59.184  1.00  0.00     0.048 C 
ENDBRANCH  17  20
ENDBRANCH   1  16
TORSDOF 6
ENDMDL
MODEL 4
REMARK VINA RESULT:      -7.9      2.577      8.058
REMARK  6 active torsions:
REMARK  status: ('A' for Active; 'I' for Inactive)
REMARK    1  A    between atoms: C_2  and  C_3 
REMARK    2  A    between atoms: C_3  and  N_4 
REMARK       I    between atoms: N_4  and  C_5 
REMARK    3  A    between atoms: C_5  and  C_6 
REMARK    4  A    between atoms: C_8  and  C_9 
REMARK    5  A    between atoms: C_9  and  N_10 
REMARK       I    between atoms: N_10  and  C_11 
REMARK    6  A    between atoms: C_11  and  C_12 
ROOT
HETATM    1  C   UNL     1     -44.224  57.051 -53.836  1.00  0.00     0.161 C 
ENDROOT
BRANCH   1   2
HETATM    2  C   UNL     1     -43.658  57.787 -55.022  1.00  0.00    -0.040 A 
HETATM    3  C   UNL     1     -44.106  57.479 -56.316  1.00  0.00     0.026 A 
HETATM    4  C   UNL     1     -43.579  58.141 -57.431  1.00  0.00     0.032 A 
HETATM    5  C   UNL     1     -42.622  59.144 -57.254  1.00  0.00     0.017 A 
HETATM    6  C   UNL     1     -42.165  59.452 -55.972  1.00  0.00     0.002 A 
HETATM    7  C   UNL     1     -42.672  58.770 -54.862  1.00  0.00     0.009 A 
BRANCH   4   8
HETATM    8  C   UNL     1     -44.031  57.811 -58.810  1.00  0.00     0.252 C 
HETATM    9  N   UNL     1     -44.987  56.819 -58.904  1.00  0.00    -0.353 N 
HETATM   10  H   UNL     1     -45.183  56.262 -58.082  1.00  0.00     0.163 HD
HETATM   11  O   UNL     1     -43.536  58.382 -59.774  1.00  0.00    -0.268 OA
BRANCH   9  12
HETATM   12  C   UNL     1     -45.467  56.327 -60.187  1.00  0.00     0.080 C 
HETATM   13  C   UNL     1     -46.983  56.156 -60.144  1.00  0.00     0.032 C 
BRANCH  12  14
HETATM   14  C   UNL     1     -44.742  55.041 -60.622  1.00  0.00     0.020 C 
HETATM   15  C   UNL     1     -44.735  53.930 -59.579  1.00  0.00     0.007 C 
ENDBRANCH  12  14
ENDBRANCH   9  12
ENDBRANCH   4   8
ENDBRANCH   1   2
BRANCH   1  16
HETATM   16  N   UNL     1     -43.220  56.302 -53.130  1.00  0.00    -0.351 N 
HETATM   17  C   UNL     1     -42.711  55.103 -53.575  1.00  0.00     0.273 C 
HETATM   18  O   UNL     1     -43.008  54.597 -54.655  1.00  0.00    -0.266 OA
HETATM   19  H   UNL     1     -42.885  56.610 -52.222  1.00  0.00     0.163 HD
BRANCH  17  20
HETATM   20  C   UNL     1     -41.783  54.479 -52.618  1.00  0.00     0.157 A 
HETATM   21  N   UNL     1     -41.546  55.034 -51.407  1.00  0.00    -0.168 NA
HETATM   22  N   UNL     1     -40.695  54.171 -50.823  1.00  0.00    -0.277 N 
HETATM   23  H   UNL     1     -40.377  54.372 -49.882  1.00  0.00     0.189 HD
HETATM   24  C   UNL     1     -40.354  53.097 -51.598  1.00  0.00     0.063 A 
HETATM   25  C   UNL     1     -41.047  53.270 -52.789  1.00  0.00     0.029 A 
HETATM   26  C   UNL     1     -39.512  52.008 -51.354  1.00  0.00     0.032 A 
HETATM   27  C   UNL     1     -40.891  52.311 -53.809  1.00  0.00     0.023 A 
HETATM   28  C   UNL     1     -40.044  51.208 -53.601  1.00  0.00    -0.061 A 
HETATM   29  C   UNL     1     -39.370  51.069 -52.382  1.00  0.00     0.009 A 
HETATM   30  C   UNL     1     -39.866  50.198 -54.699  1.00  0.00     0.048 C 
ENDBRANCH  17  20
ENDBRANCH   1  16
TORSDOF 6
ENDMDL
MODEL 5
REMARK VINA RESULT:      -7.7      2.582      6.605
REMARK  6 active torsions:
REMARK  status: ('A' for Active; 'I' for Inactive)
REMARK    1  A    between atoms: C_2  and  C_3 
REMARK    2  A    between atoms: C_3  and  N_4 
REMARK       I    between atoms: N_4  and  C_5 
REMARK    3  A    between atoms: C_5  and  C_6 
REMARK    4  A    between atoms: C_8  and  C_9 
REMARK    5  A    between atoms: C_9  and  N_10 
REMARK       I    between atoms: N_10  and  C_11 
REMARK    6  A    between atoms: C_11  and  C_12 
ROOT
HETATM    1  C   UNL     1     -42.433  56.670 -56.778  1.00  0.00     0.161 C 
ENDROOT
BRANCH   1   2
HETATM    2  C   UNL     1     -42.422  58.172 -56.667  1.00  0.00    -0.040 A 
HETATM    3  C   UNL     1     -42.500  58.781 -55.406  1.00  0.00     0.026 A 
HETATM    4  C   UNL     1     -42.507  60.176 -55.284  1.00  0.00     0.032 A 
HETATM    5  C   UNL     1     -42.403  60.972 -56.428  1.00  0.00     0.017 A 
HETATM    6  C   UNL     1     -42.334  60.375 -57.688  1.00  0.00     0.002 A 
HETATM    7  C   UNL     1     -42.355  58.983 -57.808  1.00  0.00     0.009 A 
BRANCH   4   8
HETATM    8  C   UNL     1     -42.608  60.835 -53.954  1.00  0.00     0.252 C 
HETATM    9  N   UNL     1     -42.499  59.997 -52.862  1.00  0.00    -0.353 N 
HETATM   10  H   UNL     1     -42.545  58.998 -53.018  1.00  0.00     0.163 HD
HETATM   11  O   UNL     1     -42.809  62.041 -53.878  1.00  0.00    -0.268 OA
BRANCH   9  12
HETATM   12  C   UNL     1     -42.661  60.480 -51.498  1.00  0.00     0.080 C 
HETATM   13  C   UNL     1     -41.488  60.013 -50.640  1.00  0.00     0.032 C 
BRANCH  12  14
HETATM   14  C   UNL     1     -44.022  60.081 -50.901  1.00  0.00     0.020 C 
HETATM   15  C   UNL     1     -44.777  59.018 -51.689  1.00  0.00     0.007 C 
ENDBRANCH  12  14
ENDBRANCH   9  12
ENDBRANCH   4   8
ENDBRANCH   1   2
BRANCH   1  16
HETATM   16  N   UNL     1     -41.840  56.034 -55.633  1.00  0.00    -0.351 N 
HETATM   17  C   UNL     1     -42.287  54.843 -55.106  1.00  0.00     0.273 C 
HETATM   18  O   UNL     1     -43.184  54.171 -55.610  1.00  0.00    -0.266 OA
HETATM   19  H   UNL     1     -41.086  56.484 -55.121  1.00  0.00     0.163 HD
BRANCH  17  20
HETATM   20  C   UNL     1     -41.589  54.462 -53.867  1.00  0.00     0.157 A 
HETATM   21  N   UNL     1     -41.553  55.291 -52.799  1.00  0.00    -0.168 NA
HETATM   22  N   UNL     1     -40.874  54.589 -51.874  1.00  0.00    -0.277 N 
HETATM   23  H   UNL     1     -40.728  55.009 -50.963  1.00  0.00     0.189 HD
HETATM   24  C   UNL     1     -40.451  53.358 -52.292  1.00  0.00     0.063 A 
HETATM   25  C   UNL     1     -40.899  53.243 -53.602  1.00  0.00     0.029 A 
HETATM   26  C   UNL     1     -39.729  52.354 -51.641  1.00  0.00     0.032 A 
HETATM   27  C   UNL     1     -40.606  52.065 -54.318  1.00  0.00     0.023 A 
HETATM   28  C   UNL     1     -39.872  51.040 -53.696  1.00  0.00    -0.061 A 
HETATM   29  C   UNL     1     -39.447  51.194 -52.371  1.00  0.00     0.009 A 
HETATM   30  C   UNL     1     -39.546  49.794 -54.468  1.00  0.00     0.048 C 
ENDBRANCH  17  20
ENDBRANCH   1  16
TORSDOF 6
ENDMDL
MODEL 6
REMARK VINA RESULT:      -7.7      2.319      8.372
REMARK  6 active torsions:
REMARK  status: ('A' for Active; 'I' for Inactive)
REMARK    1  A    between atoms: C_2  and  C_3 
REMARK    2  A    between atoms: C_3  and  N_4 
REMARK       I    between atoms: N_4  and  C_5 
REMARK    3  A    between atoms: C_5  and  C_6 
REMARK    4  A    between atoms: C_8  and  C_9 
REMARK    5  A    between atoms: C_9  and  N_10 
REMARK       I    between atoms: N_10  and  C_11 
REMARK    6  A    between atoms: C_11  and  C_12 
ROOT
HETATM    1  C   UNL     1     -43.284  57.598 -53.880  1.00  0.00     0.161 C 
ENDROOT
BRANCH   1   2
HETATM    2  C   UNL     1     -43.233  56.905 -55.216  1.00  0.00    -0.040 A 
HETATM    3  C   UNL     1     -43.829  57.502 -56.337  1.00  0.00     0.026 A 
HETATM    4  C   UNL     1     -43.806  56.865 -57.584  1.00  0.00     0.032 A 
HETATM    5  C   UNL     1     -43.153  55.637 -57.722  1.00  0.00     0.017 A 
HETATM    6  C   UNL     1     -42.565  55.031 -56.612  1.00  0.00     0.002 A 
HETATM    7  C   UNL     1     -42.613  55.656 -55.362  1.00  0.00     0.009 A 
BRANCH   4   8
HETATM    8  C   UNL     1     -44.450  57.478 -58.777  1.00  0.00     0.252 C 
HETATM    9  N   UNL     1     -45.741  57.066 -59.036  1.00  0.00    -0.353 N 
HETATM   10  H   UNL     1     -46.099  56.262 -58.534  1.00  0.00     0.163 HD
HETATM   11  O   UNL     1     -43.827  58.267 -59.477  1.00  0.00    -0.268 OA
BRANCH   9  12
HETATM   12  C   UNL     1     -46.474  57.511 -60.213  1.00  0.00     0.080 C 
HETATM   13  C   UNL     1     -47.305  58.745 -59.871  1.00  0.00     0.032 C 
BRANCH  12  14
HETATM   14  C   UNL     1     -47.322  56.383 -60.828  1.00  0.00     0.020 C 
HETATM   15  C   UNL     1     -48.228  56.818 -61.973  1.00  0.00     0.007 C 
ENDBRANCH  12  14
ENDBRANCH   9  12
ENDBRANCH   4   8
ENDBRANCH   1   2
BRANCH   1  16
HETATM   16  N   UNL     1     -42.810  56.760 -52.812  1.00  0.00    -0.351 N 
HETATM   17  C   UNL     1     -41.717  57.066 -52.032  1.00  0.00     0.273 C 
HETATM   18  O   UNL     1     -41.091  58.120 -52.123  1.00  0.00    -0.266 OA
HETATM   19  H   UNL     1     -43.240  55.858 -52.629  1.00  0.00     0.163 HD
BRANCH  17  20
HETATM   20  C   UNL     1     -41.364  55.994 -51.087  1.00  0.00     0.157 A 
HETATM   21  N   UNL     1     -41.452  56.180 -49.750  1.00  0.00    -0.168 NA
HETATM   22  N   UNL     1     -41.092  54.990 -49.239  1.00  0.00    -0.277 N 
HETATM   23  H   UNL     1     -41.093  54.879 -48.231  1.00  0.00     0.189 HD
HETATM   24  C   UNL     1     -40.757  54.049 -50.172  1.00  0.00     0.063 A 
HETATM   25  C   UNL     1     -40.919  54.677 -51.400  1.00  0.00     0.029 A 
HETATM   26  C   UNL     1     -40.336  52.722 -50.042  1.00  0.00     0.032 A 
HETATM   27  C   UNL     1     -40.637  53.952 -52.575  1.00  0.00     0.023 A 
HETATM   28  C   UNL     1     -40.201  52.618 -52.479  1.00  0.00    -0.061 A 
HETATM   29  C   UNL     1     -40.059  52.021 -51.221  1.00  0.00     0.009 A 
HETATM   30  C   UNL     1     -39.884  51.855 -53.733  1.00  0.00     0.048 C 
ENDBRANCH  17  20
ENDBRANCH   1  16
TORSDOF 6
ENDMDL
MODEL 7
REMARK VINA RESULT:      -7.6      2.620      5.197
REMARK  6 active torsions:
REMARK  status: ('A' for Active; 'I' for Inactive)
REMARK    1  A    between atoms: C_2  and  C_3 
REMARK    2  A    between atoms: C_3  and  N_4 
REMARK       I    between atoms: N_4  and  C_5 
REMARK    3  A    between atoms: C_5  and  C_6 
REMARK    4  A    between atoms: C_8  and  C_9 
REMARK    5  A    between atoms: C_9  and  N_10 
REMARK       I    between atoms: N_10  and  C_11 
REMARK    6  A    between atoms: C_11  and  C_12 
ROOT
HETATM    1  C   UNL     1     -42.596  57.457 -53.096  1.00  0.00     0.161 C 
ENDROOT
BRANCH   1   2
HETATM    2  C   UNL     1     -41.967  56.276 -52.406  1.00  0.00    -0.040 A 
HETATM    3  C   UNL     1     -41.448  55.216 -53.165  1.00  0.00     0.026 A 
HETATM    4  C   UNL     1     -40.875  54.102 -52.541  1.00  0.00     0.032 A 
HETATM    5  C   UNL     1     -40.787  54.058 -51.147  1.00  0.00     0.017 A 
HETATM    6  C   UNL     1     -41.308  55.103 -50.382  1.00  0.00     0.002 A 
HETATM    7  C   UNL     1     -41.904  56.201 -51.008  1.00  0.00     0.009 A 
BRANCH   4   8
HETATM    8  C   UNL     1     -40.337  52.963 -53.334  1.00  0.00     0.252 C 
HETATM    9  N   UNL     1     -40.250  51.759 -52.665  1.00  0.00    -0.353 N 
HETATM   10  H   UNL     1     -40.371  51.758 -51.660  1.00  0.00     0.163 HD
HETATM   11  O   UNL     1     -39.976  53.135 -54.492  1.00  0.00    -0.268 OA
BRANCH   9  12
HETATM   12  C   UNL     1     -39.667  50.574 -53.279  1.00  0.00     0.080 C 
HETATM   13  C   UNL     1     -40.522  50.129 -54.463  1.00  0.00     0.032 C 
BRANCH  12  14
HETATM   14  C   UNL     1     -39.443  49.445 -52.258  1.00  0.00     0.020 C 
HETATM   15  C   UNL     1     -39.653  49.849 -50.804  1.00  0.00     0.007 C 
ENDBRANCH  12  14
ENDBRANCH   9  12
ENDBRANCH   4   8
ENDBRANCH   1   2
BRANCH   1  16
HETATM   16  N   UNL     1     -42.538  57.346 -54.529  1.00  0.00    -0.351 N 
HETATM   17  C   UNL     1     -42.063  58.344 -55.350  1.00  0.00     0.273 C 
HETATM   18  O   UNL     1     -41.573  59.392 -54.935  1.00  0.00    -0.266 OA
HETATM   19  H   UNL     1     -42.910  56.529 -55.002  1.00  0.00     0.163 HD
BRANCH  17  20
HETATM   20  C   UNL     1     -42.216  58.034 -56.782  1.00  0.00     0.157 A 
HETATM   21  N   UNL     1     -42.544  56.790 -57.199  1.00  0.00    -0.168 NA
HETATM   22  N   UNL     1     -42.625  56.914 -58.536  1.00  0.00    -0.277 N 
HETATM   23  H   UNL     1     -42.876  56.097 -59.081  1.00  0.00     0.189 HD
HETATM   24  C   UNL     1     -42.349  58.167 -59.008  1.00  0.00     0.063 A 
HETATM   25  C   UNL     1     -42.070  58.930 -57.881  1.00  0.00     0.029 A 
HETATM   26  C   UNL     1     -42.325  58.685 -60.306  1.00  0.00     0.032 A 
HETATM   27  C   UNL     1     -41.735  60.288 -58.048  1.00  0.00     0.023 A 
HETATM   28  C   UNL     1     -41.691  60.838 -59.341  1.00  0.00    -0.061 A 
HETATM   29  C   UNL     1     -41.988  60.036 -60.449  1.00  0.00     0.009 A 
HETATM   30  C   UNL     1     -41.315  62.282 -59.515  1.00  0.00     0.048 C 
ENDBRANCH  17  20
ENDBRANCH   1  16
TORSDOF 6
ENDMDL
MODEL 8
REMARK VINA RESULT:      -7.6     15.265     18.892
REMARK  6 active torsions:
REMARK  status: ('A' for Active; 'I' for Inactive)
REMARK    1  A    between atoms: C_2  and  C_3 
REMARK    2  A    between atoms: C_3  and  N_4 
REMARK       I    between atoms: N_4  and  C_5 
REMARK    3  A    between atoms: C_5  and  C_6 
REMARK    4  A    between atoms: C_8  and  C_9 
REMARK    5  A    between atoms: C_9  and  N_10 
REMARK       I    between atoms: N_10  and  C_11 
REMARK    6  A    between atoms: C_11  and  C_12 
ROOT
HETATM    1  C   UNL     1     -38.449  41.322 -55.289  1.00  0.00     0.161 C 
ENDROOT
BRANCH   1   2
HETATM    2  C   UNL     1     -38.054  41.160 -56.734  1.00  0.00    -0.040 A 
HETATM    3  C   UNL     1     -38.481  40.034 -57.454  1.00  0.00     0.026 A 
HETATM    4  C   UNL     1     -38.111  39.858 -58.792  1.00  0.00     0.032 A 
HETATM    5  C   UNL     1     -37.334  40.830 -59.430  1.00  0.00     0.017 A 
HETATM    6  C   UNL     1     -36.897  41.949 -58.720  1.00  0.00     0.002 A 
HETATM    7  C   UNL     1     -37.246  42.108 -57.376  1.00  0.00     0.009 A 
BRANCH   4   8
HETATM    8  C   UNL     1     -38.541  38.659 -59.562  1.00  0.00     0.252 C 
HETATM    9  N   UNL     1     -38.639  38.831 -60.928  1.00  0.00    -0.353 N 
HETATM   10  H   UNL     1     -38.599  39.773 -61.298  1.00  0.00     0.163 HD
HETATM   11  O   UNL     1     -38.814  37.617 -58.979  1.00  0.00    -0.268 OA
BRANCH   9  12
HETATM   12  C   UNL     1     -39.127  37.777 -61.807  1.00  0.00     0.080 C 
HETATM   13  C   UNL     1     -38.365  37.809 -63.130  1.00  0.00     0.032 C 
BRANCH  12  14
HETATM   14  C   UNL     1     -40.652  37.849 -62.005  1.00  0.00     0.020 C 
HETATM   15  C   UNL     1     -41.108  37.816 -63.458  1.00  0.00     0.007 C 
ENDBRANCH  12  14
ENDBRANCH   9  12
ENDBRANCH   4   8
ENDBRANCH   1   2
BRANCH   1  16
HETATM   16  N   UNL     1     -37.309  41.368 -54.414  1.00  0.00    -0.351 N 
HETATM   17  C   UNL     1     -37.404  41.368 -53.041  1.00  0.00     0.273 C 
HETATM   18  O   UNL     1     -38.465  41.249 -52.432  1.00  0.00    -0.266 OA
HETATM   19  H   UNL     1     -36.371  41.466 -54.789  1.00  0.00     0.163 HD
BRANCH  17  20
HETATM   20  C   UNL     1     -36.103  41.539 -52.373  1.00  0.00     0.157 A 
HETATM   21  N   UNL     1     -35.377  42.669 -52.531  1.00  0.00    -0.168 NA
HETATM   22  N   UNL     1     -34.299  42.466 -51.752  1.00  0.00    -0.277 N 
HETATM   23  H   UNL     1     -33.601  43.199 -51.697  1.00  0.00     0.189 HD
HETATM   24  C   UNL     1     -34.279  41.258 -51.113  1.00  0.00     0.063 A 
HETATM   25  C   UNL     1     -35.449  40.618 -51.503  1.00  0.00     0.029 A 
HETATM   26  C   UNL     1     -33.351  40.686 -50.239  1.00  0.00     0.032 A 
HETATM   27  C   UNL     1     -35.714  39.326 -51.007  1.00  0.00     0.023 A 
HETATM   28  C   UNL     1     -34.795  38.717 -50.134  1.00  0.00    -0.061 A 
HETATM   29  C   UNL     1     -33.632  39.401 -49.760  1.00  0.00     0.009 A 
HETATM   30  C   UNL     1     -35.072  37.333 -49.622  1.00  0.00     0.048 C 
ENDBRANCH  17  20
ENDBRANCH   1  16
TORSDOF 6
ENDMDL
MODEL 9
REMARK VINA RESULT:      -7.6      2.205      4.709
REMARK  6 active torsions:
REMARK  status: ('A' for Active; 'I' for Inactive)
REMARK    1  A    between atoms: C_2  and  C_3 
REMARK    2  A    between atoms: C_3  and  N_4 
REMARK       I    between atoms: N_4  and  C_5 
REMARK    3  A    between atoms: C_5  and  C_6 
REMARK    4  A    between atoms: C_8  and  C_9 
REMARK    5  A    between atoms: C_9  and  N_10 
REMARK       I    between atoms: N_10  and  C_11 
REMARK    6  A    between atoms: C_11  and  C_12 
ROOT
HETATM    1  C   UNL     1     -41.734  59.808 -53.618  1.00  0.00     0.161 C 
ENDROOT
BRANCH   1   2
HETATM    2  C   UNL     1     -41.490  58.813 -52.513  1.00  0.00    -0.040 A 
HETATM    3  C   UNL     1     -41.671  57.443 -52.753  1.00  0.00     0.026 A 
HETATM    4  C   UNL     1     -41.466  56.505 -51.734  1.00  0.00     0.032 A 
HETATM    5  C   UNL     1     -41.044  56.934 -50.472  1.00  0.00     0.017 A 
HETATM    6  C   UNL     1     -40.871  58.295 -50.221  1.00  0.00     0.002 A 
HETATM    7  C   UNL     1     -41.103  59.232 -51.232  1.00  0.00     0.009 A 
BRANCH   4   8
HETATM    8  C   UNL     1     -41.671  55.050 -51.970  1.00  0.00     0.252 C 
HETATM    9  N   UNL     1     -40.594  54.374 -52.507  1.00  0.00    -0.353 N 
HETATM   10  H   UNL     1     -39.821  54.916 -52.872  1.00  0.00     0.163 HD
HETATM   11  O   UNL     1     -42.754  54.533 -51.722  1.00  0.00    -0.268 OA
BRANCH   9  12
HETATM   12  C   UNL     1     -40.669  52.966 -52.872  1.00  0.00     0.080 C 
HETATM   13  C   UNL     1     -39.777  52.142 -51.946  1.00  0.00     0.032 C 
BRANCH  12  14
HETATM   14  C   UNL     1     -40.345  52.737 -54.359  1.00  0.00     0.020 C 
HETATM   15  C   UNL     1     -40.183  54.010 -55.180  1.00  0.00     0.007 C 
ENDBRANCH  12  14
ENDBRANCH   9  12
ENDBRANCH   4   8
ENDBRANCH   1   2
BRANCH   1  16
HETATM   16  N   UNL     1     -41.748  59.189 -54.915  1.00  0.00    -0.351 N 
HETATM   17  C   UNL     1     -42.902  58.918 -55.617  1.00  0.00     0.273 C 
HETATM   18  O   UNL     1     -44.022  59.250 -55.237  1.00  0.00    -0.266 OA
HETATM   19  H   UNL     1     -40.887  58.866 -55.346  1.00  0.00     0.163 HD
BRANCH  17  20
HETATM   20  C   UNL     1     -42.657  58.176 -56.864  1.00  0.00     0.157 A 
HETATM   21  N   UNL     1     -42.679  56.824 -56.893  1.00  0.00    -0.168 NA
HETATM   22  N   UNL     1     -42.455  56.529 -58.186  1.00  0.00    -0.277 N 
HETATM   23  H   UNL     1     -42.439  55.554 -58.461  1.00  0.00     0.189 HD
HETATM   24  C   UNL     1     -42.270  57.617 -58.993  1.00  0.00     0.063 A 
HETATM   25  C   UNL     1     -42.390  58.719 -58.156  1.00  0.00     0.029 A 
HETATM   26  C   UNL     1     -42.015  57.723 -60.363  1.00  0.00     0.032 A 
HETATM   27  C   UNL     1     -42.238  60.007 -58.704  1.00  0.00     0.023 A 
HETATM   28  C   UNL     1     -41.970  60.149 -60.078  1.00  0.00    -0.061 A 
HETATM   29  C   UNL     1     -41.865  59.012 -60.887  1.00  0.00     0.009 A 
HETATM   30  C   UNL     1     -41.790  61.524 -60.655  1.00  0.00     0.048 C 
ENDBRANCH  17  20
ENDBRANCH   1  16
TORSDOF 6
ENDMDL
MODEL 10
REMARK VINA RESULT:      -7.6     15.507     19.029
REMARK  6 active torsions:
REMARK  status: ('A' for Active; 'I' for Inactive)
REMARK    1  A    between atoms: C_2  and  C_3 
REMARK    2  A    between atoms: C_3  and  N_4 
REMARK       I    between atoms: N_4  and  C_5 
REMARK    3  A    between atoms: C_5  and  C_6 
REMARK    4  A    between atoms: C_8  and  C_9 
REMARK    5  A    between atoms: C_9  and  N_10 
REMARK       I    between atoms: N_10  and  C_11 
REMARK    6  A    between atoms: C_11  and  C_12 
ROOT
HETATM    1  C   UNL     1     -38.043  41.253 -55.133  1.00  0.00     0.161 C 
ENDROOT
BRANCH   1   2
HETATM    2  C   UNL     1     -37.833  41.144 -56.621  1.00  0.00    -0.040 A 
HETATM    3  C   UNL     1     -38.298  40.014 -57.312  1.00  0.00     0.026 A 
HETATM    4  C   UNL     1     -38.098  39.887 -58.691  1.00  0.00     0.032 A 
HETATM    5  C   UNL     1     -37.457  40.910 -59.396  1.00  0.00     0.017 A 
HETATM    6  C   UNL     1     -36.984  42.034 -58.716  1.00  0.00     0.002 A 
HETATM    7  C   UNL     1     -37.161  42.145 -57.334  1.00  0.00     0.009 A 
BRANCH   4   8
HETATM    8  C   UNL     1     -38.569  38.686 -59.433  1.00  0.00     0.252 C 
HETATM    9  N   UNL     1     -38.813  38.873 -60.779  1.00  0.00    -0.353 N 
HETATM   10  H   UNL     1     -38.840  39.821 -61.134  1.00  0.00     0.163 HD
HETATM   11  O   UNL     1     -38.748  37.628 -58.842  1.00  0.00    -0.268 OA
BRANCH   9  12
HETATM   12  C   UNL     1     -39.357  37.817 -61.620  1.00  0.00     0.080 C 
HETATM   13  C   UNL     1     -38.618  37.784 -62.955  1.00  0.00     0.032 C 
BRANCH  12  14
HETATM   14  C   UNL     1     -40.881  37.944 -61.795  1.00  0.00     0.020 C 
HETATM   15  C   UNL     1     -41.362  37.920 -63.240  1.00  0.00     0.007 C 
ENDBRANCH  12  14
ENDBRANCH   9  12
ENDBRANCH   4   8
ENDBRANCH   1   2
BRANCH   1  16
HETATM   16  N   UNL     1     -36.956  40.683 -54.386  1.00  0.00    -0.351 N 
HETATM   17  C   UNL     1     -36.140  41.414 -53.551  1.00  0.00     0.273 C 
HETATM   18  O   UNL     1     -36.313  42.606 -53.304  1.00  0.00    -0.266 OA
HETATM   19  H   UNL     1     -36.705  39.705 -54.496  1.00  0.00     0.163 HD
BRANCH  17  20
HETATM   20  C   UNL     1     -35.030  40.625 -52.993  1.00  0.00     0.157 A 
HETATM   21  N   UNL     1     -35.050  40.193 -51.711  1.00  0.00    -0.168 NA
HETATM   22  N   UNL     1     -33.908  39.493 -51.593  1.00  0.00    -0.277 N 
HETATM   23  H   UNL     1     -33.704  39.052 -50.704  1.00  0.00     0.189 HD
HETATM   24  C   UNL     1     -33.140  39.464 -52.724  1.00  0.00     0.063 A 
HETATM   25  C   UNL     1     -33.845  40.204 -53.665  1.00  0.00     0.029 A 
HETATM   26  C   UNL     1     -31.909  38.858 -52.994  1.00  0.00     0.032 A 
HETATM   27  C   UNL     1     -33.294  40.365 -54.951  1.00  0.00     0.023 A 
HETATM   28  C   UNL     1     -32.053  39.777 -55.254  1.00  0.00    -0.061 A 
HETATM   29  C   UNL     1     -31.380  39.033 -54.278  1.00  0.00     0.009 A 
HETATM   30  C   UNL     1     -31.462  39.968 -56.621  1.00  0.00     0.048 C 
ENDBRANCH  17  20
ENDBRANCH   1  16
TORSDOF 6
ENDMDL
