MODEL 1
REMARK VINA RESULT:      -8.6      0.000      0.000
REMARK  7 active torsions:
REMARK  status: ('A' for Active; 'I' for Inactive)
REMARK    1  A    between atoms: O_2  and  C_3 
REMARK    2  A    between atoms: C_3  and  C_4 
REMARK    3  A    between atoms: C_4  and  N_5 
REMARK    4  A    between atoms: C_4  and  C_21 
REMARK    5  A    between atoms: N_5  and  C_6 
REMARK    6  A    between atoms: C_21  and  C_22 
REMARK    7  A    between atoms: C_25  and  O_26 
ROOT
HETATM    1  N   UNL     1     -40.696  54.840 -53.516  1.00  0.00    -0.277 NA
HETATM    2  H   UNL     1     -40.203  55.679 -53.204  1.00  0.00     0.128 HD
ENDROOT
BRANCH   1   3
HETATM    3  C   UNL     1     -42.111  55.211 -53.858  1.00  0.00     0.164 C 
BRANCH   3   4
HETATM    4  C   UNL     1     -42.597  54.632 -55.196  1.00  0.00     0.276 C 
HETATM    5  O   UNL     1     -43.314  53.648 -55.329  1.00  0.00    -0.263 OA
BRANCH   4   6
HETATM    6  O   UNL     1     -42.146  55.405 -56.229  1.00  0.00    -0.325 OA
HETATM    7  C   UNL     1     -43.015  55.441 -57.362  1.00  0.00     0.213 C 
ENDBRANCH   4   6
ENDBRANCH   3   4
BRANCH   3   8
HETATM    8  C   UNL     1     -42.222  56.747 -53.909  1.00  0.00     0.068 C 
BRANCH   8   9
HETATM    9  C   UNL     1     -43.187  57.277 -52.873  1.00  0.00    -0.056 A 
HETATM   10  C   UNL     1     -43.414  58.658 -52.762  1.00  0.00     0.010 A 
HETATM   11  C   UNL     1     -44.278  59.160 -51.786  1.00  0.00     0.037 A 
HETATM   12  C   UNL     1     -44.913  58.279 -50.919  1.00  0.00     0.065 A 
HETATM   13  C   UNL     1     -44.701  56.909 -51.014  1.00  0.00     0.037 A 
HETATM   14  C   UNL     1     -43.840  56.406 -51.991  1.00  0.00     0.010 A 
BRANCH  12  15
HETATM   15  O   UNL     1     -45.763  58.723 -49.951  1.00  0.00    -0.361 OA
HETATM   16  H   UNL     1     -45.254  58.918 -49.147  1.00  0.00     0.217 HD
ENDBRANCH  12  15
ENDBRANCH   8   9
ENDBRANCH   3   8
ENDBRANCH   1   3
BRANCH   1  17
HETATM   17  C   UNL     1     -40.514  53.792 -52.582  1.00  0.00     0.034 A 
HETATM   18  C   UNL     1     -40.624  54.107 -51.200  1.00  0.00     0.013 A 
HETATM   19  C   UNL     1     -40.411  53.087 -50.253  1.00  0.00     0.044 A 
HETATM   20  C   UNL     1     -40.945  55.390 -50.709  1.00  0.00     0.015 A 
HETATM   21  C   UNL     1     -40.523  53.341 -48.876  1.00  0.00     0.030 A 
HETATM   22  N   UNL     1     -40.099  51.853 -50.677  1.00  0.00    -0.355 N 
HETATM   23  C   UNL     1     -40.850  54.617 -48.422  1.00  0.00     0.002 A 
HETATM   24  C   UNL     1     -41.058  55.642 -49.339  1.00  0.00     0.001 A 
HETATM   25  H   UNL     1     -39.939  51.138 -49.972  1.00  0.00     0.166 HD
HETATM   26  C   UNL     1     -39.999  51.497 -51.969  1.00  0.00     0.044 A 
HETATM   27  C   UNL     1     -40.224  52.458 -52.979  1.00  0.00     0.013 A 
HETATM   28  C   UNL     1     -39.681  50.167 -52.291  1.00  0.00     0.030 A 
HETATM   29  C   UNL     1     -40.153  52.012 -54.319  1.00  0.00     0.015 A 
HETATM   30  C   UNL     1     -39.835  50.687 -54.634  1.00  0.00     0.001 A 
HETATM   31  C   UNL     1     -39.593  49.767 -53.622  1.00  0.00     0.002 A 
ENDBRANCH   1  17
TORSDOF 7
ENDMDL
MODEL 2
REMARK VINA RESULT:      -8.5      0.266      3.448
REMARK  7 active torsions:
REMARK  status: ('A' for Active; 'I' for Inactive)
REMARK    1  A    between atoms: O_2  and  C_3 
REMARK    2  A    between atoms: C_3  and  C_4 
REMARK    3  A    between atoms: C_4  and  N_5 
REMARK    4  A    between atoms: C_4  and  C_21 
REMARK    5  A    between atoms: N_5  and  C_6 
REMARK    6  A    between atoms: C_21  and  C_22 
REMARK    7  A    between atoms: C_25  and  O_26 
ROOT
HETATM    1  N   UNL     1     -40.809  54.743 -53.640  1.00  0.00    -0.277 NA
HETATM    2  H   UNL     1     -40.186  55.546 -53.530  1.00  0.00     0.128 HD
ENDROOT
BRANCH   1   3
HETATM    3  C   UNL     1     -42.217  55.242 -53.798  1.00  0.00     0.164 C 
BRANCH   3   4
HETATM    4  C   UNL     1     -42.902  54.763 -55.089  1.00  0.00     0.276 C 
HETATM    5  O   UNL     1     -43.150  53.599 -55.375  1.00  0.00    -0.263 OA
BRANCH   4   6
HETATM    6  O   UNL     1     -43.238  55.838 -55.863  1.00  0.00    -0.325 OA
HETATM    7  C   UNL     1     -42.926  55.686 -57.249  1.00  0.00     0.213 C 
ENDBRANCH   4   6
ENDBRANCH   3   4
BRANCH   3   8
HETATM    8  C   UNL     1     -42.202  56.782 -53.783  1.00  0.00     0.068 C 
BRANCH   8   9
HETATM    9  C   UNL     1     -43.181  57.345 -52.778  1.00  0.00    -0.056 A 
HETATM   10  C   UNL     1     -43.391  58.731 -52.698  1.00  0.00     0.010 A 
HETATM   11  C   UNL     1     -44.268  59.263 -51.750  1.00  0.00     0.037 A 
HETATM   12  C   UNL     1     -44.932  58.408 -50.880  1.00  0.00     0.065 A 
HETATM   13  C   UNL     1     -44.737  57.033 -50.944  1.00  0.00     0.037 A 
HETATM   14  C   UNL     1     -43.863  56.499 -51.893  1.00  0.00     0.010 A 
BRANCH  12  15
HETATM   15  O   UNL     1     -45.796  58.881 -49.939  1.00  0.00    -0.361 OA
HETATM   16  H   UNL     1     -46.170  59.724 -50.246  1.00  0.00     0.217 HD
ENDBRANCH  12  15
ENDBRANCH   8   9
ENDBRANCH   3   8
ENDBRANCH   1   3
BRANCH   1  17
HETATM   17  C   UNL     1     -40.572  53.799 -52.612  1.00  0.00     0.034 A 
HETATM   18  C   UNL     1     -40.245  52.469 -52.995  1.00  0.00     0.013 A 
HETATM   19  C   UNL     1     -40.041  51.505 -51.989  1.00  0.00     0.044 A 
HETATM   20  C   UNL     1     -40.100  52.048 -54.334  1.00  0.00     0.015 A 
HETATM   21  C   UNL     1     -39.699  50.181 -52.312  1.00  0.00     0.030 A 
HETATM   22  N   UNL     1     -40.173  51.861 -50.703  1.00  0.00    -0.355 N 
HETATM   23  C   UNL     1     -39.556  49.798 -53.644  1.00  0.00     0.002 A 
HETATM   24  C   UNL     1     -39.758  50.732 -54.655  1.00  0.00     0.001 A 
HETATM   25  H   UNL     1     -40.032  51.143 -49.997  1.00  0.00     0.166 HD
HETATM   26  C   UNL     1     -40.464  53.105 -50.286  1.00  0.00     0.044 A 
HETATM   27  C   UNL     1     -40.657  54.133 -51.234  1.00  0.00     0.013 A 
HETATM   28  C   UNL     1     -40.560  53.361 -48.908  1.00  0.00     0.030 A 
HETATM   29  C   UNL     1     -40.912  55.431 -50.733  1.00  0.00     0.015 A 
HETATM   30  C   UNL     1     -41.008  55.680 -49.360  1.00  0.00     0.001 A 
HETATM   31  C   UNL     1     -40.839  54.646 -48.449  1.00  0.00     0.002 A 
ENDBRANCH   1  17
TORSDOF 7
ENDMDL
MODEL 3
REMARK VINA RESULT:      -8.1      2.492      6.596
REMARK  7 active torsions:
REMARK  status: ('A' for Active; 'I' for Inactive)
REMARK    1  A    between atoms: O_2  and  C_3 
REMARK    2  A    between atoms: C_3  and  C_4 
REMARK    3  A    between atoms: C_4  and  N_5 
REMARK    4  A    between atoms: C_4  and  C_21 
REMARK    5  A    between atoms: N_5  and  C_6 
REMARK    6  A    between atoms: C_21  and  C_22 
REMARK    7  A    between atoms: C_25  and  O_26 
ROOT
HETATM    1  N   UNL     1     -40.415  55.634 -51.774  1.00  0.00    -0.277 NA
HETATM    2  H   UNL     1     -39.657  55.348 -52.397  1.00  0.00     0.128 HD
ENDROOT
BRANCH   1   3
HETATM    3  C   UNL     1     -41.104  54.403 -51.255  1.00  0.00     0.164 C 
BRANCH   3   4
HETATM    4  C   UNL     1     -41.947  54.651 -49.993  1.00  0.00     0.276 C 
HETATM    5  O   UNL     1     -41.505  54.850 -48.869  1.00  0.00    -0.263 OA
BRANCH   4   6
HETATM    6  O   UNL     1     -43.275  54.662 -50.316  1.00  0.00    -0.325 OA
HETATM    7  C   UNL     1     -43.599  53.930 -51.499  1.00  0.00     0.213 C 
ENDBRANCH   4   6
ENDBRANCH   3   4
BRANCH   3   8
HETATM    8  C   UNL     1     -40.040  53.334 -50.943  1.00  0.00     0.068 C 
BRANCH   8   9
HETATM    9  C   UNL     1     -40.015  52.243 -51.989  1.00  0.00    -0.056 A 
HETATM   10  C   UNL     1     -39.607  50.944 -51.643  1.00  0.00     0.010 A 
HETATM   11  C   UNL     1     -39.548  49.937 -52.610  1.00  0.00     0.037 A 
HETATM   12  C   UNL     1     -39.894  50.231 -53.922  1.00  0.00     0.065 A 
HETATM   13  C   UNL     1     -40.301  51.510 -54.283  1.00  0.00     0.037 A 
HETATM   14  C   UNL     1     -40.363  52.517 -53.318  1.00  0.00     0.010 A 
BRANCH  12  15
HETATM   15  O   UNL     1     -39.851  49.282 -54.899  1.00  0.00    -0.361 OA
HETATM   16  H   UNL     1     -39.466  49.669 -55.702  1.00  0.00     0.217 HD
ENDBRANCH  12  15
ENDBRANCH   8   9
ENDBRANCH   3   8
ENDBRANCH   1   3
BRANCH   1  17
HETATM   17  C   UNL     1     -41.226  56.606 -52.407  1.00  0.00     0.034 A 
HETATM   18  C   UNL     1     -41.429  57.842 -51.733  1.00  0.00     0.013 A 
HETATM   19  C   UNL     1     -42.261  58.810 -52.328  1.00  0.00     0.044 A 
HETATM   20  C   UNL     1     -40.836  58.170 -50.495  1.00  0.00     0.015 A 
HETATM   21  C   UNL     1     -42.481  60.053 -51.712  1.00  0.00     0.030 A 
HETATM   22  N   UNL     1     -42.848  58.538 -53.503  1.00  0.00    -0.355 N 
HETATM   23  C   UNL     1     -41.876  60.350 -50.494  1.00  0.00     0.002 A 
HETATM   24  C   UNL     1     -41.055  59.407 -49.884  1.00  0.00     0.001 A 
HETATM   25  H   UNL     1     -43.453  59.249 -53.905  1.00  0.00     0.166 HD
HETATM   26  C   UNL     1     -42.677  57.395 -54.190  1.00  0.00     0.044 A 
HETATM   27  C   UNL     1     -41.836  56.386 -53.671  1.00  0.00     0.013 A 
HETATM   28  C   UNL     1     -43.333  57.231 -55.421  1.00  0.00     0.030 A 
HETATM   29  C   UNL     1     -41.658  55.227 -54.463  1.00  0.00     0.015 A 
HETATM   30  C   UNL     1     -42.315  55.069 -55.686  1.00  0.00     0.001 A 
HETATM   31  C   UNL     1     -43.156  56.066 -56.163  1.00  0.00     0.002 A 
ENDBRANCH   1  17
TORSDOF 7
ENDMDL
MODEL 4
REMARK VINA RESULT:      -8.0      2.688      7.268
REMARK  7 active torsions:
REMARK  status: ('A' for Active; 'I' for Inactive)
REMARK    1  A    between atoms: O_2  and  C_3 
REMARK    2  A    between atoms: C_3  and  C_4 
REMARK    3  A    between atoms: C_4  and  N_5 
REMARK    4  A    between atoms: C_4  and  C_21 
REMARK    5  A    between atoms: N_5  and  C_6 
REMARK    6  A    between atoms: C_21  and  C_22 
REMARK    7  A    between atoms: C_25  and  O_26 
ROOT
HETATM    1  N   UNL     1     -42.711  54.904 -51.340  1.00  0.00    -0.277 NA
HETATM    2  H   UNL     1     -43.170  55.396 -50.570  1.00  0.00     0.128 HD
ENDROOT
BRANCH   1   3
HETATM    3  C   UNL     1     -41.680  53.972 -50.769  1.00  0.00     0.164 C 
BRANCH   3   4
HETATM    4  C   UNL     1     -41.317  54.272 -49.305  1.00  0.00     0.276 C 
HETATM    5  O   UNL     1     -41.694  55.243 -48.662  1.00  0.00    -0.263 OA
BRANCH   4   6
HETATM    6  O   UNL     1     -40.540  53.265 -48.804  1.00  0.00    -0.325 OA
HETATM    7  C   UNL     1     -39.935  53.560 -47.544  1.00  0.00     0.213 C 
ENDBRANCH   4   6
ENDBRANCH   3   4
BRANCH   3   8
HETATM    8  C   UNL     1     -40.403  54.061 -51.628  1.00  0.00     0.068 C 
BRANCH   8   9
HETATM    9  C   UNL     1     -40.126  52.767 -52.359  1.00  0.00    -0.056 A 
HETATM   10  C   UNL     1     -40.286  52.698 -53.753  1.00  0.00     0.010 A 
HETATM   11  C   UNL     1     -40.064  51.499 -54.434  1.00  0.00     0.037 A 
HETATM   12  C   UNL     1     -39.686  50.369 -53.720  1.00  0.00     0.065 A 
HETATM   13  C   UNL     1     -39.524  50.418 -52.341  1.00  0.00     0.037 A 
HETATM   14  C   UNL     1     -39.741  51.617 -51.659  1.00  0.00     0.010 A 
BRANCH  12  15
HETATM   15  O   UNL     1     -39.461  49.177 -54.342  1.00  0.00    -0.361 OA
HETATM   16  H   UNL     1     -38.608  48.820 -54.043  1.00  0.00     0.217 HD
ENDBRANCH  12  15
ENDBRANCH   8   9
ENDBRANCH   3   8
ENDBRANCH   1   3
BRANCH   1  17
HETATM   17  C   UNL     1     -42.272  55.829 -52.318  1.00  0.00     0.034 A 
HETATM   18  C   UNL     1     -42.499  55.508 -53.684  1.00  0.00     0.013 A 
HETATM   19  C   UNL     1     -42.038  56.396 -54.674  1.00  0.00     0.044 A 
HETATM   20  C   UNL     1     -43.172  54.346 -54.118  1.00  0.00     0.015 A 
HETATM   21  C   UNL     1     -42.251  56.135 -56.038  1.00  0.00     0.030 A 
HETATM   22  N   UNL     1     -41.390  57.511 -54.306  1.00  0.00    -0.355 N 
HETATM   23  C   UNL     1     -42.926  54.983 -56.435  1.00  0.00     0.002 A 
HETATM   24  C   UNL     1     -43.384  54.087 -55.475  1.00  0.00     0.001 A 
HETATM   25  H   UNL     1     -41.057  58.130 -55.041  1.00  0.00     0.166 HD
HETATM   26  C   UNL     1     -41.164  57.871 -53.031  1.00  0.00     0.044 A 
HETATM   27  C   UNL     1     -41.618  57.044 -51.980  1.00  0.00     0.013 A 
HETATM   28  C   UNL     1     -40.486  59.072 -52.767  1.00  0.00     0.030 A 
HETATM   29  C   UNL     1     -41.394  57.500 -50.659  1.00  0.00     0.015 A 
HETATM   30  C   UNL     1     -40.717  58.696 -50.403  1.00  0.00     0.001 A 
HETATM   31  C   UNL     1     -40.258  59.479 -51.455  1.00  0.00     0.002 A 
ENDBRANCH   1  17
TORSDOF 7
ENDMDL
MODEL 5
REMARK VINA RESULT:      -7.8      2.651      7.672
REMARK  7 active torsions:
REMARK  status: ('A' for Active; 'I' for Inactive)
REMARK    1  A    between atoms: O_2  and  C_3 
REMARK    2  A    between atoms: C_3  and  C_4 
REMARK    3  A    between atoms: C_4  and  N_5 
REMARK    4  A    between atoms: C_4  and  C_21 
REMARK    5  A    between atoms: N_5  and  C_6 
REMARK    6  A    between atoms: C_21  and  C_22 
REMARK    7  A    between atoms: C_25  and  O_26 
ROOT
HETATM    1  N   UNL     1     -41.088  55.394 -55.473  1.00  0.00    -0.277 NA
HETATM    2  H   UNL     1     -40.895  54.978 -56.386  1.00  0.00     0.128 HD
ENDROOT
BRANCH   1   3
HETATM    3  C   UNL     1     -41.587  54.320 -54.548  1.00  0.00     0.164 C 
BRANCH   3   4
HETATM    4  C   UNL     1     -42.958  54.628 -53.923  1.00  0.00     0.276 C 
HETATM    5  O   UNL     1     -44.037  54.543 -54.496  1.00  0.00    -0.263 OA
BRANCH   4   6
HETATM    6  O   UNL     1     -42.803  54.974 -52.610  1.00  0.00    -0.325 OA
HETATM    7  C   UNL     1     -43.493  54.124 -51.692  1.00  0.00     0.213 C 
ENDBRANCH   4   6
ENDBRANCH   3   4
BRANCH   3   8
HETATM    8  C   UNL     1     -40.557  54.120 -53.419  1.00  0.00     0.068 C 
BRANCH   8   9
HETATM    9  C   UNL     1     -40.246  52.659 -53.193  1.00  0.00    -0.056 A 
HETATM   10  C   UNL     1     -39.851  52.210 -51.922  1.00  0.00     0.010 A 
HETATM   11  C   UNL     1     -39.529  50.867 -51.711  1.00  0.00     0.037 A 
HETATM   12  C   UNL     1     -39.599  49.975 -52.773  1.00  0.00     0.065 A 
HETATM   13  C   UNL     1     -39.987  50.400 -54.038  1.00  0.00     0.037 A 
HETATM   14  C   UNL     1     -40.313  51.741 -54.250  1.00  0.00     0.010 A 
BRANCH  12  15
HETATM   15  O   UNL     1     -39.292  48.656 -52.615  1.00  0.00    -0.361 OA
HETATM   16  H   UNL     1     -38.507  48.447 -53.146  1.00  0.00     0.217 HD
ENDBRANCH  12  15
ENDBRANCH   8   9
ENDBRANCH   3   8
ENDBRANCH   1   3
BRANCH   1  17
HETATM   17  C   UNL     1     -41.902  56.543 -55.622  1.00  0.00     0.034 A 
HETATM   18  C   UNL     1     -42.793  56.585 -56.728  1.00  0.00     0.013 A 
HETATM   19  C   UNL     1     -43.586  57.734 -56.917  1.00  0.00     0.044 A 
HETATM   20  C   UNL     1     -42.944  55.534 -57.658  1.00  0.00     0.015 A 
HETATM   21  C   UNL     1     -44.495  57.820 -57.984  1.00  0.00     0.030 A 
HETATM   22  N   UNL     1     -43.471  58.758 -56.058  1.00  0.00    -0.355 N 
HETATM   23  C   UNL     1     -44.627  56.763 -58.881  1.00  0.00     0.002 A 
HETATM   24  C   UNL     1     -43.850  55.621 -58.719  1.00  0.00     0.001 A 
HETATM   25  H   UNL     1     -44.047  59.580 -56.224  1.00  0.00     0.166 HD
HETATM   26  C   UNL     1     -42.659  58.763 -54.988  1.00  0.00     0.044 A 
HETATM   27  C   UNL     1     -41.851  57.637 -54.717  1.00  0.00     0.013 A 
HETATM   28  C   UNL     1     -42.636  59.891 -54.150  1.00  0.00     0.030 A 
HETATM   29  C   UNL     1     -41.053  57.683 -53.550  1.00  0.00     0.015 A 
HETATM   30  C   UNL     1     -41.034  58.808 -52.721  1.00  0.00     0.001 A 
HETATM   31  C   UNL     1     -41.819  59.913 -53.023  1.00  0.00     0.002 A 
ENDBRANCH   1  17
TORSDOF 7
ENDMDL
MODEL 6
REMARK VINA RESULT:      -7.8      2.491      7.034
REMARK  7 active torsions:
REMARK  status: ('A' for Active; 'I' for Inactive)
REMARK    1  A    between atoms: O_2  and  C_3 
REMARK    2  A    between atoms: C_3  and  C_4 
REMARK    3  A    between atoms: C_4  and  N_5 
REMARK    4  A    between atoms: C_4  and  C_21 
REMARK    5  A    between atoms: N_5  and  C_6 
REMARK    6  A    between atoms: C_21  and  C_22 
REMARK    7  A    between atoms: C_25  and  O_26 
ROOT
HETATM    1  N   UNL     1     -41.105  55.488 -55.417  1.00  0.00    -0.277 NA
HETATM    2  H   UNL     1     -40.794  55.043 -56.283  1.00  0.00     0.128 HD
ENDROOT
BRANCH   1   3
HETATM    3  C   UNL     1     -41.649  54.431 -54.499  1.00  0.00     0.164 C 
BRANCH   3   4
HETATM    4  C   UNL     1     -43.023  54.776 -53.901  1.00  0.00     0.276 C 
HETATM    5  O   UNL     1     -44.097  54.677 -54.480  1.00  0.00    -0.263 OA
BRANCH   4   6
HETATM    6  O   UNL     1     -42.878  55.174 -52.602  1.00  0.00    -0.325 OA
HETATM    7  C   UNL     1     -43.798  56.185 -52.189  1.00  0.00     0.213 C 
ENDBRANCH   4   6
ENDBRANCH   3   4
BRANCH   3   8
HETATM    8  C   UNL     1     -40.646  54.209 -53.350  1.00  0.00     0.068 C 
BRANCH   8   9
HETATM    9  C   UNL     1     -40.309  52.746 -53.171  1.00  0.00    -0.056 A 
HETATM   10  C   UNL     1     -39.866  52.272 -51.926  1.00  0.00     0.010 A 
HETATM   11  C   UNL     1     -39.520  50.929 -51.760  1.00  0.00     0.037 A 
HETATM   12  C   UNL     1     -39.614  50.062 -52.841  1.00  0.00     0.065 A 
HETATM   13  C   UNL     1     -40.050  50.513 -54.081  1.00  0.00     0.037 A 
HETATM   14  C   UNL     1     -40.400  51.854 -54.248  1.00  0.00     0.010 A 
BRANCH  12  15
HETATM   15  O   UNL     1     -39.286  48.744 -52.726  1.00  0.00    -0.361 OA
HETATM   16  H   UNL     1     -39.921  48.213 -53.236  1.00  0.00     0.217 HD
ENDBRANCH  12  15
ENDBRANCH   8   9
ENDBRANCH   3   8
ENDBRANCH   1   3
BRANCH   1  17
HETATM   17  C   UNL     1     -41.953  56.584 -55.709  1.00  0.00     0.034 A 
HETATM   18  C   UNL     1     -41.894  57.716 -54.851  1.00  0.00     0.013 A 
HETATM   19  C   UNL     1     -42.754  58.803 -55.101  1.00  0.00     0.044 A 
HETATM   20  C   UNL     1     -41.011  57.828 -53.755  1.00  0.00     0.015 A 
HETATM   21  C   UNL     1     -42.724  59.952 -54.294  1.00  0.00     0.030 A 
HETATM   22  N   UNL     1     -43.612  58.737 -56.130  1.00  0.00    -0.355 N 
HETATM   23  C   UNL     1     -41.835  60.036 -53.225  1.00  0.00     0.002 A 
HETATM   24  C   UNL     1     -40.981  58.973 -52.954  1.00  0.00     0.001 A 
HETATM   25  H   UNL     1     -44.230  59.530 -56.282  1.00  0.00     0.166 HD
HETATM   26  C   UNL     1     -43.698  57.700 -56.981  1.00  0.00     0.044 A 
HETATM   27  C   UNL     1     -42.850  56.583 -56.811  1.00  0.00     0.013 A 
HETATM   28  C   UNL     1     -44.627  57.752 -58.033  1.00  0.00     0.030 A 
HETATM   29  C   UNL     1     -42.953  55.545 -57.767  1.00  0.00     0.015 A 
HETATM   30  C   UNL     1     -43.881  55.602 -58.811  1.00  0.00     0.001 A 
HETATM   31  C   UNL     1     -44.721  56.700 -58.941  1.00  0.00     0.002 A 
ENDBRANCH   1  17
TORSDOF 7
ENDMDL
MODEL 7
REMARK VINA RESULT:      -7.8      2.703      5.417
REMARK  7 active torsions:
REMARK  status: ('A' for Active; 'I' for Inactive)
REMARK    1  A    between atoms: O_2  and  C_3 
REMARK    2  A    between atoms: C_3  and  C_4 
REMARK    3  A    between atoms: C_4  and  N_5 
REMARK    4  A    between atoms: C_4  and  C_21 
REMARK    5  A    between atoms: N_5  and  C_6 
REMARK    6  A    between atoms: C_21  and  C_22 
REMARK    7  A    between atoms: C_25  and  O_26 
ROOT
HETATM    1  N   UNL     1     -44.109  56.412 -51.642  1.00  0.00    -0.277 NA
HETATM    2  H   UNL     1     -44.825  56.355 -52.369  1.00  0.00     0.128 HD
ENDROOT
BRANCH   1   3
HETATM    3  C   UNL     1     -43.923  57.852 -51.259  1.00  0.00     0.164 C 
BRANCH   3   4
HETATM    4  C   UNL     1     -45.243  58.612 -51.048  1.00  0.00     0.276 C 
HETATM    5  O   UNL     1     -45.932  58.576 -50.036  1.00  0.00    -0.263 OA
BRANCH   4   6
HETATM    6  O   UNL     1     -45.520  59.376 -52.146  1.00  0.00    -0.325 OA
HETATM    7  C   UNL     1     -46.315  60.532 -51.874  1.00  0.00     0.213 C 
ENDBRANCH   4   6
ENDBRANCH   3   4
BRANCH   3   8
HETATM    8  C   UNL     1     -43.111  58.559 -52.362  1.00  0.00     0.068 C 
BRANCH   8   9
HETATM    9  C   UNL     1     -41.699  58.859 -51.916  1.00  0.00    -0.056 A 
HETATM   10  C   UNL     1     -40.633  58.738 -52.823  1.00  0.00     0.010 A 
HETATM   11  C   UNL     1     -39.320  58.982 -52.412  1.00  0.00     0.037 A 
HETATM   12  C   UNL     1     -39.074  59.343 -51.094  1.00  0.00     0.065 A 
HETATM   13  C   UNL     1     -40.116  59.467 -50.183  1.00  0.00     0.037 A 
HETATM   14  C   UNL     1     -41.429  59.228 -50.592  1.00  0.00     0.010 A 
BRANCH  12  15
HETATM   15  O   UNL     1     -37.810  59.588 -50.648  1.00  0.00    -0.361 OA
HETATM   16  H   UNL     1     -37.748  60.515 -50.363  1.00  0.00     0.217 HD
ENDBRANCH  12  15
ENDBRANCH   8   9
ENDBRANCH   3   8
ENDBRANCH   1   3
BRANCH   1  17
HETATM   17  C   UNL     1     -42.952  55.698 -52.040  1.00  0.00     0.034 A 
HETATM   18  C   UNL     1     -42.749  55.485 -53.431  1.00  0.00     0.013 A 
HETATM   19  C   UNL     1     -41.625  54.746 -53.847  1.00  0.00     0.044 A 
HETATM   20  C   UNL     1     -43.608  55.979 -54.436  1.00  0.00     0.015 A 
HETATM   21  C   UNL     1     -41.369  54.521 -55.210  1.00  0.00     0.030 A 
HETATM   22  N   UNL     1     -40.785  54.254 -52.924  1.00  0.00    -0.355 N 
HETATM   23  C   UNL     1     -42.231  55.029 -56.179  1.00  0.00     0.002 A 
HETATM   24  C   UNL     1     -43.352  55.755 -55.792  1.00  0.00     0.001 A 
HETATM   25  H   UNL     1     -39.987  53.715 -53.250  1.00  0.00     0.166 HD
HETATM   26  C   UNL     1     -40.920  54.440 -51.600  1.00  0.00     0.044 A 
HETATM   27  C   UNL     1     -42.008  55.192 -51.106  1.00  0.00     0.013 A 
HETATM   28  C   UNL     1     -39.965  53.888 -50.729  1.00  0.00     0.030 A 
HETATM   29  C   UNL     1     -42.069  55.394 -49.707  1.00  0.00     0.015 A 
HETATM   30  C   UNL     1     -41.117  54.841 -48.846  1.00  0.00     0.001 A 
HETATM   31  C   UNL     1     -40.070  54.084 -49.355  1.00  0.00     0.002 A 
ENDBRANCH   1  17
TORSDOF 7
ENDMDL
MODEL 8
REMARK VINA RESULT:      -7.7      2.364      7.616
REMARK  7 active torsions:
REMARK  status: ('A' for Active; 'I' for Inactive)
REMARK    1  A    between atoms: O_2  and  C_3 
REMARK    2  A    between atoms: C_3  and  C_4 
REMARK    3  A    between atoms: C_4  and  N_5 
REMARK    4  A    between atoms: C_4  and  C_21 
REMARK    5  A    between atoms: N_5  and  C_6 
REMARK    6  A    between atoms: C_21  and  C_22 
REMARK    7  A    between atoms: C_25  and  O_26 
ROOT
HETATM    1  N   UNL     1     -42.953  54.794 -53.363  1.00  0.00    -0.277 NA
HETATM    2  H   UNL     1     -43.525  54.447 -52.591  1.00  0.00     0.128 HD
ENDROOT
BRANCH   1   3
HETATM    3  C   UNL     1     -41.522  54.866 -52.910  1.00  0.00     0.164 C 
BRANCH   3   4
HETATM    4  C   UNL     1     -41.008  56.300 -52.708  1.00  0.00     0.276 C 
HETATM    5  O   UNL     1     -40.646  57.060 -53.598  1.00  0.00    -0.263 OA
BRANCH   4   6
HETATM    6  O   UNL     1     -41.051  56.627 -51.382  1.00  0.00    -0.325 OA
HETATM    7  C   UNL     1     -41.004  55.507 -50.497  1.00  0.00     0.213 C 
ENDBRANCH   4   6
ENDBRANCH   3   4
BRANCH   3   8
HETATM    8  C   UNL     1     -40.636  54.160 -53.954  1.00  0.00     0.068 C 
BRANCH   8   9
HETATM    9  C   UNL     1     -40.324  52.735 -53.557  1.00  0.00    -0.056 A 
HETATM   10  C   UNL     1     -39.863  52.448 -52.261  1.00  0.00     0.010 A 
HETATM   11  C   UNL     1     -39.542  51.140 -51.895  1.00  0.00     0.037 A 
HETATM   12  C   UNL     1     -39.678  50.118 -52.826  1.00  0.00     0.065 A 
HETATM   13  C   UNL     1     -40.132  50.382 -54.113  1.00  0.00     0.037 A 
HETATM   14  C   UNL     1     -40.458  51.689 -54.480  1.00  0.00     0.010 A 
BRANCH  12  15
HETATM   15  O   UNL     1     -39.375  48.827 -52.514  1.00  0.00    -0.361 OA
HETATM   16  H   UNL     1     -40.076  48.463 -51.949  1.00  0.00     0.217 HD
ENDBRANCH  12  15
ENDBRANCH   8   9
ENDBRANCH   3   8
ENDBRANCH   1   3
BRANCH   1  17
HETATM   17  C   UNL     1     -43.519  55.979 -53.895  1.00  0.00     0.034 A 
HETATM   18  C   UNL     1     -43.467  56.165 -55.303  1.00  0.00     0.013 A 
HETATM   19  C   UNL     1     -43.991  57.352 -55.850  1.00  0.00     0.044 A 
HETATM   20  C   UNL     1     -42.924  55.223 -56.202  1.00  0.00     0.015 A 
HETATM   21  C   UNL     1     -43.979  57.579 -57.236  1.00  0.00     0.030 A 
HETATM   22  N   UNL     1     -44.512  58.277 -55.030  1.00  0.00    -0.355 N 
HETATM   23  C   UNL     1     -43.444  56.626 -58.099  1.00  0.00     0.002 A 
HETATM   24  C   UNL     1     -42.914  55.449 -57.581  1.00  0.00     0.001 A 
HETATM   25  H   UNL     1     -44.874  59.130 -55.449  1.00  0.00     0.166 HD
HETATM   26  C   UNL     1     -44.603  58.145 -53.696  1.00  0.00     0.044 A 
HETATM   27  C   UNL     1     -44.122  56.971 -53.076  1.00  0.00     0.013 A 
HETATM   28  C   UNL     1     -45.185  59.177 -52.942  1.00  0.00     0.030 A 
HETATM   29  C   UNL     1     -44.289  56.869 -51.674  1.00  0.00     0.015 A 
HETATM   30  C   UNL     1     -44.868  57.900 -50.929  1.00  0.00     0.001 A 
HETATM   31  C   UNL     1     -45.310  59.056 -51.561  1.00  0.00     0.002 A 
ENDBRANCH   1  17
TORSDOF 7
ENDMDL
MODEL 9
REMARK VINA RESULT:      -7.6      2.626      5.671
REMARK  7 active torsions:
REMARK  status: ('A' for Active; 'I' for Inactive)
REMARK    1  A    between atoms: O_2  and  C_3 
REMARK    2  A    between atoms: C_3  and  C_4 
REMARK    3  A    between atoms: C_4  and  N_5 
REMARK    4  A    between atoms: C_4  and  C_21 
REMARK    5  A    between atoms: N_5  and  C_6 
REMARK    6  A    between atoms: C_21  and  C_22 
REMARK    7  A    between atoms: C_25  and  O_26 
ROOT
HETATM    1  N   UNL     1     -43.894  55.524 -52.705  1.00  0.00    -0.277 NA
HETATM    2  H   UNL     1     -44.841  55.873 -52.866  1.00  0.00     0.128 HD
ENDROOT
BRANCH   1   3
HETATM    3  C   UNL     1     -43.289  56.282 -51.558  1.00  0.00     0.164 C 
BRANCH   3   4
HETATM    4  C   UNL     1     -43.087  55.432 -50.292  1.00  0.00     0.276 C 
HETATM    5  O   UNL     1     -43.846  54.559 -49.892  1.00  0.00    -0.263 OA
BRANCH   4   6
HETATM    6  O   UNL     1     -41.904  55.763 -49.694  1.00  0.00    -0.325 OA
HETATM    7  C   UNL     1     -41.206  54.659 -49.115  1.00  0.00     0.213 C 
ENDBRANCH   4   6
ENDBRANCH   3   4
BRANCH   3   8
HETATM    8  C   UNL     1     -44.201  57.476 -51.216  1.00  0.00     0.068 C 
BRANCH   8   9
HETATM    9  C   UNL     1     -43.779  58.732 -51.943  1.00  0.00    -0.056 A 
HETATM   10  C   UNL     1     -44.728  59.719 -52.254  1.00  0.00     0.010 A 
HETATM   11  C   UNL     1     -44.355  60.869 -52.954  1.00  0.00     0.037 A 
HETATM   12  C   UNL     1     -43.032  61.029 -53.346  1.00  0.00     0.065 A 
HETATM   13  C   UNL     1     -42.079  60.063 -53.047  1.00  0.00     0.037 A 
HETATM   14  C   UNL     1     -42.449  58.915 -52.345  1.00  0.00     0.010 A 
BRANCH  12  15
HETATM   15  O   UNL     1     -42.622  62.132 -54.032  1.00  0.00    -0.361 OA
HETATM   16  H   UNL     1     -43.109  62.184 -54.871  1.00  0.00     0.217 HD
ENDBRANCH  12  15
ENDBRANCH   8   9
ENDBRANCH   3   8
ENDBRANCH   1   3
BRANCH   1  17
HETATM   17  C   UNL     1     -43.167  55.508 -53.920  1.00  0.00     0.034 A 
HETATM   18  C   UNL     1     -42.100  54.577 -54.043  1.00  0.00     0.013 A 
HETATM   19  C   UNL     1     -41.341  54.568 -55.228  1.00  0.00     0.044 A 
HETATM   20  C   UNL     1     -41.752  53.642 -53.044  1.00  0.00     0.015 A 
HETATM   21  C   UNL     1     -40.286  53.657 -55.407  1.00  0.00     0.030 A 
HETATM   22  N   UNL     1     -41.634  55.442 -56.202  1.00  0.00    -0.355 N 
HETATM   23  C   UNL     1     -39.972  52.741 -54.406  1.00  0.00     0.002 A 
HETATM   24  C   UNL     1     -40.704  52.736 -53.223  1.00  0.00     0.001 A 
HETATM   25  H   UNL     1     -41.063  55.423 -57.043  1.00  0.00     0.166 HD
HETATM   26  C   UNL     1     -42.641  56.331 -56.145  1.00  0.00     0.044 A 
HETATM   27  C   UNL     1     -43.464  56.383 -54.999  1.00  0.00     0.013 A 
HETATM   28  C   UNL     1     -42.862  57.187 -57.237  1.00  0.00     0.030 A 
HETATM   29  C   UNL     1     -44.537  57.305 -55.019  1.00  0.00     0.015 A 
HETATM   30  C   UNL     1     -44.751  58.155 -56.108  1.00  0.00     0.001 A 
HETATM   31  C   UNL     1     -43.912  58.101 -57.213  1.00  0.00     0.002 A 
ENDBRANCH   1  17
TORSDOF 7
ENDMDL
MODEL 10
REMARK VINA RESULT:      -7.5      2.375      6.914
REMARK  7 active torsions:
REMARK  status: ('A' for Active; 'I' for Inactive)
REMARK    1  A    between atoms: O_2  and  C_3 
REMARK    2  A    between atoms: C_3  and  C_4 
REMARK    3  A    between atoms: C_4  and  N_5 
REMARK    4  A    between atoms: C_4  and  C_21 
REMARK    5  A    between atoms: N_5  and  C_6 
REMARK    6  A    between atoms: C_21  and  C_22 
REMARK    7  A    between atoms: C_25  and  O_26 
ROOT
HETATM    1  N   UNL     1     -43.121  54.792 -53.506  1.00  0.00    -0.277 NA
HETATM    2  H   UNL     1     -43.696  54.559 -52.695  1.00  0.00     0.128 HD
ENDROOT
BRANCH   1   3
HETATM    3  C   UNL     1     -41.675  54.739 -53.104  1.00  0.00     0.164 C 
BRANCH   3   4
HETATM    4  C   UNL     1     -41.031  56.124 -52.924  1.00  0.00     0.276 C 
HETATM    5  O   UNL     1     -40.591  56.828 -53.824  1.00  0.00    -0.263 OA
BRANCH   4   6
HETATM    6  O   UNL     1     -41.060  56.482 -51.605  1.00  0.00    -0.325 OA
HETATM    7  C   UNL     1     -41.070  55.381 -50.696  1.00  0.00     0.213 C 
ENDBRANCH   4   6
ENDBRANCH   3   4
BRANCH   3   8
HETATM    8  C   UNL     1     -40.889  53.960 -54.176  1.00  0.00     0.068 C 
BRANCH   8   9
HETATM    9  C   UNL     1     -40.481  52.588 -53.689  1.00  0.00    -0.056 A 
HETATM   10  C   UNL     1     -39.999  52.419 -52.381  1.00  0.00     0.010 A 
HETATM   11  C   UNL     1     -39.589  51.162 -51.932  1.00  0.00     0.037 A 
HETATM   12  C   UNL     1     -39.657  50.074 -52.794  1.00  0.00     0.065 A 
HETATM   13  C   UNL     1     -40.131  50.223 -54.092  1.00  0.00     0.037 A 
HETATM   14  C   UNL     1     -40.545  51.478 -54.541  1.00  0.00     0.010 A 
BRANCH  12  15
HETATM   15  O   UNL     1     -39.266  48.830 -52.400  1.00  0.00    -0.361 OA
HETATM   16  H   UNL     1     -39.013  48.314 -53.184  1.00  0.00     0.217 HD
ENDBRANCH  12  15
ENDBRANCH   8   9
ENDBRANCH   3   8
ENDBRANCH   1   3
BRANCH   1  17
HETATM   17  C   UNL     1     -43.580  55.992 -54.101  1.00  0.00     0.034 A 
HETATM   18  C   UNL     1     -44.141  56.983 -53.250  1.00  0.00     0.013 A 
HETATM   19  C   UNL     1     -44.636  58.169 -53.824  1.00  0.00     0.044 A 
HETATM   20  C   UNL     1     -44.228  56.857 -51.847  1.00  0.00     0.015 A 
HETATM   21  C   UNL     1     -45.185  59.187 -53.027  1.00  0.00     0.030 A 
HETATM   22  N   UNL     1     -44.577  58.328 -55.155  1.00  0.00    -0.355 N 
HETATM   23  C   UNL     1     -45.250  59.036 -51.643  1.00  0.00     0.002 A 
HETATM   24  C   UNL     1     -44.773  57.871 -51.054  1.00  0.00     0.001 A 
HETATM   25  H   UNL     1     -44.952  59.189 -55.545  1.00  0.00     0.166 HD
HETATM   26  C   UNL     1     -44.042  57.433 -56.003  1.00  0.00     0.044 A 
HETATM   27  C   UNL     1     -43.502  56.229 -55.500  1.00  0.00     0.013 A 
HETATM   28  C   UNL     1     -44.023  57.718 -57.378  1.00  0.00     0.030 A 
HETATM   29  C   UNL     1     -42.909  55.349 -56.436  1.00  0.00     0.015 A 
HETATM   30  C   UNL     1     -42.895  55.637 -57.804  1.00  0.00     0.001 A 
HETATM   31  C   UNL     1     -43.456  56.817 -58.276  1.00  0.00     0.002 A 
ENDBRANCH   1  17
TORSDOF 7
ENDMDL
