MODEL 1
REMARK VINA RESULT:      -8.7      0.000      0.000
REMARK  7 active torsions:
REMARK  status: ('A' for Active; 'I' for Inactive)
REMARK    1  A    between atoms: C_5  and  O_6 
REMARK    2  A    between atoms: O_6  and  C_7 
REMARK    3  A    between atoms: C_7  and  C_8 
REMARK    4  A    between atoms: C_8  and  N_9 
REMARK       I    between atoms: N_9  and  C_10 
REMARK       I    between atoms: C_10  and  N_11 
REMARK    5  A    between atoms: N_11  and  C_12 
REMARK    6  A    between atoms: N_15  and  S_16 
REMARK    7  A    between atoms: S_16  and  C_17 
ROOT
HETATM    1  C   UNL     1     -42.883  58.464 -52.979  1.00  0.00     0.103 A 
HETATM    2  S   UNL     1     -42.341  57.727 -54.476  1.00  0.00    -0.032 SA
HETATM    3  C   UNL     1     -43.964  57.853 -55.192  1.00  0.00     0.185 A 
HETATM    4  N   UNL     1     -44.346  57.514 -56.375  1.00  0.00    -0.134 NA
HETATM    5  N   UNL     1     -44.780  58.413 -54.236  1.00  0.00    -0.336 N 
HETATM    6  C   UNL     1     -44.190  58.788 -53.032  1.00  0.00     0.041 A 
HETATM    7  C   UNL     1     -44.997  59.588 -52.062  1.00  0.00     0.071 C 
HETATM    8  H   UNL     1     -45.724  58.691 -54.462  1.00  0.00     0.168 HD
ENDROOT
BRANCH   1   9
HETATM    9  N   UNL     1     -41.909  58.646 -52.052  1.00  0.00    -0.301 N 
HETATM   10  C   UNL     1     -41.538  58.035 -50.901  1.00  0.00     0.321 C 
HETATM   11  N   UNL     1     -42.057  56.799 -50.638  1.00  0.00    -0.341 N 
HETATM   12  O   UNL     1     -40.684  58.570 -50.198  1.00  0.00    -0.247 OA
HETATM   13  H   UNL     1     -42.414  56.324 -51.454  1.00  0.00     0.164 HD
HETATM   14  H   UNL     1     -41.239  59.367 -52.297  1.00  0.00     0.171 HD
BRANCH  11  15
HETATM   15  C   UNL     1     -41.382  55.945 -49.671  1.00  0.00     0.151 C 
BRANCH  15  16
HETATM   16  C   UNL     1     -40.955  54.581 -50.212  1.00  0.00     0.195 C 
BRANCH  16  17
HETATM   17  O   UNL     1     -40.837  54.730 -51.628  1.00  0.00    -0.350 OA
BRANCH  17  18
HETATM   18  C   UNL     1     -40.550  53.633 -52.385  1.00  0.00     0.068 A 
HETATM   19  C   UNL     1     -39.904  52.609 -51.686  1.00  0.00     0.037 A 
HETATM   20  C   UNL     1     -39.556  51.416 -52.323  1.00  0.00     0.009 A 
HETATM   21  C   UNL     1     -39.850  51.232 -53.676  1.00  0.00    -0.062 A 
HETATM   22  C   UNL     1     -39.510  49.943 -54.364  1.00  0.00     0.048 C 
HETATM   23  C   UNL     1     -40.502  52.257 -54.372  1.00  0.00     0.009 A 
HETATM   24  C   UNL     1     -40.846  53.455 -53.733  1.00  0.00     0.037 A 
ENDBRANCH  17  18
ENDBRANCH  16  17
ENDBRANCH  15  16
ENDBRANCH  11  15
ENDBRANCH   1   9
BRANCH   4  25
HETATM   25  S   UNL     1     -43.285  56.857 -57.409  1.00  0.00     0.285 S 
HETATM   26  O   UNL     1     -42.389  57.894 -57.886  1.00  0.00    -0.198 OA
HETATM   27  O   UNL     1     -42.774  55.618 -56.856  1.00  0.00    -0.198 OA
BRANCH  25  28
HETATM   28  C   UNL     1     -44.274  56.373 -58.813  1.00  0.00     0.081 A 
HETATM   29  C   UNL     1     -45.392  57.136 -59.167  1.00  0.00     0.025 A 
HETATM   30  C   UNL     1     -46.151  56.769 -60.276  1.00  0.00     0.002 A 
HETATM   31  C   UNL     1     -45.797  55.643 -61.022  1.00  0.00     0.000 A 
HETATM   32  C   UNL     1     -44.682  54.881 -60.661  1.00  0.00     0.002 A 
HETATM   33  C   UNL     1     -43.916  55.243 -59.553  1.00  0.00     0.025 A 
ENDBRANCH  25  28
ENDBRANCH   4  25
TORSDOF 7
ENDMDL
MODEL 2
REMARK VINA RESULT:      -8.3      3.025      3.651
REMARK  7 active torsions:
REMARK  status: ('A' for Active; 'I' for Inactive)
REMARK    1  A    between atoms: C_5  and  O_6 
REMARK    2  A    between atoms: O_6  and  C_7 
REMARK    3  A    between atoms: C_7  and  C_8 
REMARK    4  A    between atoms: C_8  and  N_9 
REMARK       I    between atoms: N_9  and  C_10 
REMARK       I    between atoms: C_10  and  N_11 
REMARK    5  A    between atoms: N_11  and  C_12 
REMARK    6  A    between atoms: N_15  and  S_16 
REMARK    7  A    between atoms: S_16  and  C_17 
ROOT
HETATM    1  C   UNL     1     -43.023  58.732 -52.559  1.00  0.00     0.103 A 
HETATM    2  S   UNL     1     -43.552  58.685 -54.231  1.00  0.00    -0.032 SA
HETATM    3  C   UNL     1     -42.079  59.517 -54.780  1.00  0.00     0.185 A 
HETATM    4  N   UNL     1     -41.732  59.819 -55.984  1.00  0.00    -0.134 NA
HETATM    5  N   UNL     1     -41.330  59.783 -53.657  1.00  0.00    -0.336 N 
HETATM    6  C   UNL     1     -41.818  59.323 -52.438  1.00  0.00     0.041 A 
HETATM    7  C   UNL     1     -40.932  59.406 -51.238  1.00  0.00     0.071 C 
HETATM    8  H   UNL     1     -40.390  60.146 -53.739  1.00  0.00     0.168 HD
ENDROOT
BRANCH   1   9
HETATM    9  N   UNL     1     -43.861  58.123 -51.683  1.00  0.00    -0.301 N 
HETATM   10  C   UNL     1     -44.021  56.864 -51.207  1.00  0.00     0.321 C 
HETATM   11  N   UNL     1     -43.013  55.968 -51.423  1.00  0.00    -0.341 N 
HETATM   12  O   UNL     1     -45.012  56.612 -50.526  1.00  0.00    -0.247 OA
HETATM   13  H   UNL     1     -42.124  56.397 -51.633  1.00  0.00     0.164 HD
HETATM   14  H   UNL     1     -44.484  58.762 -51.198  1.00  0.00     0.171 HD
BRANCH  11  15
HETATM   15  C   UNL     1     -42.943  54.776 -50.589  1.00  0.00     0.151 C 
BRANCH  15  16
HETATM   16  C   UNL     1     -41.539  54.415 -50.107  1.00  0.00     0.195 C 
BRANCH  16  17
HETATM   17  O   UNL     1     -40.688  54.498 -51.253  1.00  0.00    -0.350 OA
BRANCH  17  18
HETATM   18  C   UNL     1     -40.401  53.357 -51.944  1.00  0.00     0.068 A 
HETATM   19  C   UNL     1     -40.754  53.403 -53.295  1.00  0.00     0.037 A 
HETATM   20  C   UNL     1     -40.510  52.316 -54.137  1.00  0.00     0.009 A 
HETATM   21  C   UNL     1     -39.910  51.160 -53.632  1.00  0.00    -0.062 A 
HETATM   22  C   UNL     1     -39.614  49.997 -54.532  1.00  0.00     0.048 C 
HETATM   23  C   UNL     1     -39.553  51.119 -52.279  1.00  0.00     0.009 A 
HETATM   24  C   UNL     1     -39.802  52.209 -51.435  1.00  0.00     0.037 A 
ENDBRANCH  17  18
ENDBRANCH  16  17
ENDBRANCH  15  16
ENDBRANCH  11  15
ENDBRANCH   1   9
BRANCH   4  25
HETATM   25  S   UNL     1     -42.710  59.455 -57.222  1.00  0.00     0.285 S 
HETATM   26  O   UNL     1     -42.534  58.056 -57.565  1.00  0.00    -0.198 OA
HETATM   27  O   UNL     1     -44.027  60.009 -56.978  1.00  0.00    -0.198 OA
BRANCH  25  28
HETATM   28  C   UNL     1     -42.055  60.387 -58.595  1.00  0.00     0.081 A 
HETATM   29  C   UNL     1     -41.219  61.482 -58.351  1.00  0.00     0.025 A 
HETATM   30  C   UNL     1     -40.691  62.197 -59.424  1.00  0.00     0.002 A 
HETATM   31  C   UNL     1     -41.001  61.820 -60.733  1.00  0.00     0.000 A 
HETATM   32  C   UNL     1     -41.840  60.728 -60.971  1.00  0.00     0.002 A 
HETATM   33  C   UNL     1     -42.372  60.007 -59.902  1.00  0.00     0.025 A 
ENDBRANCH  25  28
ENDBRANCH   4  25
TORSDOF 7
ENDMDL
MODEL 3
REMARK VINA RESULT:      -8.2      2.268      7.370
REMARK  7 active torsions:
REMARK  status: ('A' for Active; 'I' for Inactive)
REMARK    1  A    between atoms: C_5  and  O_6 
REMARK    2  A    between atoms: O_6  and  C_7 
REMARK    3  A    between atoms: C_7  and  C_8 
REMARK    4  A    between atoms: C_8  and  N_9 
REMARK       I    between atoms: N_9  and  C_10 
REMARK       I    between atoms: C_10  and  N_11 
REMARK    5  A    between atoms: N_11  and  C_12 
REMARK    6  A    between atoms: N_15  and  S_16 
REMARK    7  A    between atoms: S_16  and  C_17 
ROOT
HETATM    1  C   UNL     1     -42.550  58.131 -53.366  1.00  0.00     0.103 A 
HETATM    2  S   UNL     1     -42.255  56.667 -54.286  1.00  0.00    -0.032 SA
HETATM    3  C   UNL     1     -41.314  55.953 -52.957  1.00  0.00     0.185 A 
HETATM    4  N   UNL     1     -40.767  54.787 -52.900  1.00  0.00    -0.134 NA
HETATM    5  N   UNL     1     -41.280  56.886 -51.947  1.00  0.00    -0.336 N 
HETATM    6  C   UNL     1     -41.987  58.068 -52.144  1.00  0.00     0.041 A 
HETATM    7  C   UNL     1     -42.145  59.004 -50.990  1.00  0.00     0.071 C 
HETATM    8  H   UNL     1     -40.899  56.651 -51.040  1.00  0.00     0.168 HD
ENDROOT
BRANCH   1   9
HETATM    9  N   UNL     1     -43.335  59.044 -53.991  1.00  0.00    -0.301 N 
HETATM   10  C   UNL     1     -43.161  59.966 -54.969  1.00  0.00     0.321 C 
HETATM   11  N   UNL     1     -42.030  59.884 -55.730  1.00  0.00    -0.341 N 
HETATM   12  O   UNL     1     -44.066  60.768 -55.191  1.00  0.00    -0.247 OA
HETATM   13  H   UNL     1     -41.587  58.978 -55.707  1.00  0.00     0.164 HD
HETATM   14  H   UNL     1     -44.313  58.994 -53.727  1.00  0.00     0.171 HD
BRANCH  11  15
HETATM   15  C   UNL     1     -42.004  60.553 -57.023  1.00  0.00     0.151 C 
BRANCH  15  16
HETATM   16  C   UNL     1     -41.863  59.617 -58.223  1.00  0.00     0.195 C 
BRANCH  16  17
HETATM   17  O   UNL     1     -42.051  58.292 -57.722  1.00  0.00    -0.350 OA
BRANCH  17  18
HETATM   18  C   UNL     1     -42.762  57.399 -58.470  1.00  0.00     0.068 A 
HETATM   19  C   UNL     1     -43.353  57.950 -59.609  1.00  0.00     0.037 A 
HETATM   20  C   UNL     1     -44.102  57.158 -60.482  1.00  0.00     0.009 A 
HETATM   21  C   UNL     1     -44.273  55.797 -60.221  1.00  0.00    -0.062 A 
HETATM   22  C   UNL     1     -45.049  54.928 -61.166  1.00  0.00     0.048 C 
HETATM   23  C   UNL     1     -43.675  55.246 -59.081  1.00  0.00     0.009 A 
HETATM   24  C   UNL     1     -42.927  56.043 -58.204  1.00  0.00     0.037 A 
ENDBRANCH  17  18
ENDBRANCH  16  17
ENDBRANCH  15  16
ENDBRANCH  11  15
ENDBRANCH   1   9
BRANCH   4  25
HETATM   25  S   UNL     1     -40.875  53.781 -54.164  1.00  0.00     0.285 S 
HETATM   26  O   UNL     1     -42.275  53.603 -54.505  1.00  0.00    -0.198 OA
HETATM   27  O   UNL     1     -39.898  54.156 -55.167  1.00  0.00    -0.198 OA
BRANCH  25  28
HETATM   28  C   UNL     1     -40.318  52.209 -53.529  1.00  0.00     0.081 A 
HETATM   29  C   UNL     1     -39.917  52.106 -52.193  1.00  0.00     0.025 A 
HETATM   30  C   UNL     1     -39.502  50.873 -51.693  1.00  0.00     0.002 A 
HETATM   31  C   UNL     1     -39.484  49.753 -52.526  1.00  0.00     0.000 A 
HETATM   32  C   UNL     1     -39.881  49.862 -53.862  1.00  0.00     0.002 A 
HETATM   33  C   UNL     1     -40.299  51.092 -54.369  1.00  0.00     0.025 A 
ENDBRANCH  25  28
ENDBRANCH   4  25
TORSDOF 7
ENDMDL
MODEL 4
REMARK VINA RESULT:      -8.1      4.879      9.234
REMARK  7 active torsions:
REMARK  status: ('A' for Active; 'I' for Inactive)
REMARK    1  A    between atoms: C_5  and  O_6 
REMARK    2  A    between atoms: O_6  and  C_7 
REMARK    3  A    between atoms: C_7  and  C_8 
REMARK    4  A    between atoms: C_8  and  N_9 
REMARK       I    between atoms: N_9  and  C_10 
REMARK       I    between atoms: C_10  and  N_11 
REMARK    5  A    between atoms: N_11  and  C_12 
REMARK    6  A    between atoms: N_15  and  S_16 
REMARK    7  A    between atoms: S_16  and  C_17 
ROOT
HETATM    1  C   UNL     1     -42.684  59.083 -51.679  1.00  0.00     0.103 A 
HETATM    2  S   UNL     1     -43.089  57.565 -52.458  1.00  0.00    -0.032 SA
HETATM    3  C   UNL     1     -41.586  56.805 -51.886  1.00  0.00     0.185 A 
HETATM    4  N   UNL     1     -41.186  55.592 -52.059  1.00  0.00    -0.134 NA
HETATM    5  N   UNL     1     -40.897  57.765 -51.182  1.00  0.00    -0.336 N 
HETATM    6  C   UNL     1     -41.507  59.006 -51.028  1.00  0.00     0.041 A 
HETATM    7  C   UNL     1     -40.887  59.994 -50.094  1.00  0.00     0.071 C 
HETATM    8  H   UNL     1     -40.066  57.524 -50.660  1.00  0.00     0.168 HD
ENDROOT
BRANCH   1   9
HETATM    9  N   UNL     1     -43.629  60.049 -51.797  1.00  0.00    -0.301 N 
HETATM   10  C   UNL     1     -44.687  60.468 -51.060  1.00  0.00     0.321 C 
HETATM   11  N   UNL     1     -44.778  60.033 -49.769  1.00  0.00    -0.341 N 
HETATM   12  O   UNL     1     -45.458  61.290 -51.550  1.00  0.00    -0.247 OA
HETATM   13  H   UNL     1     -43.904  59.702 -49.387  1.00  0.00     0.164 HD
HETATM   14  H   UNL     1     -43.486  60.669 -52.588  1.00  0.00     0.171 HD
BRANCH  11  15
HETATM   15  C   UNL     1     -45.620  60.770 -48.837  1.00  0.00     0.151 C 
BRANCH  15  16
HETATM   16  C   UNL     1     -44.860  61.663 -47.858  1.00  0.00     0.195 C 
BRANCH  16  17
HETATM   17  O   UNL     1     -45.171  61.179 -46.550  1.00  0.00    -0.350 OA
BRANCH  17  18
HETATM   18  C   UNL     1     -44.809  61.927 -45.468  1.00  0.00     0.068 A 
HETATM   19  C   UNL     1     -44.007  61.249 -44.546  1.00  0.00     0.037 A 
HETATM   20  C   UNL     1     -43.545  61.887 -43.393  1.00  0.00     0.009 A 
HETATM   21  C   UNL     1     -43.886  63.218 -43.144  1.00  0.00    -0.062 A 
HETATM   22  C   UNL     1     -43.371  63.925 -41.925  1.00  0.00     0.048 C 
HETATM   23  C   UNL     1     -44.685  63.897 -44.072  1.00  0.00     0.009 A 
HETATM   24  C   UNL     1     -45.151  63.254 -45.226  1.00  0.00     0.037 A 
ENDBRANCH  17  18
ENDBRANCH  16  17
ENDBRANCH  15  16
ENDBRANCH  11  15
ENDBRANCH   1   9
BRANCH   4  25
HETATM   25  S   UNL     1     -42.090  54.557 -52.916  1.00  0.00     0.285 S 
HETATM   26  O   UNL     1     -43.233  54.157 -52.116  1.00  0.00    -0.198 OA
HETATM   27  O   UNL     1     -42.257  55.062 -54.265  1.00  0.00    -0.198 OA
BRANCH  25  28
HETATM   28  C   UNL     1     -41.068  53.104 -53.081  1.00  0.00     0.081 A 
HETATM   29  C   UNL     1     -40.262  52.701 -52.011  1.00  0.00     0.025 A 
HETATM   30  C   UNL     1     -39.480  51.554 -52.133  1.00  0.00     0.002 A 
HETATM   31  C   UNL     1     -39.502  50.819 -53.320  1.00  0.00     0.000 A 
HETATM   32  C   UNL     1     -40.305  51.228 -54.388  1.00  0.00     0.002 A 
HETATM   33  C   UNL     1     -41.092  52.375 -54.273  1.00  0.00     0.025 A 
ENDBRANCH  25  28
ENDBRANCH   4  25
TORSDOF 7
ENDMDL
MODEL 5
REMARK VINA RESULT:      -7.8      3.804      4.556
REMARK  7 active torsions:
REMARK  status: ('A' for Active; 'I' for Inactive)
REMARK    1  A    between atoms: C_5  and  O_6 
REMARK    2  A    between atoms: O_6  and  C_7 
REMARK    3  A    between atoms: C_7  and  C_8 
REMARK    4  A    between atoms: C_8  and  N_9 
REMARK       I    between atoms: N_9  and  C_10 
REMARK       I    between atoms: C_10  and  N_11 
REMARK    5  A    between atoms: N_11  and  C_12 
REMARK    6  A    between atoms: N_15  and  S_16 
REMARK    7  A    between atoms: S_16  and  C_17 
ROOT
HETATM    1  C   UNL     1     -43.226  57.485 -55.154  1.00  0.00     0.103 A 
HETATM    2  S   UNL     1     -43.302  59.125 -55.771  1.00  0.00    -0.032 SA
HETATM    3  C   UNL     1     -42.430  58.669 -57.252  1.00  0.00     0.185 A 
HETATM    4  N   UNL     1     -42.128  59.409 -58.263  1.00  0.00    -0.134 NA
HETATM    5  N   UNL     1     -42.134  57.330 -57.144  1.00  0.00    -0.336 N 
HETATM    6  C   UNL     1     -42.599  56.660 -56.016  1.00  0.00     0.041 A 
HETATM    7  C   UNL     1     -42.480  55.172 -55.971  1.00  0.00     0.071 C 
HETATM    8  H   UNL     1     -41.744  56.824 -57.927  1.00  0.00     0.168 HD
ENDROOT
BRANCH   1   9
HETATM    9  N   UNL     1     -43.853  57.297 -53.966  1.00  0.00    -0.301 N 
HETATM   10  C   UNL     1     -43.542  56.703 -52.787  1.00  0.00     0.321 C 
HETATM   11  N   UNL     1     -42.233  56.388 -52.557  1.00  0.00    -0.341 N 
HETATM   12  O   UNL     1     -44.427  56.564 -51.946  1.00  0.00    -0.247 OA
HETATM   13  H   UNL     1     -41.583  56.899 -53.134  1.00  0.00     0.164 HD
HETATM   14  H   UNL     1     -44.748  57.769 -53.894  1.00  0.00     0.171 HD
BRANCH  11  15
HETATM   15  C   UNL     1     -41.798  56.159 -51.186  1.00  0.00     0.151 C 
BRANCH  15  16
HETATM   16  C   UNL     1     -41.699  54.688 -50.785  1.00  0.00     0.195 C 
BRANCH  16  17
HETATM   17  O   UNL     1     -40.364  54.278 -51.090  1.00  0.00    -0.350 OA
BRANCH  17  18
HETATM   18  C   UNL     1     -40.174  53.157 -51.844  1.00  0.00     0.068 A 
HETATM   19  C   UNL     1     -40.530  53.304 -53.187  1.00  0.00     0.037 A 
HETATM   20  C   UNL     1     -40.380  52.247 -54.088  1.00  0.00     0.009 A 
HETATM   21  C   UNL     1     -39.873  51.022 -53.651  1.00  0.00    -0.062 A 
HETATM   22  C   UNL     1     -39.677  49.888 -54.614  1.00  0.00     0.048 C 
HETATM   23  C   UNL     1     -39.512  50.879 -52.306  1.00  0.00     0.009 A 
HETATM   24  C   UNL     1     -39.667  51.939 -51.403  1.00  0.00     0.037 A 
ENDBRANCH  17  18
ENDBRANCH  16  17
ENDBRANCH  15  16
ENDBRANCH  11  15
ENDBRANCH   1   9
BRANCH   4  25
HETATM   25  S   UNL     1     -42.531  60.978 -58.265  1.00  0.00     0.285 S 
HETATM   26  O   UNL     1     -43.874  61.119 -58.796  1.00  0.00    -0.198 OA
HETATM   27  O   UNL     1     -42.157  61.575 -56.998  1.00  0.00    -0.198 OA
BRANCH  25  28
HETATM   28  C   UNL     1     -41.442  61.715 -59.471  1.00  0.00     0.081 A 
HETATM   29  C   UNL     1     -41.745  61.607 -60.832  1.00  0.00     0.025 A 
HETATM   30  C   UNL     1     -40.906  62.202 -61.773  1.00  0.00     0.002 A 
HETATM   31  C   UNL     1     -39.769  62.895 -61.353  1.00  0.00     0.000 A 
HETATM   32  C   UNL     1     -39.468  62.996 -59.992  1.00  0.00     0.002 A 
HETATM   33  C   UNL     1     -40.305  62.405 -59.044  1.00  0.00     0.025 A 
ENDBRANCH  25  28
ENDBRANCH   4  25
TORSDOF 7
ENDMDL
MODEL 6
REMARK VINA RESULT:      -7.7      2.313      7.147
REMARK  7 active torsions:
REMARK  status: ('A' for Active; 'I' for Inactive)
REMARK    1  A    between atoms: C_5  and  O_6 
REMARK    2  A    between atoms: O_6  and  C_7 
REMARK    3  A    between atoms: C_7  and  C_8 
REMARK    4  A    between atoms: C_8  and  N_9 
REMARK       I    between atoms: N_9  and  C_10 
REMARK       I    between atoms: C_10  and  N_11 
REMARK    5  A    between atoms: N_11  and  C_12 
REMARK    6  A    between atoms: N_15  and  S_16 
REMARK    7  A    between atoms: S_16  and  C_17 
ROOT
HETATM    1  C   UNL     1     -43.366  57.315 -57.366  1.00  0.00     0.103 A 
HETATM    2  S   UNL     1     -42.676  56.994 -55.786  1.00  0.00    -0.032 SA
HETATM    3  C   UNL     1     -42.689  55.239 -56.074  1.00  0.00     0.185 A 
HETATM    4  N   UNL     1     -42.265  54.298 -55.302  1.00  0.00    -0.134 NA
HETATM    5  N   UNL     1     -43.235  55.044 -57.321  1.00  0.00    -0.336 N 
HETATM    6  C   UNL     1     -43.575  56.176 -58.056  1.00  0.00     0.041 A 
HETATM    7  C   UNL     1     -43.968  56.006 -59.487  1.00  0.00     0.071 C 
HETATM    8  H   UNL     1     -43.233  54.127 -57.747  1.00  0.00     0.168 HD
ENDROOT
BRANCH   1   9
HETATM    9  N   UNL     1     -43.516  58.630 -57.662  1.00  0.00    -0.301 N 
HETATM   10  C   UNL     1     -44.311  59.639 -57.229  1.00  0.00     0.321 C 
HETATM   11  N   UNL     1     -45.003  59.451 -56.066  1.00  0.00    -0.341 N 
HETATM   12  O   UNL     1     -44.301  60.704 -57.841  1.00  0.00    -0.247 OA
HETATM   13  H   UNL     1     -44.626  58.722 -55.480  1.00  0.00     0.164 HD
HETATM   14  H   UNL     1     -42.826  58.986 -58.315  1.00  0.00     0.171 HD
BRANCH  11  15
HETATM   15  C   UNL     1     -45.509  60.617 -55.355  1.00  0.00     0.151 C 
BRANCH  15  16
HETATM   16  C   UNL     1     -45.018  60.748 -53.914  1.00  0.00     0.195 C 
BRANCH  16  17
HETATM   17  O   UNL     1     -43.609  60.513 -53.947  1.00  0.00    -0.350 OA
BRANCH  17  18
HETATM   18  C   UNL     1     -43.072  59.603 -53.084  1.00  0.00     0.068 A 
HETATM   19  C   UNL     1     -41.675  59.599 -53.053  1.00  0.00     0.037 A 
HETATM   20  C   UNL     1     -40.980  58.731 -52.207  1.00  0.00     0.009 A 
HETATM   21  C   UNL     1     -41.679  57.849 -51.380  1.00  0.00    -0.062 A 
HETATM   22  C   UNL     1     -40.946  56.934 -50.445  1.00  0.00     0.048 C 
HETATM   23  C   UNL     1     -43.079  57.860 -51.410  1.00  0.00     0.009 A 
HETATM   24  C   UNL     1     -43.775  58.728 -52.262  1.00  0.00     0.037 A 
ENDBRANCH  17  18
ENDBRANCH  16  17
ENDBRANCH  15  16
ENDBRANCH  11  15
ENDBRANCH   1   9
BRANCH   4  25
HETATM   25  S   UNL     1     -41.645  54.662 -53.850  1.00  0.00     0.285 S 
HETATM   26  O   UNL     1     -40.622  55.677 -54.016  1.00  0.00    -0.198 OA
HETATM   27  O   UNL     1     -42.721  54.828 -52.892  1.00  0.00    -0.198 OA
BRANCH  25  28
HETATM   28  C   UNL     1     -40.792  53.177 -53.347  1.00  0.00     0.081 A 
HETATM   29  C   UNL     1     -40.316  53.066 -52.036  1.00  0.00     0.025 A 
HETATM   30  C   UNL     1     -39.669  51.898 -51.637  1.00  0.00     0.002 A 
HETATM   31  C   UNL     1     -39.496  50.851 -52.546  1.00  0.00     0.000 A 
HETATM   32  C   UNL     1     -39.969  50.970 -53.855  1.00  0.00     0.002 A 
HETATM   33  C   UNL     1     -40.620  52.136 -54.262  1.00  0.00     0.025 A 
ENDBRANCH  25  28
ENDBRANCH   4  25
TORSDOF 7
ENDMDL
MODEL 7
REMARK VINA RESULT:      -7.6      3.772      8.103
REMARK  7 active torsions:
REMARK  status: ('A' for Active; 'I' for Inactive)
REMARK    1  A    between atoms: C_5  and  O_6 
REMARK    2  A    between atoms: O_6  and  C_7 
REMARK    3  A    between atoms: C_7  and  C_8 
REMARK    4  A    between atoms: C_8  and  N_9 
REMARK       I    between atoms: N_9  and  C_10 
REMARK       I    between atoms: C_10  and  N_11 
REMARK    5  A    between atoms: N_11  and  C_12 
REMARK    6  A    between atoms: N_15  and  S_16 
REMARK    7  A    between atoms: S_16  and  C_17 
ROOT
HETATM    1  C   UNL     1     -42.296  59.774 -53.358  1.00  0.00     0.103 A 
HETATM    2  S   UNL     1     -43.656  60.584 -52.602  1.00  0.00    -0.032 SA
HETATM    3  C   UNL     1     -42.945  60.389 -50.984  1.00  0.00     0.185 A 
HETATM    4  N   UNL     1     -43.406  60.802 -49.853  1.00  0.00    -0.134 NA
HETATM    5  N   UNL     1     -41.761  59.709 -51.147  1.00  0.00    -0.336 N 
HETATM    6  C   UNL     1     -41.375  59.400 -52.448  1.00  0.00     0.041 A 
HETATM    7  C   UNL     1     -40.002  58.856 -52.674  1.00  0.00     0.071 C 
HETATM    8  H   UNL     1     -41.124  59.590 -50.372  1.00  0.00     0.168 HD
ENDROOT
BRANCH   1   9
HETATM    9  N   UNL     1     -42.355  59.711 -54.712  1.00  0.00    -0.301 N 
HETATM   10  C   UNL     1     -42.421  58.723 -55.637  1.00  0.00     0.321 C 
HETATM   11  N   UNL     1     -42.736  57.466 -55.205  1.00  0.00    -0.341 N 
HETATM   12  O   UNL     1     -42.292  59.015 -56.823  1.00  0.00    -0.247 OA
HETATM   13  H   UNL     1     -43.192  57.445 -54.306  1.00  0.00     0.164 HD
HETATM   14  H   UNL     1     -42.444  60.617 -55.161  1.00  0.00     0.171 HD
BRANCH  11  15
HETATM   15  C   UNL     1     -43.230  56.495 -56.172  1.00  0.00     0.151 C 
BRANCH  15  16
HETATM   16  C   UNL     1     -42.523  55.141 -56.136  1.00  0.00     0.195 C 
BRANCH  16  17
HETATM   17  O   UNL     1     -41.292  55.349 -55.439  1.00  0.00    -0.350 OA
BRANCH  17  18
HETATM   18  C   UNL     1     -40.947  54.489 -54.439  1.00  0.00     0.068 A 
HETATM   19  C   UNL     1     -40.394  53.285 -54.885  1.00  0.00     0.037 A 
HETATM   20  C   UNL     1     -39.979  52.308 -53.978  1.00  0.00     0.009 A 
HETATM   21  C   UNL     1     -40.116  52.523 -52.605  1.00  0.00    -0.062 A 
HETATM   22  C   UNL     1     -39.645  51.496 -51.618  1.00  0.00     0.048 C 
HETATM   23  C   UNL     1     -40.664  53.733 -52.161  1.00  0.00     0.009 A 
HETATM   24  C   UNL     1     -41.085  54.710 -53.072  1.00  0.00     0.037 A 
ENDBRANCH  17  18
ENDBRANCH  16  17
ENDBRANCH  15  16
ENDBRANCH  11  15
ENDBRANCH   1   9
BRANCH   4  25
HETATM   25  S   UNL     1     -44.820  61.589 -49.795  1.00  0.00     0.285 S 
HETATM   26  O   UNL     1     -44.711  62.812 -50.570  1.00  0.00    -0.198 OA
HETATM   27  O   UNL     1     -45.905  60.653 -50.016  1.00  0.00    -0.198 OA
BRANCH  25  28
HETATM   28  C   UNL     1     -44.977  62.096 -48.091  1.00  0.00     0.081 A 
HETATM   29  C   UNL     1     -45.041  61.127 -47.085  1.00  0.00     0.025 A 
HETATM   30  C   UNL     1     -45.143  61.524 -45.753  1.00  0.00     0.002 A 
HETATM   31  C   UNL     1     -45.184  62.882 -45.431  1.00  0.00     0.000 A 
HETATM   32  C   UNL     1     -45.123  63.847 -46.441  1.00  0.00     0.002 A 
HETATM   33  C   UNL     1     -45.020  63.457 -47.777  1.00  0.00     0.025 A 
ENDBRANCH  25  28
ENDBRANCH   4  25
TORSDOF 7
ENDMDL
MODEL 8
REMARK VINA RESULT:      -7.5      2.737      3.492
REMARK  7 active torsions:
REMARK  status: ('A' for Active; 'I' for Inactive)
REMARK    1  A    between atoms: C_5  and  O_6 
REMARK    2  A    between atoms: O_6  and  C_7 
REMARK    3  A    between atoms: C_7  and  C_8 
REMARK    4  A    between atoms: C_8  and  N_9 
REMARK       I    between atoms: N_9  and  C_10 
REMARK       I    between atoms: C_10  and  N_11 
REMARK    5  A    between atoms: N_11  and  C_12 
REMARK    6  A    between atoms: N_15  and  S_16 
REMARK    7  A    between atoms: S_16  and  C_17 
ROOT
HETATM    1  C   UNL     1     -44.070  56.786 -54.148  1.00  0.00     0.103 A 
HETATM    2  S   UNL     1     -44.271  58.319 -54.975  1.00  0.00    -0.032 SA
HETATM    3  C   UNL     1     -43.727  57.622 -56.518  1.00  0.00     0.185 A 
HETATM    4  N   UNL     1     -43.641  58.196 -57.669  1.00  0.00    -0.134 NA
HETATM    5  N   UNL     1     -43.417  56.305 -56.273  1.00  0.00    -0.336 N 
HETATM    6  C   UNL     1     -43.638  55.824 -54.986  1.00  0.00     0.041 A 
HETATM    7  C   UNL     1     -43.514  54.355 -54.743  1.00  0.00     0.071 C 
HETATM    8  H   UNL     1     -43.199  55.677 -57.035  1.00  0.00     0.168 HD
ENDROOT
BRANCH   1   9
HETATM    9  N   UNL     1     -44.437  56.795 -52.841  1.00  0.00    -0.301 N 
HETATM   10  C   UNL     1     -43.842  56.484 -51.664  1.00  0.00     0.321 C 
HETATM   11  N   UNL     1     -42.484  56.332 -51.655  1.00  0.00    -0.341 N 
HETATM   12  O   UNL     1     -44.530  56.448 -50.646  1.00  0.00    -0.247 OA
HETATM   13  H   UNL     1     -42.020  56.767 -52.439  1.00  0.00     0.164 HD
HETATM   14  H   UNL     1     -45.354  57.196 -52.674  1.00  0.00     0.171 HD
BRANCH  11  15
HETATM   15  C   UNL     1     -41.776  56.427 -50.386  1.00  0.00     0.151 C 
BRANCH  15  16
HETATM   16  C   UNL     1     -40.636  55.424 -50.216  1.00  0.00     0.195 C 
BRANCH  16  17
HETATM   17  O   UNL     1     -41.240  54.129 -50.196  1.00  0.00    -0.350 OA
BRANCH  17  18
HETATM   18  C   UNL     1     -40.758  53.164 -51.031  1.00  0.00     0.068 A 
HETATM   19  C   UNL     1     -40.934  53.442 -52.388  1.00  0.00     0.037 A 
HETATM   20  C   UNL     1     -40.480  52.554 -53.366  1.00  0.00     0.009 A 
HETATM   21  C   UNL     1     -39.844  51.368 -52.994  1.00  0.00    -0.062 A 
HETATM   22  C   UNL     1     -39.324  50.420 -54.034  1.00  0.00     0.048 C 
HETATM   23  C   UNL     1     -39.664  51.095 -51.633  1.00  0.00     0.009 A 
HETATM   24  C   UNL     1     -40.123  51.985 -50.653  1.00  0.00     0.037 A 
ENDBRANCH  17  18
ENDBRANCH  16  17
ENDBRANCH  15  16
ENDBRANCH  11  15
ENDBRANCH   1   9
BRANCH   4  25
HETATM   25  S   UNL     1     -44.033  59.760 -57.824  1.00  0.00     0.285 S 
HETATM   26  O   UNL     1     -45.478  59.887 -57.812  1.00  0.00    -0.198 OA
HETATM   27  O   UNL     1     -43.201  60.557 -56.944  1.00  0.00    -0.198 OA
BRANCH  25  28
HETATM   28  C   UNL     1     -43.512  60.187 -59.476  1.00  0.00     0.081 A 
HETATM   29  C   UNL     1     -42.181  60.547 -59.710  1.00  0.00     0.025 A 
HETATM   30  C   UNL     1     -41.771  60.860 -61.005  1.00  0.00     0.002 A 
HETATM   31  C   UNL     1     -42.688  60.818 -62.056  1.00  0.00     0.000 A 
HETATM   32  C   UNL     1     -44.018  60.463 -61.817  1.00  0.00     0.002 A 
HETATM   33  C   UNL     1     -44.436  60.146 -60.524  1.00  0.00     0.025 A 
ENDBRANCH  25  28
ENDBRANCH   4  25
TORSDOF 7
ENDMDL
MODEL 9
REMARK VINA RESULT:      -7.5      2.132      2.700
REMARK  7 active torsions:
REMARK  status: ('A' for Active; 'I' for Inactive)
REMARK    1  A    between atoms: C_5  and  O_6 
REMARK    2  A    between atoms: O_6  and  C_7 
REMARK    3  A    between atoms: C_7  and  C_8 
REMARK    4  A    between atoms: C_8  and  N_9 
REMARK       I    between atoms: N_9  and  C_10 
REMARK       I    between atoms: C_10  and  N_11 
REMARK    5  A    between atoms: N_11  and  C_12 
REMARK    6  A    between atoms: N_15  and  S_16 
REMARK    7  A    between atoms: S_16  and  C_17 
ROOT
HETATM    1  C   UNL     1     -43.361  58.851 -53.044  1.00  0.00     0.103 A 
HETATM    2  S   UNL     1     -44.176  58.908 -54.596  1.00  0.00    -0.032 SA
HETATM    3  C   UNL     1     -42.814  59.774 -55.344  1.00  0.00     0.185 A 
HETATM    4  N   UNL     1     -42.681  60.151 -56.569  1.00  0.00    -0.134 NA
HETATM    5  N   UNL     1     -41.876  59.969 -54.357  1.00  0.00    -0.336 N 
HETATM    6  C   UNL     1     -42.148  59.433 -53.101  1.00  0.00     0.041 A 
HETATM    7  C   UNL     1     -41.063  59.441 -52.073  1.00  0.00     0.071 C 
HETATM    8  H   UNL     1     -40.962  60.337 -54.580  1.00  0.00     0.168 HD
ENDROOT
BRANCH   1   9
HETATM    9  N   UNL     1     -44.038  58.187 -52.073  1.00  0.00    -0.301 N 
HETATM   10  C   UNL     1     -43.808  57.097 -51.301  1.00  0.00     0.321 C 
HETATM   11  N   UNL     1     -42.533  56.611 -51.247  1.00  0.00    -0.341 N 
HETATM   12  O   UNL     1     -44.727  56.656 -50.614  1.00  0.00    -0.247 OA
HETATM   13  H   UNL     1     -41.830  57.278 -51.526  1.00  0.00     0.164 HD
HETATM   14  H   UNL     1     -44.899  58.642 -51.789  1.00  0.00     0.171 HD
BRANCH  11  15
HETATM   15  C   UNL     1     -42.159  55.746 -50.137  1.00  0.00     0.151 C 
BRANCH  15  16
HETATM   16  C   UNL     1     -41.901  54.290 -50.521  1.00  0.00     0.195 C 
BRANCH  16  17
HETATM   17  O   UNL     1     -40.743  54.294 -51.358  1.00  0.00    -0.350 OA
BRANCH  17  18
HETATM   18  C   UNL     1     -40.431  53.167 -52.059  1.00  0.00     0.068 A 
HETATM   19  C   UNL     1     -40.795  53.212 -53.407  1.00  0.00     0.037 A 
HETATM   20  C   UNL     1     -40.529  52.136 -54.258  1.00  0.00     0.009 A 
HETATM   21  C   UNL     1     -39.896  50.994 -53.765  1.00  0.00    -0.062 A 
HETATM   22  C   UNL     1     -39.576  49.844 -54.674  1.00  0.00     0.048 C 
HETATM   23  C   UNL     1     -39.527  50.953 -52.415  1.00  0.00     0.009 A 
HETATM   24  C   UNL     1     -39.798  52.031 -51.562  1.00  0.00     0.037 A 
ENDBRANCH  17  18
ENDBRANCH  16  17
ENDBRANCH  15  16
ENDBRANCH  11  15
ENDBRANCH   1   9
BRANCH   4  25
HETATM   25  S   UNL     1     -43.866  59.864 -57.636  1.00  0.00     0.285 S 
HETATM   26  O   UNL     1     -45.086  59.553 -56.913  1.00  0.00    -0.198 OA
HETATM   27  O   UNL     1     -43.843  60.881 -58.669  1.00  0.00    -0.198 OA
BRANCH  25  28
HETATM   28  C   UNL     1     -43.375  58.355 -58.451  1.00  0.00     0.081 A 
HETATM   29  C   UNL     1     -42.431  58.402 -59.482  1.00  0.00     0.025 A 
HETATM   30  C   UNL     1     -42.033  57.220 -60.103  1.00  0.00     0.002 A 
HETATM   31  C   UNL     1     -42.579  56.001 -59.699  1.00  0.00     0.000 A 
HETATM   32  C   UNL     1     -43.526  55.960 -58.671  1.00  0.00     0.002 A 
HETATM   33  C   UNL     1     -43.929  57.138 -58.043  1.00  0.00     0.025 A 
ENDBRANCH  25  28
ENDBRANCH   4  25
TORSDOF 7
ENDMDL
MODEL 10
REMARK VINA RESULT:      -7.5      1.704      2.155
REMARK  7 active torsions:
REMARK  status: ('A' for Active; 'I' for Inactive)
REMARK    1  A    between atoms: C_5  and  O_6 
REMARK    2  A    between atoms: O_6  and  C_7 
REMARK    3  A    between atoms: C_7  and  C_8 
REMARK    4  A    between atoms: C_8  and  N_9 
REMARK       I    between atoms: N_9  and  C_10 
REMARK       I    between atoms: C_10  and  N_11 
REMARK    5  A    between atoms: N_11  and  C_12 
REMARK    6  A    between atoms: N_15  and  S_16 
REMARK    7  A    between atoms: S_16  and  C_17 
ROOT
HETATM    1  C   UNL     1     -43.537  58.536 -53.187  1.00  0.00     0.103 A 
HETATM    2  S   UNL     1     -43.544  57.695 -54.726  1.00  0.00    -0.032 SA
HETATM    3  C   UNL     1     -42.629  59.003 -55.509  1.00  0.00     0.185 A 
HETATM    4  N   UNL     1     -42.208  59.067 -56.726  1.00  0.00    -0.134 NA
HETATM    5  N   UNL     1     -42.420  59.970 -54.555  1.00  0.00    -0.336 N 
HETATM    6  C   UNL     1     -42.879  59.709 -53.267  1.00  0.00     0.041 A 
HETATM    7  C   UNL     1     -42.483  60.638 -52.167  1.00  0.00     0.071 C 
HETATM    8  H   UNL     1     -41.814  60.757 -54.742  1.00  0.00     0.168 HD
ENDROOT
BRANCH   1   9
HETATM    9  N   UNL     1     -44.124  57.858 -52.169  1.00  0.00    -0.301 N 
HETATM   10  C   UNL     1     -43.759  56.859 -51.330  1.00  0.00     0.321 C 
HETATM   11  N   UNL     1     -42.433  56.540 -51.256  1.00  0.00    -0.341 N 
HETATM   12  O   UNL     1     -44.614  56.352 -50.607  1.00  0.00    -0.247 OA
HETATM   13  H   UNL     1     -41.819  57.270 -51.585  1.00  0.00     0.164 HD
HETATM   14  H   UNL     1     -45.035  58.220 -51.906  1.00  0.00     0.171 HD
BRANCH  11  15
HETATM   15  C   UNL     1     -41.952  55.803 -50.096  1.00  0.00     0.151 C 
BRANCH  15  16
HETATM   16  C   UNL     1     -41.693  54.318 -50.345  1.00  0.00     0.195 C 
BRANCH  16  17
HETATM   17  O   UNL     1     -40.451  54.239 -51.048  1.00  0.00    -0.350 OA
BRANCH  17  18
HETATM   18  C   UNL     1     -40.290  53.271 -51.995  1.00  0.00     0.068 A 
HETATM   19  C   UNL     1     -39.734  52.084 -51.512  1.00  0.00     0.037 A 
HETATM   20  C   UNL     1     -39.520  50.995 -52.360  1.00  0.00     0.009 A 
HETATM   21  C   UNL     1     -39.860  51.083 -53.711  1.00  0.00    -0.062 A 
HETATM   22  C   UNL     1     -39.665  49.910 -54.627  1.00  0.00     0.048 C 
HETATM   23  C   UNL     1     -40.423  52.271 -54.192  1.00  0.00     0.009 A 
HETATM   24  C   UNL     1     -40.632  53.364 -53.341  1.00  0.00     0.037 A 
ENDBRANCH  17  18
ENDBRANCH  16  17
ENDBRANCH  15  16
ENDBRANCH  11  15
ENDBRANCH   1   9
BRANCH   4  25
HETATM   25  S   UNL     1     -42.526  57.859 -57.757  1.00  0.00     0.285 S 
HETATM   26  O   UNL     1     -41.703  58.021 -58.941  1.00  0.00    -0.198 OA
HETATM   27  O   UNL     1     -42.564  56.603 -57.034  1.00  0.00    -0.198 OA
BRANCH  25  28
HETATM   28  C   UNL     1     -44.207  58.151 -58.279  1.00  0.00     0.081 A 
HETATM   29  C   UNL     1     -44.948  57.104 -58.837  1.00  0.00     0.025 A 
HETATM   30  C   UNL     1     -46.268  57.328 -59.225  1.00  0.00     0.002 A 
HETATM   31  C   UNL     1     -46.839  58.592 -59.060  1.00  0.00     0.000 A 
HETATM   32  C   UNL     1     -46.092  59.635 -58.507  1.00  0.00     0.002 A 
HETATM   33  C   UNL     1     -44.771  59.419 -58.114  1.00  0.00     0.025 A 
ENDBRANCH  25  28
ENDBRANCH   4  25
TORSDOF 7
ENDMDL
