MODEL 1
REMARK VINA RESULT:      -8.3      0.000      0.000
REMARK  7 active torsions:
REMARK  status: ('A' for Active; 'I' for Inactive)
REMARK    1  A    between atoms: O_2  and  C_3 
REMARK    2  A    between atoms: C_5  and  C_6 
REMARK    3  A    between atoms: C_6  and  O_7 
REMARK    4  A    between atoms: C_6  and  C_8 
REMARK    5  A    between atoms: C_8  and  N_9 
REMARK       I    between atoms: N_9  and  C_10 
REMARK    6  A    between atoms: C_10  and  C_11 
REMARK    7  A    between atoms: C_12  and  C_13 
ROOT
HETATM    1  C   UNL     1     -44.114  56.437 -54.335  1.00  0.00     0.089 C 
HETATM    2  C   UNL     1     -43.513  56.115 -52.951  1.00  0.00     0.068 C 
HETATM    3  C   UNL     1     -42.893  57.320 -52.221  1.00  0.00     0.013 C 
HETATM    4  C   UNL     1     -43.807  58.538 -52.234  1.00  0.00     0.001 C 
HETATM    5  C   UNL     1     -44.212  58.906 -53.654  1.00  0.00     0.001 C 
HETATM    6  C   UNL     1     -44.921  57.745 -54.341  1.00  0.00     0.015 C 
ENDROOT
BRANCH   1   7
HETATM    7  C   UNL     1     -43.184  56.393 -55.555  1.00  0.00     0.222 C 
HETATM    8  N   UNL     1     -43.511  55.515 -56.556  1.00  0.00    -0.358 N 
HETATM    9  H   UNL     1     -44.507  55.441 -56.735  1.00  0.00     0.162 HD
HETATM   10  O   UNL     1     -42.142  57.048 -55.556  1.00  0.00    -0.273 OA
BRANCH   8  11
HETATM   11  C   UNL     1     -42.702  55.386 -57.760  1.00  0.00     0.159 C 
BRANCH  11  12
HETATM   12  C   UNL     1     -42.873  56.472 -58.846  1.00  0.00     0.169 C 
BRANCH  12  13
HETATM   13  C   UNL     1     -44.292  56.980 -59.010  1.00  0.00    -0.025 A 
HETATM   14  C   UNL     1     -45.254  56.245 -59.726  1.00  0.00     0.046 A 
HETATM   15  C   UNL     1     -46.564  56.715 -59.848  1.00  0.00     0.068 A 
HETATM   16  C   UNL     1     -46.910  57.936 -59.264  1.00  0.00     0.037 A 
HETATM   17  C   UNL     1     -45.967  58.679 -58.558  1.00  0.00     0.003 A 
HETATM   18  C   UNL     1     -44.664  58.202 -58.430  1.00  0.00     0.010 A 
BRANCH  15  19
HETATM   19  O   UNL     1     -47.588  56.088 -60.503  1.00  0.00    -0.356 OA
HETATM   20  C   UNL     1     -48.033  56.682 -61.716  1.00  0.00     0.210 C 
ENDBRANCH  15  19
ENDBRANCH  12  13
BRANCH  12  21
HETATM   21  O   UNL     1     -42.026  57.585 -58.516  1.00  0.00    -0.389 OA
HETATM   22  H   UNL     1     -41.945  57.584 -57.546  1.00  0.00     0.210 HD
ENDBRANCH  12  21
ENDBRANCH  11  12
ENDBRANCH   8  11
ENDBRANCH   1   7
BRANCH   2  23
HETATM   23  C   UNL     1     -42.544  54.972 -53.020  1.00  0.00     0.110 A 
HETATM   24  N   UNL     1     -42.460  54.080 -53.986  1.00  0.00    -0.233 NA
HETATM   25  C   UNL     1     -41.478  53.202 -53.595  1.00  0.00     0.087 A 
HETATM   26  C   UNL     1     -40.949  53.570 -52.363  1.00  0.00     0.062 A 
HETATM   27  C   UNL     1     -40.989  52.060 -54.243  1.00  0.00     0.057 A 
HETATM   28  N   UNL     1     -41.644  54.701 -52.019  1.00  0.00    -0.342 N 
HETATM   29  C   UNL     1     -39.939  52.856 -51.715  1.00  0.00     0.034 A 
HETATM   30  H   UNL     1     -41.526  55.230 -51.166  1.00  0.00     0.167 HD
HETATM   31  C   UNL     1     -39.460  51.718 -52.374  1.00  0.00     0.026 A 
HETATM   32  C   UNL     1     -39.977  51.330 -53.613  1.00  0.00     0.036 A 
HETATM   33 CL   UNL     1     -39.354  49.919 -54.382  1.00  0.00    -0.084 Cl
ENDBRANCH   2  23
TORSDOF 7
ENDMDL
MODEL 2
REMARK VINA RESULT:      -8.2      2.883      5.110
REMARK  7 active torsions:
REMARK  status: ('A' for Active; 'I' for Inactive)
REMARK    1  A    between atoms: O_2  and  C_3 
REMARK    2  A    between atoms: C_5  and  C_6 
REMARK    3  A    between atoms: C_6  and  O_7 
REMARK    4  A    between atoms: C_6  and  C_8 
REMARK    5  A    between atoms: C_8  and  N_9 
REMARK       I    between atoms: N_9  and  C_10 
REMARK    6  A    between atoms: C_10  and  C_11 
REMARK    7  A    between atoms: C_12  and  C_13 
ROOT
HETATM    1  C   UNL     1     -40.725  54.942 -54.477  1.00  0.00     0.089 C 
HETATM    2  C   UNL     1     -40.869  54.985 -52.942  1.00  0.00     0.068 C 
HETATM    3  C   UNL     1     -41.288  53.651 -52.296  1.00  0.00     0.013 C 
HETATM    4  C   UNL     1     -40.470  52.475 -52.812  1.00  0.00     0.001 C 
HETATM    5  C   UNL     1     -40.526  52.391 -54.331  1.00  0.00     0.001 C 
HETATM    6  C   UNL     1     -40.010  53.674 -54.971  1.00  0.00     0.015 C 
ENDROOT
BRANCH   1   7
HETATM    7  C   UNL     1     -41.976  55.200 -55.327  1.00  0.00     0.222 C 
HETATM    8  N   UNL     1     -41.936  56.266 -56.189  1.00  0.00    -0.358 N 
HETATM    9  H   UNL     1     -41.038  56.401 -56.641  1.00  0.00     0.162 HD
HETATM   10  O   UNL     1     -42.993  54.529 -55.144  1.00  0.00    -0.273 OA
BRANCH   8  11
HETATM   11  C   UNL     1     -43.064  56.607 -57.044  1.00  0.00     0.159 C 
BRANCH  11  12
HETATM   12  C   UNL     1     -43.047  56.058 -58.488  1.00  0.00     0.169 C 
BRANCH  12  13
HETATM   13  C   UNL     1     -44.347  56.241 -59.246  1.00  0.00    -0.025 A 
HETATM   14  C   UNL     1     -45.212  57.315 -58.968  1.00  0.00     0.046 A 
HETATM   15  C   UNL     1     -46.395  57.484 -59.692  1.00  0.00     0.068 A 
HETATM   16  C   UNL     1     -46.724  56.563 -60.689  1.00  0.00     0.037 A 
HETATM   17  C   UNL     1     -45.882  55.489 -60.971  1.00  0.00     0.003 A 
HETATM   18  C   UNL     1     -44.698  55.330 -60.254  1.00  0.00     0.010 A 
BRANCH  15  19
HETATM   19  O   UNL     1     -47.304  58.492 -59.526  1.00  0.00    -0.356 OA
HETATM   20  C   UNL     1     -47.373  59.087 -58.237  1.00  0.00     0.210 C 
ENDBRANCH  15  19
ENDBRANCH  12  13
BRANCH  12  21
HETATM   21  O   UNL     1     -41.999  56.718 -59.217  1.00  0.00    -0.389 OA
HETATM   22  H   UNL     1     -41.636  56.054 -59.829  1.00  0.00     0.210 HD
ENDBRANCH  12  21
ENDBRANCH  11  12
ENDBRANCH   8  11
ENDBRANCH   1   7
BRANCH   2  23
HETATM   23  C   UNL     1     -41.767  56.101 -52.500  1.00  0.00     0.110 A 
HETATM   24  N   UNL     1     -41.421  57.362 -52.339  1.00  0.00    -0.233 NA
HETATM   25  C   UNL     1     -42.545  57.999 -51.872  1.00  0.00     0.087 A 
HETATM   26  C   UNL     1     -43.604  57.106 -51.750  1.00  0.00     0.062 A 
HETATM   27  C   UNL     1     -42.733  59.344 -51.527  1.00  0.00     0.057 A 
HETATM   28  N   UNL     1     -43.083  55.905 -52.157  1.00  0.00    -0.342 N 
HETATM   29  C   UNL     1     -44.870  57.473 -51.292  1.00  0.00     0.034 A 
HETATM   30  H   UNL     1     -43.577  55.024 -52.180  1.00  0.00     0.167 HD
HETATM   31  C   UNL     1     -45.044  58.819 -50.950  1.00  0.00     0.026 A 
HETATM   32  C   UNL     1     -43.994  59.734 -51.066  1.00  0.00     0.036 A 
HETATM   33 CL   UNL     1     -44.259  61.380 -50.631  1.00  0.00    -0.084 Cl
ENDBRANCH   2  23
TORSDOF 7
ENDMDL
MODEL 3
REMARK VINA RESULT:      -8.2      3.332      5.856
REMARK  7 active torsions:
REMARK  status: ('A' for Active; 'I' for Inactive)
REMARK    1  A    between atoms: O_2  and  C_3 
REMARK    2  A    between atoms: C_5  and  C_6 
REMARK    3  A    between atoms: C_6  and  O_7 
REMARK    4  A    between atoms: C_6  and  C_8 
REMARK    5  A    between atoms: C_8  and  N_9 
REMARK       I    between atoms: N_9  and  C_10 
REMARK    6  A    between atoms: C_10  and  C_11 
REMARK    7  A    between atoms: C_12  and  C_13 
ROOT
HETATM    1  C   UNL     1     -40.725  54.766 -54.627  1.00  0.00     0.089 C 
HETATM    2  C   UNL     1     -40.795  54.930 -53.094  1.00  0.00     0.068 C 
HETATM    3  C   UNL     1     -41.136  53.642 -52.323  1.00  0.00     0.013 C 
HETATM    4  C   UNL     1     -40.305  52.453 -52.784  1.00  0.00     0.001 C 
HETATM    5  C   UNL     1     -40.432  52.243 -54.286  1.00  0.00     0.001 C 
HETATM    6  C   UNL     1     -39.992  53.484 -55.054  1.00  0.00     0.015 C 
ENDROOT
BRANCH   1   7
HETATM    7  C   UNL     1     -42.024  54.915 -55.429  1.00  0.00     0.222 C 
HETATM    8  N   UNL     1     -42.012  55.800 -56.477  1.00  0.00    -0.358 N 
HETATM    9  H   UNL     1     -41.144  55.809 -57.002  1.00  0.00     0.162 HD
HETATM   10  O   UNL     1     -43.045  54.335 -55.059  1.00  0.00    -0.273 OA
BRANCH   8  11
HETATM   11  C   UNL     1     -43.186  56.024 -57.308  1.00  0.00     0.159 C 
BRANCH  11  12
HETATM   12  C   UNL     1     -43.835  57.425 -57.251  1.00  0.00     0.169 C 
BRANCH  12  13
HETATM   13  C   UNL     1     -43.132  58.479 -58.086  1.00  0.00    -0.025 A 
HETATM   14  C   UNL     1     -42.286  59.435 -57.495  1.00  0.00     0.046 A 
HETATM   15  C   UNL     1     -41.626  60.384 -58.280  1.00  0.00     0.068 A 
HETATM   16  C   UNL     1     -41.828  60.388 -59.663  1.00  0.00     0.037 A 
HETATM   17  C   UNL     1     -42.669  59.452 -60.261  1.00  0.00     0.003 A 
HETATM   18  C   UNL     1     -43.317  58.501 -59.476  1.00  0.00     0.010 A 
BRANCH  15  19
HETATM   19  O   UNL     1     -40.770  61.350 -57.828  1.00  0.00    -0.356 OA
HETATM   20  C   UNL     1     -40.298  62.288 -58.787  1.00  0.00     0.210 C 
ENDBRANCH  15  19
ENDBRANCH  12  13
BRANCH  12  21
HETATM   21  O   UNL     1     -45.194  57.319 -57.704  1.00  0.00    -0.389 OA
HETATM   22  H   UNL     1     -45.544  56.497 -57.316  1.00  0.00     0.210 HD
ENDBRANCH  12  21
ENDBRANCH  11  12
ENDBRANCH   8  11
ENDBRANCH   1   7
BRANCH   2  23
HETATM   23  C   UNL     1     -41.708  56.051 -52.698  1.00  0.00     0.110 A 
HETATM   24  N   UNL     1     -41.421  57.337 -52.728  1.00  0.00    -0.233 NA
HETATM   25  C   UNL     1     -42.529  57.976 -52.226  1.00  0.00     0.087 A 
HETATM   26  C   UNL     1     -43.516  57.058 -51.884  1.00  0.00     0.062 A 
HETATM   27  C   UNL     1     -42.759  59.343 -52.027  1.00  0.00     0.057 A 
HETATM   28  N   UNL     1     -42.969  55.840 -52.196  1.00  0.00    -0.342 N 
HETATM   29  C   UNL     1     -44.750  57.422 -51.343  1.00  0.00     0.034 A 
HETATM   30  H   UNL     1     -43.411  54.942 -52.060  1.00  0.00     0.167 HD
HETATM   31  C   UNL     1     -44.967  58.791 -51.149  1.00  0.00     0.026 A 
HETATM   32  C   UNL     1     -43.989  59.731 -51.486  1.00  0.00     0.036 A 
HETATM   33 CL   UNL     1     -44.304  61.405 -51.227  1.00  0.00    -0.084 Cl
ENDBRANCH   2  23
TORSDOF 7
ENDMDL
MODEL 4
REMARK VINA RESULT:      -8.2      1.893      3.073
REMARK  7 active torsions:
REMARK  status: ('A' for Active; 'I' for Inactive)
REMARK    1  A    between atoms: O_2  and  C_3 
REMARK    2  A    between atoms: C_5  and  C_6 
REMARK    3  A    between atoms: C_6  and  O_7 
REMARK    4  A    between atoms: C_6  and  C_8 
REMARK    5  A    between atoms: C_8  and  N_9 
REMARK       I    between atoms: N_9  and  C_10 
REMARK    6  A    between atoms: C_10  and  C_11 
REMARK    7  A    between atoms: C_12  and  C_13 
ROOT
HETATM    1  C   UNL     1     -43.967  56.563 -53.715  1.00  0.00     0.089 C 
HETATM    2  C   UNL     1     -43.317  56.085 -52.400  1.00  0.00     0.068 C 
HETATM    3  C   UNL     1     -42.624  57.191 -51.584  1.00  0.00     0.013 C 
HETATM    4  C   UNL     1     -43.494  58.432 -51.433  1.00  0.00     0.001 C 
HETATM    5  C   UNL     1     -43.948  58.953 -52.789  1.00  0.00     0.001 C 
HETATM    6  C   UNL     1     -44.727  57.889 -53.553  1.00  0.00     0.015 C 
ENDROOT
BRANCH   1   7
HETATM    7  C   UNL     1     -43.094  56.613 -54.976  1.00  0.00     0.222 C 
HETATM    8  N   UNL     1     -43.489  55.843 -56.039  1.00  0.00    -0.358 N 
HETATM    9  H   UNL     1     -44.494  55.810 -56.177  1.00  0.00     0.162 HD
HETATM   10  O   UNL     1     -42.035  57.241 -54.965  1.00  0.00    -0.273 OA
BRANCH   8  11
HETATM   11  C   UNL     1     -42.739  55.810 -57.287  1.00  0.00     0.159 C 
BRANCH  11  12
HETATM   12  C   UNL     1     -43.434  56.378 -58.544  1.00  0.00     0.169 C 
BRANCH  12  13
HETATM   13  C   UNL     1     -42.936  57.745 -58.975  1.00  0.00    -0.025 A 
HETATM   14  C   UNL     1     -42.214  58.571 -58.094  1.00  0.00     0.046 A 
HETATM   15  C   UNL     1     -41.741  59.817 -58.514  1.00  0.00     0.068 A 
HETATM   16  C   UNL     1     -42.007  60.247 -59.816  1.00  0.00     0.037 A 
HETATM   17  C   UNL     1     -42.727  59.443 -60.697  1.00  0.00     0.003 A 
HETATM   18  C   UNL     1     -43.188  58.197 -60.278  1.00  0.00     0.010 A 
BRANCH  15  19
HETATM   19  O   UNL     1     -41.019  60.700 -57.760  1.00  0.00    -0.356 OA
HETATM   20  C   UNL     1     -40.719  61.956 -58.356  1.00  0.00     0.210 C 
ENDBRANCH  15  19
ENDBRANCH  12  13
BRANCH  12  21
HETATM   21  O   UNL     1     -43.237  55.459 -59.631  1.00  0.00    -0.389 OA
HETATM   22  H   UNL     1     -42.908  54.635 -59.230  1.00  0.00     0.210 HD
ENDBRANCH  12  21
ENDBRANCH  11  12
ENDBRANCH   8  11
ENDBRANCH   1   7
BRANCH   2  23
HETATM   23  C   UNL     1     -42.394  54.926 -52.628  1.00  0.00     0.110 A 
HETATM   24  N   UNL     1     -42.415  54.104 -53.657  1.00  0.00    -0.233 NA
HETATM   25  C   UNL     1     -41.433  53.175 -53.410  1.00  0.00     0.087 A 
HETATM   26  C   UNL     1     -40.795  53.440 -52.203  1.00  0.00     0.062 A 
HETATM   27  C   UNL     1     -41.034  52.071 -54.174  1.00  0.00     0.057 A 
HETATM   28  N   UNL     1     -41.424  54.560 -51.726  1.00  0.00    -0.342 N 
HETATM   29  C   UNL     1     -39.759  52.656 -51.693  1.00  0.00     0.034 A 
HETATM   30  H   UNL     1     -41.223  55.024 -50.851  1.00  0.00     0.167 HD
HETATM   31  C   UNL     1     -39.370  51.556 -52.466  1.00  0.00     0.026 A 
HETATM   32  C   UNL     1     -39.997  51.272 -53.682  1.00  0.00     0.036 A 
HETATM   33 CL   UNL     1     -39.482  49.904 -54.597  1.00  0.00    -0.084 Cl
ENDBRANCH   2  23
TORSDOF 7
ENDMDL
MODEL 5
REMARK VINA RESULT:      -8.1      3.130      7.512
REMARK  7 active torsions:
REMARK  status: ('A' for Active; 'I' for Inactive)
REMARK    1  A    between atoms: O_2  and  C_3 
REMARK    2  A    between atoms: C_5  and  C_6 
REMARK    3  A    between atoms: C_6  and  O_7 
REMARK    4  A    between atoms: C_6  and  C_8 
REMARK    5  A    between atoms: C_8  and  N_9 
REMARK       I    between atoms: N_9  and  C_10 
REMARK    6  A    between atoms: C_10  and  C_11 
REMARK    7  A    between atoms: C_12  and  C_13 
ROOT
HETATM    1  C   UNL     1     -43.707  56.888 -57.157  1.00  0.00     0.089 C 
HETATM    2  C   UNL     1     -43.071  58.292 -57.081  1.00  0.00     0.068 C 
HETATM    3  C   UNL     1     -41.872  58.507 -58.021  1.00  0.00     0.013 C 
HETATM    4  C   UNL     1     -42.151  58.026 -59.438  1.00  0.00     0.001 C 
HETATM    5  C   UNL     1     -42.600  56.572 -59.447  1.00  0.00     0.001 C 
HETATM    6  C   UNL     1     -43.853  56.379 -58.599  1.00  0.00     0.015 C 
ENDROOT
BRANCH   1   7
HETATM    7  C   UNL     1     -43.120  55.781 -56.270  1.00  0.00     0.222 C 
HETATM    8  N   UNL     1     -43.828  55.441 -55.146  1.00  0.00    -0.358 N 
HETATM    9  H   UNL     1     -44.835  55.443 -55.274  1.00  0.00     0.162 HD
HETATM   10  O   UNL     1     -42.009  55.315 -56.525  1.00  0.00    -0.273 OA
BRANCH   8  11
HETATM   11  C   UNL     1     -43.369  54.406 -54.231  1.00  0.00     0.159 C 
BRANCH  11  12
HETATM   12  C   UNL     1     -42.387  54.832 -53.117  1.00  0.00     0.169 C 
BRANCH  12  13
HETATM   13  C   UNL     1     -41.443  53.738 -52.658  1.00  0.00    -0.025 A 
HETATM   14  C   UNL     1     -40.783  52.906 -53.581  1.00  0.00     0.046 A 
HETATM   15  C   UNL     1     -39.897  51.918 -53.143  1.00  0.00     0.068 A 
HETATM   16  C   UNL     1     -39.684  51.749 -51.773  1.00  0.00     0.037 A 
HETATM   17  C   UNL     1     -40.336  52.559 -50.847  1.00  0.00     0.003 A 
HETATM   18  C   UNL     1     -41.211  53.550 -51.288  1.00  0.00     0.010 A 
BRANCH  15  19
HETATM   19  O   UNL     1     -39.187  51.062 -53.939  1.00  0.00    -0.356 OA
HETATM   20  C   UNL     1     -39.871  49.906 -54.407  1.00  0.00     0.210 C 
ENDBRANCH  15  19
ENDBRANCH  12  13
BRANCH  12  21
HETATM   21  O   UNL     1     -41.603  55.937 -53.596  1.00  0.00    -0.389 OA
HETATM   22  H   UNL     1     -41.511  56.548 -52.844  1.00  0.00     0.210 HD
ENDBRANCH  12  21
ENDBRANCH  11  12
ENDBRANCH   8  11
ENDBRANCH   1   7
BRANCH   2  23
HETATM   23  C   UNL     1     -42.724  58.669 -55.672  1.00  0.00     0.110 A 
HETATM   24  N   UNL     1     -41.512  58.732 -55.159  1.00  0.00    -0.233 NA
HETATM   25  C   UNL     1     -41.686  59.058 -53.836  1.00  0.00     0.087 A 
HETATM   26  C   UNL     1     -43.036  59.202 -53.536  1.00  0.00     0.062 A 
HETATM   27  C   UNL     1     -40.731  59.244 -52.828  1.00  0.00     0.057 A 
HETATM   28  N   UNL     1     -43.676  58.950 -54.722  1.00  0.00    -0.342 N 
HETATM   29  C   UNL     1     -43.511  59.525 -52.264  1.00  0.00     0.034 A 
HETATM   30  H   UNL     1     -44.676  58.951 -54.866  1.00  0.00     0.167 HD
HETATM   31  C   UNL     1     -42.547  59.707 -51.266  1.00  0.00     0.026 A 
HETATM   32  C   UNL     1     -41.185  59.569 -51.545  1.00  0.00     0.036 A 
HETATM   33 CL   UNL     1     -40.037  59.803 -50.281  1.00  0.00    -0.084 Cl
ENDBRANCH   2  23
TORSDOF 7
ENDMDL
MODEL 6
REMARK VINA RESULT:      -8.1      2.346      3.216
REMARK  7 active torsions:
REMARK  status: ('A' for Active; 'I' for Inactive)
REMARK    1  A    between atoms: O_2  and  C_3 
REMARK    2  A    between atoms: C_5  and  C_6 
REMARK    3  A    between atoms: C_6  and  O_7 
REMARK    4  A    between atoms: C_6  and  C_8 
REMARK    5  A    between atoms: C_8  and  N_9 
REMARK       I    between atoms: N_9  and  C_10 
REMARK    6  A    between atoms: C_10  and  C_11 
REMARK    7  A    between atoms: C_12  and  C_13 
ROOT
HETATM    1  C   UNL     1     -43.533  58.074 -51.798  1.00  0.00     0.089 C 
HETATM    2  C   UNL     1     -42.191  57.542 -51.253  1.00  0.00     0.068 C 
HETATM    3  C   UNL     1     -41.076  58.598 -51.145  1.00  0.00     0.013 C 
HETATM    4  C   UNL     1     -41.554  59.880 -50.478  1.00  0.00     0.001 C 
HETATM    5  C   UNL     1     -42.776  60.445 -51.185  1.00  0.00     0.001 C 
HETATM    6  C   UNL     1     -43.919  59.436 -51.199  1.00  0.00     0.015 C 
ENDROOT
BRANCH   1   7
HETATM    7  C   UNL     1     -43.737  58.098 -53.319  1.00  0.00     0.222 C 
HETATM    8  N   UNL     1     -43.234  59.177 -53.998  1.00  0.00    -0.358 N 
HETATM    9  H   UNL     1     -42.341  59.509 -53.649  1.00  0.00     0.162 HD
HETATM   10  O   UNL     1     -44.418  57.227 -53.861  1.00  0.00    -0.273 OA
BRANCH   8  11
HETATM   11  C   UNL     1     -43.368  59.308 -55.442  1.00  0.00     0.159 C 
BRANCH  11  12
HETATM   12  C   UNL     1     -42.097  59.085 -56.293  1.00  0.00     0.169 C 
BRANCH  12  13
HETATM   13  C   UNL     1     -42.300  58.200 -57.507  1.00  0.00    -0.025 A 
HETATM   14  C   UNL     1     -42.940  56.950 -57.403  1.00  0.00     0.046 A 
HETATM   15  C   UNL     1     -43.141  56.157 -58.535  1.00  0.00     0.068 A 
HETATM   16  C   UNL     1     -42.684  56.607 -59.776  1.00  0.00     0.037 A 
HETATM   17  C   UNL     1     -42.043  57.838 -59.894  1.00  0.00     0.003 A 
HETATM   18  C   UNL     1     -41.853  58.631 -58.764  1.00  0.00     0.010 A 
BRANCH  15  19
HETATM   19  O   UNL     1     -43.759  54.938 -58.565  1.00  0.00    -0.356 OA
HETATM   20  C   UNL     1     -44.468  54.607 -59.753  1.00  0.00     0.210 C 
ENDBRANCH  15  19
ENDBRANCH  12  13
BRANCH  12  21
HETATM   21  O   UNL     1     -41.615  60.363 -56.737  1.00  0.00    -0.389 OA
HETATM   22  H   UNL     1     -42.046  60.531 -57.595  1.00  0.00     0.210 HD
ENDBRANCH  12  21
ENDBRANCH  11  12
ENDBRANCH   8  11
ENDBRANCH   1   7
BRANCH   2  23
HETATM   23  C   UNL     1     -41.720  56.340 -52.015  1.00  0.00     0.110 A 
HETATM   24  N   UNL     1     -41.620  55.112 -51.548  1.00  0.00    -0.233 NA
HETATM   25  C   UNL     1     -41.096  54.366 -52.576  1.00  0.00     0.087 A 
HETATM   26  C   UNL     1     -40.876  55.157 -53.698  1.00  0.00     0.062 A 
HETATM   27  C   UNL     1     -40.777  53.002 -52.619  1.00  0.00     0.057 A 
HETATM   28  N   UNL     1     -41.283  56.409 -53.315  1.00  0.00    -0.342 N 
HETATM   29  C   UNL     1     -40.343  54.667 -54.892  1.00  0.00     0.034 A 
HETATM   30  H   UNL     1     -41.247  57.242 -53.886  1.00  0.00     0.167 HD
HETATM   31  C   UNL     1     -40.028  53.304 -54.921  1.00  0.00     0.026 A 
HETATM   32  C   UNL     1     -40.242  52.490 -53.805  1.00  0.00     0.036 A 
HETATM   33 CL   UNL     1     -39.836  50.817 -53.891  1.00  0.00    -0.084 Cl
ENDBRANCH   2  23
TORSDOF 7
ENDMDL
MODEL 7
REMARK VINA RESULT:      -8.0      3.384      5.711
REMARK  7 active torsions:
REMARK  status: ('A' for Active; 'I' for Inactive)
REMARK    1  A    between atoms: O_2  and  C_3 
REMARK    2  A    between atoms: C_5  and  C_6 
REMARK    3  A    between atoms: C_6  and  O_7 
REMARK    4  A    between atoms: C_6  and  C_8 
REMARK    5  A    between atoms: C_8  and  N_9 
REMARK       I    between atoms: N_9  and  C_10 
REMARK    6  A    between atoms: C_10  and  C_11 
REMARK    7  A    between atoms: C_12  and  C_13 
ROOT
HETATM    1  C   UNL     1     -40.684  54.593 -54.418  1.00  0.00     0.089 C 
HETATM    2  C   UNL     1     -40.787  54.767 -52.888  1.00  0.00     0.068 C 
HETATM    3  C   UNL     1     -41.177  53.491 -52.120  1.00  0.00     0.013 C 
HETATM    4  C   UNL     1     -40.364  52.280 -52.555  1.00  0.00     0.001 C 
HETATM    5  C   UNL     1     -40.460  52.065 -54.059  1.00  0.00     0.001 C 
HETATM    6  C   UNL     1     -39.972  53.292 -54.821  1.00  0.00     0.015 C 
ENDROOT
BRANCH   1   7
HETATM    7  C   UNL     1     -41.960  54.769 -55.252  1.00  0.00     0.222 C 
HETATM    8  N   UNL     1     -41.861  55.527 -56.390  1.00  0.00    -0.358 N 
HETATM    9  H   UNL     1     -40.993  55.400 -56.900  1.00  0.00     0.162 HD
HETATM   10  O   UNL     1     -43.032  54.329 -54.836  1.00  0.00    -0.273 OA
BRANCH   8  11
HETATM   11  C   UNL     1     -43.005  55.763 -57.260  1.00  0.00     0.159 C 
BRANCH  11  12
HETATM   12  C   UNL     1     -43.199  57.198 -57.799  1.00  0.00     0.169 C 
BRANCH  12  13
HETATM   13  C   UNL     1     -43.738  58.185 -56.782  1.00  0.00    -0.025 A 
HETATM   14  C   UNL     1     -43.417  59.554 -56.851  1.00  0.00     0.046 A 
HETATM   15  C   UNL     1     -43.941  60.455 -55.920  1.00  0.00     0.068 A 
HETATM   16  C   UNL     1     -44.777  59.983 -54.906  1.00  0.00     0.037 A 
HETATM   17  C   UNL     1     -45.097  58.630 -54.821  1.00  0.00     0.003 A 
HETATM   18  C   UNL     1     -44.581  57.736 -55.756  1.00  0.00     0.010 A 
BRANCH  15  19
HETATM   19  O   UNL     1     -43.717  61.804 -55.891  1.00  0.00    -0.356 OA
HETATM   20  C   UNL     1     -43.095  62.376 -57.035  1.00  0.00     0.210 C 
ENDBRANCH  15  19
ENDBRANCH  12  13
BRANCH  12  21
HETATM   21  O   UNL     1     -41.933  57.682 -58.277  1.00  0.00    -0.389 OA
HETATM   22  H   UNL     1     -42.131  58.233 -59.055  1.00  0.00     0.210 HD
ENDBRANCH  12  21
ENDBRANCH  11  12
ENDBRANCH   8  11
ENDBRANCH   1   7
BRANCH   2  23
HETATM   23  C   UNL     1     -41.682  55.912 -52.519  1.00  0.00     0.110 A 
HETATM   24  N   UNL     1     -41.365  57.190 -52.552  1.00  0.00    -0.233 NA
HETATM   25  C   UNL     1     -42.468  57.858 -52.078  1.00  0.00     0.087 A 
HETATM   26  C   UNL     1     -43.483  56.966 -51.751  1.00  0.00     0.062 A 
HETATM   27  C   UNL     1     -42.671  59.232 -51.894  1.00  0.00     0.057 A 
HETATM   28  N   UNL     1     -42.958  55.733 -52.042  1.00  0.00    -0.342 N 
HETATM   29  C   UNL     1     -44.720  57.362 -51.238  1.00  0.00     0.034 A 
HETATM   30  H   UNL     1     -43.423  54.846 -51.909  1.00  0.00     0.167 HD
HETATM   31  C   UNL     1     -44.909  58.737 -51.059  1.00  0.00     0.026 A 
HETATM   32  C   UNL     1     -43.902  59.651 -51.381  1.00  0.00     0.036 A 
HETATM   33 CL   UNL     1     -44.185  61.334 -51.140  1.00  0.00    -0.084 Cl
ENDBRANCH   2  23
TORSDOF 7
ENDMDL
MODEL 8
REMARK VINA RESULT:      -8.0      1.916      2.582
REMARK  7 active torsions:
REMARK  status: ('A' for Active; 'I' for Inactive)
REMARK    1  A    between atoms: O_2  and  C_3 
REMARK    2  A    between atoms: C_5  and  C_6 
REMARK    3  A    between atoms: C_6  and  O_7 
REMARK    4  A    between atoms: C_6  and  C_8 
REMARK    5  A    between atoms: C_8  and  N_9 
REMARK       I    between atoms: N_9  and  C_10 
REMARK    6  A    between atoms: C_10  and  C_11 
REMARK    7  A    between atoms: C_12  and  C_13 
ROOT
HETATM    1  C   UNL     1     -43.002  56.831 -51.551  1.00  0.00     0.089 C 
HETATM    2  C   UNL     1     -41.499  56.642 -51.257  1.00  0.00     0.068 C 
HETATM    3  C   UNL     1     -40.589  57.751 -51.814  1.00  0.00     0.013 C 
HETATM    4  C   UNL     1     -41.114  59.145 -51.499  1.00  0.00     0.001 C 
HETATM    5  C   UNL     1     -42.546  59.316 -51.983  1.00  0.00     0.001 C 
HETATM    6  C   UNL     1     -43.468  58.281 -51.348  1.00  0.00     0.015 C 
ENDROOT
BRANCH   1   7
HETATM    7  C   UNL     1     -43.554  56.287 -52.875  1.00  0.00     0.222 C 
HETATM    8  N   UNL     1     -43.384  57.069 -53.989  1.00  0.00    -0.358 N 
HETATM    9  H   UNL     1     -42.492  57.551 -54.026  1.00  0.00     0.162 HD
HETATM   10  O   UNL     1     -44.208  55.244 -52.886  1.00  0.00    -0.273 OA
BRANCH   8  11
HETATM   11  C   UNL     1     -43.866  56.656 -55.299  1.00  0.00     0.159 C 
BRANCH  11  12
HETATM   12  C   UNL     1     -42.853  55.966 -56.240  1.00  0.00     0.169 C 
BRANCH  12  13
HETATM   13  C   UNL     1     -42.857  56.490 -57.663  1.00  0.00    -0.025 A 
HETATM   14  C   UNL     1     -43.463  55.767 -58.707  1.00  0.00     0.046 A 
HETATM   15  C   UNL     1     -43.480  56.275 -60.008  1.00  0.00     0.068 A 
HETATM   16  C   UNL     1     -42.872  57.505 -60.271  1.00  0.00     0.037 A 
HETATM   17  C   UNL     1     -42.261  58.228 -59.249  1.00  0.00     0.003 A 
HETATM   18  C   UNL     1     -42.255  57.723 -57.951  1.00  0.00     0.010 A 
BRANCH  15  19
HETATM   19  O   UNL     1     -44.048  55.677 -61.099  1.00  0.00    -0.356 OA
HETATM   20  C   UNL     1     -45.438  55.385 -61.019  1.00  0.00     0.210 C 
ENDBRANCH  15  19
ENDBRANCH  12  13
BRANCH  12  21
HETATM   21  O   UNL     1     -41.534  56.137 -55.696  1.00  0.00    -0.389 OA
HETATM   22  H   UNL     1     -41.404  57.097 -55.602  1.00  0.00     0.210 HD
ENDBRANCH  12  21
ENDBRANCH  11  12
ENDBRANCH   8  11
ENDBRANCH   1   7
BRANCH   2  23
HETATM   23  C   UNL     1     -41.017  55.287 -51.683  1.00  0.00     0.110 A 
HETATM   24  N   UNL     1     -40.941  54.841 -52.921  1.00  0.00    -0.233 NA
HETATM   25  C   UNL     1     -40.504  53.542 -52.821  1.00  0.00     0.087 A 
HETATM   26  C   UNL     1     -40.306  53.189 -51.491  1.00  0.00     0.062 A 
HETATM   27  C   UNL     1     -40.259  52.601 -53.829  1.00  0.00     0.057 A 
HETATM   28  N   UNL     1     -40.638  54.318 -50.787  1.00  0.00    -0.342 N 
HETATM   29  C   UNL     1     -39.869  51.926 -51.087  1.00  0.00     0.034 A 
HETATM   30  H   UNL     1     -40.625  54.412 -49.781  1.00  0.00     0.167 HD
HETATM   31  C   UNL     1     -39.628  50.995 -52.105  1.00  0.00     0.026 A 
HETATM   32  C   UNL     1     -39.821  51.329 -53.448  1.00  0.00     0.036 A 
HETATM   33 CL   UNL     1     -39.512  50.147 -54.663  1.00  0.00    -0.084 Cl
ENDBRANCH   2  23
TORSDOF 7
ENDMDL
MODEL 9
REMARK VINA RESULT:      -8.0      3.388      7.546
REMARK  7 active torsions:
REMARK  status: ('A' for Active; 'I' for Inactive)
REMARK    1  A    between atoms: O_2  and  C_3 
REMARK    2  A    between atoms: C_5  and  C_6 
REMARK    3  A    between atoms: C_6  and  O_7 
REMARK    4  A    between atoms: C_6  and  C_8 
REMARK    5  A    between atoms: C_8  and  N_9 
REMARK       I    between atoms: N_9  and  C_10 
REMARK    6  A    between atoms: C_10  and  C_11 
REMARK    7  A    between atoms: C_12  and  C_13 
ROOT
HETATM    1  C   UNL     1     -42.221  60.364 -52.915  1.00  0.00     0.089 C 
HETATM    2  C   UNL     1     -43.497  60.341 -53.782  1.00  0.00     0.068 C 
HETATM    3  C   UNL     1     -44.739  59.756 -53.086  1.00  0.00     0.013 C 
HETATM    4  C   UNL     1     -44.946  60.328 -51.691  1.00  0.00     0.001 C 
HETATM    5  C   UNL     1     -43.701  60.149 -50.833  1.00  0.00     0.001 C 
HETATM    6  C   UNL     1     -42.492  60.821 -51.473  1.00  0.00     0.015 C 
ENDROOT
BRANCH   1   7
HETATM    7  C   UNL     1     -41.332  59.113 -52.907  1.00  0.00     0.222 C 
HETATM    8  N   UNL     1     -41.922  57.931 -52.541  1.00  0.00    -0.358 N 
HETATM    9  H   UNL     1     -42.871  57.817 -52.882  1.00  0.00     0.162 HD
HETATM   10  O   UNL     1     -40.123  59.218 -53.118  1.00  0.00    -0.273 OA
BRANCH   8  11
HETATM   11  C   UNL     1     -41.177  56.681 -52.496  1.00  0.00     0.159 C 
BRANCH  11  12
HETATM   12  C   UNL     1     -41.152  55.826 -53.783  1.00  0.00     0.169 C 
BRANCH  12  13
HETATM   13  C   UNL     1     -40.724  54.386 -53.574  1.00  0.00    -0.025 A 
HETATM   14  C   UNL     1     -40.579  53.847 -52.282  1.00  0.00     0.046 A 
HETATM   15  C   UNL     1     -40.208  52.511 -52.106  1.00  0.00     0.068 A 
HETATM   16  C   UNL     1     -39.965  51.715 -53.228  1.00  0.00     0.037 A 
HETATM   17  C   UNL     1     -40.097  52.237 -54.513  1.00  0.00     0.003 A 
HETATM   18  C   UNL     1     -40.477  53.567 -54.684  1.00  0.00     0.010 A 
BRANCH  15  19
HETATM   19  O   UNL     1     -40.049  51.870 -50.909  1.00  0.00    -0.356 OA
HETATM   20  C   UNL     1     -39.616  50.516 -50.959  1.00  0.00     0.210 C 
ENDBRANCH  15  19
ENDBRANCH  12  13
BRANCH  12  21
HETATM   21  O   UNL     1     -42.467  55.831 -54.361  1.00  0.00    -0.389 OA
HETATM   22  H   UNL     1     -42.650  54.911 -54.622  1.00  0.00     0.210 HD
ENDBRANCH  12  21
ENDBRANCH  11  12
ENDBRANCH   8  11
ENDBRANCH   1   7
BRANCH   2  23
HETATM   23  C   UNL     1     -43.258  59.675 -55.104  1.00  0.00     0.110 A 
HETATM   24  N   UNL     1     -43.633  58.457 -55.441  1.00  0.00    -0.233 NA
HETATM   25  C   UNL     1     -43.150  58.259 -56.712  1.00  0.00     0.087 A 
HETATM   26  C   UNL     1     -42.467  59.384 -57.162  1.00  0.00     0.062 A 
HETATM   27  C   UNL     1     -43.254  57.137 -57.544  1.00  0.00     0.057 A 
HETATM   28  N   UNL     1     -42.552  60.271 -56.120  1.00  0.00    -0.342 N 
HETATM   29  C   UNL     1     -41.863  59.466 -58.418  1.00  0.00     0.034 A 
HETATM   30  H   UNL     1     -42.146  61.196 -56.097  1.00  0.00     0.167 HD
HETATM   31  C   UNL     1     -41.974  58.338 -59.238  1.00  0.00     0.026 A 
HETATM   32  C   UNL     1     -42.656  57.197 -58.806  1.00  0.00     0.036 A 
HETATM   33 CL   UNL     1     -42.763  55.832 -59.854  1.00  0.00    -0.084 Cl
ENDBRANCH   2  23
TORSDOF 7
ENDMDL
MODEL 10
REMARK VINA RESULT:      -7.9      2.851      5.057
REMARK  7 active torsions:
REMARK  status: ('A' for Active; 'I' for Inactive)
REMARK    1  A    between atoms: O_2  and  C_3 
REMARK    2  A    between atoms: C_5  and  C_6 
REMARK    3  A    between atoms: C_6  and  O_7 
REMARK    4  A    between atoms: C_6  and  C_8 
REMARK    5  A    between atoms: C_8  and  N_9 
REMARK       I    between atoms: N_9  and  C_10 
REMARK    6  A    between atoms: C_10  and  C_11 
REMARK    7  A    between atoms: C_12  and  C_13 
ROOT
HETATM    1  C   UNL     1     -40.832  55.058 -54.879  1.00  0.00     0.089 C 
HETATM    2  C   UNL     1     -41.003  55.347 -53.372  1.00  0.00     0.068 C 
HETATM    3  C   UNL     1     -41.419  54.130 -52.527  1.00  0.00     0.013 C 
HETATM    4  C   UNL     1     -40.580  52.897 -52.833  1.00  0.00     0.001 C 
HETATM    5  C   UNL     1     -40.609  52.567 -54.318  1.00  0.00     0.001 C 
HETATM    6  C   UNL     1     -40.096  53.737 -55.150  1.00  0.00     0.015 C 
ENDROOT
BRANCH   1   7
HETATM    7  C   UNL     1     -42.071  55.159 -55.778  1.00  0.00     0.222 C 
HETATM    8  N   UNL     1     -42.085  56.164 -56.711  1.00  0.00    -0.358 N 
HETATM    9  H   UNL     1     -41.185  56.337 -57.147  1.00  0.00     0.162 HD
HETATM   10  O   UNL     1     -43.039  54.425 -55.575  1.00  0.00    -0.273 OA
BRANCH   8  11
HETATM   11  C   UNL     1     -43.207  56.356 -57.619  1.00  0.00     0.159 C 
BRANCH  11  12
HETATM   12  C   UNL     1     -44.121  57.575 -57.365  1.00  0.00     0.169 C 
BRANCH  12  13
HETATM   13  C   UNL     1     -45.104  57.868 -58.481  1.00  0.00    -0.025 A 
HETATM   14  C   UNL     1     -45.780  56.832 -59.151  1.00  0.00     0.046 A 
HETATM   15  C   UNL     1     -46.701  57.119 -60.162  1.00  0.00     0.068 A 
HETATM   16  C   UNL     1     -46.936  58.450 -60.516  1.00  0.00     0.037 A 
HETATM   17  C   UNL     1     -46.269  59.487 -59.867  1.00  0.00     0.003 A 
HETATM   18  C   UNL     1     -45.358  59.197 -58.853  1.00  0.00     0.010 A 
BRANCH  15  19
HETATM   19  O   UNL     1     -47.429  56.205 -60.873  1.00  0.00    -0.356 OA
HETATM   20  C   UNL     1     -48.161  56.696 -61.988  1.00  0.00     0.210 C 
ENDBRANCH  15  19
ENDBRANCH  12  13
BRANCH  12  21
HETATM   21  O   UNL     1     -44.861  57.348 -56.155  1.00  0.00    -0.389 OA
HETATM   22  H   UNL     1     -44.203  57.319 -55.437  1.00  0.00     0.210 HD
ENDBRANCH  12  21
ENDBRANCH  11  12
ENDBRANCH   8  11
ENDBRANCH   1   7
BRANCH   2  23
HETATM   23  C   UNL     1     -41.921  56.508 -53.131  1.00  0.00     0.110 A 
HETATM   24  N   UNL     1     -43.141  56.446 -52.638  1.00  0.00    -0.233 NA
HETATM   25  C   UNL     1     -43.612  57.737 -52.652  1.00  0.00     0.087 A 
HETATM   26  C   UNL     1     -42.654  58.607 -53.161  1.00  0.00     0.062 A 
HETATM   27  C   UNL     1     -44.855  58.240 -52.247  1.00  0.00     0.057 A 
HETATM   28  N   UNL     1     -41.586  57.799 -53.457  1.00  0.00    -0.342 N 
HETATM   29  C   UNL     1     -42.858  59.981 -53.299  1.00  0.00     0.034 A 
HETATM   30  H   UNL     1     -40.712  58.101 -53.864  1.00  0.00     0.167 HD
HETATM   31  C   UNL     1     -44.105  60.470 -52.891  1.00  0.00     0.026 A 
HETATM   32  C   UNL     1     -45.082  59.614 -52.376  1.00  0.00     0.036 A 
HETATM   33 CL   UNL     1     -46.602  60.265 -51.889  1.00  0.00    -0.084 Cl
ENDBRANCH   2  23
TORSDOF 7
ENDMDL
