MODEL 1
REMARK VINA RESULT:      -8.4      0.000      0.000
REMARK  3 active torsions:
REMARK  status: ('A' for Active; 'I' for Inactive)
REMARK    1  A    between atoms: C_9  and  C_10 
REMARK    2  A    between atoms: C_10  and  N_11 
REMARK    3  A    between atoms: C_15  and  N_16 
REMARK       I    between atoms: N_16  and  C_17 
REMARK       I    between atoms: C_17  and  N_18 
ROOT
HETATM    1  N   UNL     1     -42.160  56.663 -56.515  1.00  0.00    -0.067 N 
HETATM    2  H   UNL     1     -41.195  56.502 -56.824  1.00  0.00     0.280 HD
HETATM    3  C   UNL     1     -43.020  55.503 -56.963  1.00  0.00     0.237 C 
HETATM    4  C   UNL     1     -42.966  55.373 -58.479  1.00  0.00     0.053 C 
HETATM    5  C   UNL     1     -43.438  56.654 -59.173  1.00  0.00     0.089 C 
HETATM    6  C   UNL     1     -42.625  57.846 -58.657  1.00  0.00     0.053 C 
HETATM    7  C   UNL     1     -42.623  57.964 -57.140  1.00  0.00     0.237 C 
ENDROOT
BRANCH   1   8
HETATM    8  C   UNL     1     -42.129  56.798 -55.004  1.00  0.00     0.271 C 
BRANCH   8   9
HETATM    9  C   UNL     1     -41.541  55.637 -54.255  1.00  0.00    -0.029 C 
HETATM   10  C   UNL     1     -41.112  55.958 -52.836  1.00  0.00     0.211 C 
HETATM   11  O   UNL     1     -40.970  54.835 -51.959  1.00  0.00    -0.346 OA
HETATM   12  C   UNL     1     -40.549  53.672 -52.537  1.00  0.00     0.079 A 
HETATM   13  C   UNL     1     -40.703  53.409 -53.901  1.00  0.00    -0.001 A 
HETATM   14  C   UNL     1     -39.998  52.714 -51.685  1.00  0.00     0.039 A 
HETATM   15  C   UNL     1     -40.282  52.178 -54.415  1.00  0.00     0.038 A 
HETATM   16  C   UNL     1     -41.333  54.408 -54.760  1.00  0.00     0.021 C 
HETATM   17  C   UNL     1     -39.713  51.229 -53.562  1.00  0.00     0.035 A 
HETATM   18  C   UNL     1     -39.572  51.490 -52.200  1.00  0.00     0.026 A 
HETATM   19 CL   UNL     1     -39.194  49.718 -54.201  1.00  0.00    -0.084 Cl
ENDBRANCH   8   9
ENDBRANCH   1   8
BRANCH   5  20
HETATM   20  N   UNL     1     -44.898  56.742 -59.109  1.00  0.00    -0.339 N 
HETATM   21  C   UNL     1     -45.804  56.110 -59.904  1.00  0.00     0.314 C 
HETATM   22  N   UNL     1     -47.083  56.325 -59.516  1.00  0.00    -0.352 N 
HETATM   23  O   UNL     1     -45.547  55.484 -60.920  1.00  0.00    -0.248 OA
HETATM   24  H   UNL     1     -47.303  56.373 -58.531  1.00  0.00     0.160 HD
HETATM   25  H   UNL     1     -47.769  55.813 -60.060  1.00  0.00     0.160 HD
HETATM   26  H   UNL     1     -45.288  57.109 -58.251  1.00  0.00     0.164 HD
ENDBRANCH   5  20
TORSDOF 3
ENDMDL
MODEL 2
REMARK VINA RESULT:      -8.2      4.085      5.943
REMARK  3 active torsions:
REMARK  status: ('A' for Active; 'I' for Inactive)
REMARK    1  A    between atoms: C_9  and  C_10 
REMARK    2  A    between atoms: C_10  and  N_11 
REMARK    3  A    between atoms: C_15  and  N_16 
REMARK       I    between atoms: N_16  and  C_17 
REMARK       I    between atoms: C_17  and  N_18 
ROOT
HETATM    1  N   UNL     1     -42.759  56.702 -52.868  1.00  0.00    -0.067 N 
HETATM    2  H   UNL     1     -43.365  55.984 -53.279  1.00  0.00     0.280 HD
HETATM    3  C   UNL     1     -42.894  56.659 -51.363  1.00  0.00     0.237 C 
HETATM    4  C   UNL     1     -44.343  56.901 -50.965  1.00  0.00     0.053 C 
HETATM    5  C   UNL     1     -44.854  58.249 -51.482  1.00  0.00     0.089 C 
HETATM    6  C   UNL     1     -44.639  58.331 -52.997  1.00  0.00     0.053 C 
HETATM    7  C   UNL     1     -43.207  58.041 -53.422  1.00  0.00     0.237 C 
ENDROOT
BRANCH   1   8
HETATM    8  C   UNL     1     -41.342  56.404 -53.322  1.00  0.00     0.271 C 
BRANCH   8   9
HETATM    9  C   UNL     1     -40.982  54.951 -53.429  1.00  0.00    -0.029 C 
HETATM   10  C   UNL     1     -41.287  54.326 -54.777  1.00  0.00     0.211 C 
HETATM   11  O   UNL     1     -40.582  53.118 -55.078  1.00  0.00    -0.346 OA
HETATM   12  C   UNL     1     -40.299  52.308 -54.015  1.00  0.00     0.079 A 
HETATM   13  C   UNL     1     -40.234  52.783 -52.702  1.00  0.00    -0.001 A 
HETATM   14  C   UNL     1     -40.017  50.972 -54.305  1.00  0.00     0.039 A 
HETATM   15  C   UNL     1     -39.900  51.900 -51.669  1.00  0.00     0.038 A 
HETATM   16  C   UNL     1     -40.481  54.197 -52.435  1.00  0.00     0.021 C 
HETATM   17  C   UNL     1     -39.636  50.559 -51.961  1.00  0.00     0.035 A 
HETATM   18  C   UNL     1     -39.691  50.092 -53.273  1.00  0.00     0.026 A 
HETATM   19 CL   UNL     1     -39.229  49.479 -50.685  1.00  0.00    -0.084 Cl
ENDBRANCH   8   9
ENDBRANCH   1   8
BRANCH   5  20
HETATM   20  N   UNL     1     -44.316  59.332 -50.655  1.00  0.00    -0.339 N 
HETATM   21  C   UNL     1     -45.005  60.169 -49.832  1.00  0.00     0.314 C 
HETATM   22  N   UNL     1     -44.196  60.996 -49.129  1.00  0.00    -0.352 N 
HETATM   23  O   UNL     1     -46.220  60.265 -49.768  1.00  0.00    -0.248 OA
HETATM   24  H   UNL     1     -43.310  60.652 -48.785  1.00  0.00     0.160 HD
HETATM   25  H   UNL     1     -44.688  61.585 -48.466  1.00  0.00     0.160 HD
HETATM   26  H   UNL     1     -43.319  59.312 -50.483  1.00  0.00     0.164 HD
ENDBRANCH   5  20
TORSDOF 3
ENDMDL
MODEL 3
REMARK VINA RESULT:      -7.5     15.255     17.887
REMARK  3 active torsions:
REMARK  status: ('A' for Active; 'I' for Inactive)
REMARK    1  A    between atoms: C_9  and  C_10 
REMARK    2  A    between atoms: C_10  and  N_11 
REMARK    3  A    between atoms: C_15  and  N_16 
REMARK       I    between atoms: N_16  and  C_17 
REMARK       I    between atoms: C_17  and  N_18 
ROOT
HETATM    1  N   UNL     1     -35.452  40.707 -53.182  1.00  0.00    -0.067 N 
HETATM    2  H   UNL     1     -35.202  41.481 -53.806  1.00  0.00     0.280 HD
HETATM    3  C   UNL     1     -35.662  41.248 -51.786  1.00  0.00     0.237 C 
HETATM    4  C   UNL     1     -34.392  41.930 -51.298  1.00  0.00     0.053 C 
HETATM    5  C   UNL     1     -33.198  40.971 -51.297  1.00  0.00     0.089 C 
HETATM    6  C   UNL     1     -33.035  40.354 -52.690  1.00  0.00     0.053 C 
HETATM    7  C   UNL     1     -34.308  39.711 -53.220  1.00  0.00     0.237 C 
ENDROOT
BRANCH   1   8
HETATM    8  C   UNL     1     -36.710  40.069 -53.741  1.00  0.00     0.271 C 
BRANCH   8   9
HETATM    9  C   UNL     1     -36.836  40.072 -55.237  1.00  0.00    -0.029 C 
HETATM   10  C   UNL     1     -36.571  38.730 -55.892  1.00  0.00     0.211 C 
HETATM   11  O   UNL     1     -37.095  38.567 -57.214  1.00  0.00    -0.346 OA
HETATM   12  C   UNL     1     -37.132  39.692 -57.987  1.00  0.00     0.079 A 
HETATM   13  C   UNL     1     -37.139  40.980 -57.444  1.00  0.00    -0.001 A 
HETATM   14  C   UNL     1     -37.219  39.500 -59.367  1.00  0.00     0.039 A 
HETATM   15  C   UNL     1     -37.218  42.085 -58.300  1.00  0.00     0.038 A 
HETATM   16  C   UNL     1     -37.102  41.151 -55.995  1.00  0.00     0.021 C 
HETATM   17  C   UNL     1     -37.285  41.889 -59.681  1.00  0.00     0.035 A 
HETATM   18  C   UNL     1     -37.289  40.603 -60.218  1.00  0.00     0.026 A 
HETATM   19 CL   UNL     1     -37.378  43.252 -60.727  1.00  0.00    -0.084 Cl
ENDBRANCH   8   9
ENDBRANCH   1   8
BRANCH   5  20
HETATM   20  N   UNL     1     -33.296  40.061 -50.153  1.00  0.00    -0.339 N 
HETATM   21  C   UNL     1     -32.290  39.638 -49.340  1.00  0.00     0.314 C 
HETATM   22  N   UNL     1     -32.732  38.879 -48.310  1.00  0.00    -0.352 N 
HETATM   23  O   UNL     1     -31.098  39.819 -49.529  1.00  0.00    -0.248 OA
HETATM   24  H   UNL     1     -33.608  39.109 -47.862  1.00  0.00     0.160 HD
HETATM   25  H   UNL     1     -32.004  38.605 -47.660  1.00  0.00     0.160 HD
HETATM   26  H   UNL     1     -34.223  39.917 -49.773  1.00  0.00     0.164 HD
ENDBRANCH   5  20
TORSDOF 3
ENDMDL
MODEL 4
REMARK VINA RESULT:      -7.5      4.060      4.986
REMARK  3 active torsions:
REMARK  status: ('A' for Active; 'I' for Inactive)
REMARK    1  A    between atoms: C_9  and  C_10 
REMARK    2  A    between atoms: C_10  and  N_11 
REMARK    3  A    between atoms: C_15  and  N_16 
REMARK       I    between atoms: N_16  and  C_17 
REMARK       I    between atoms: C_17  and  N_18 
ROOT
HETATM    1  N   UNL     1     -43.035  57.744 -53.118  1.00  0.00    -0.067 N 
HETATM    2  H   UNL     1     -42.409  57.613 -52.315  1.00  0.00     0.280 HD
HETATM    3  C   UNL     1     -42.768  59.099 -53.734  1.00  0.00     0.237 C 
HETATM    4  C   UNL     1     -43.000  60.193 -52.700  1.00  0.00     0.053 C 
HETATM    5  C   UNL     1     -44.428  60.157 -52.150  1.00  0.00     0.089 C 
HETATM    6  C   UNL     1     -44.731  58.759 -51.602  1.00  0.00     0.053 C 
HETATM    7  C   UNL     1     -44.457  57.645 -52.602  1.00  0.00     0.237 C 
ENDROOT
BRANCH   1   8
HETATM    8  C   UNL     1     -42.758  56.613 -54.090  1.00  0.00     0.271 C 
BRANCH   8   9
HETATM    9  C   UNL     1     -41.972  55.457 -53.542  1.00  0.00    -0.029 C 
HETATM   10  C   UNL     1     -41.311  55.726 -52.204  1.00  0.00     0.211 C 
HETATM   11  O   UNL     1     -40.941  54.568 -51.448  1.00  0.00    -0.346 OA
HETATM   12  C   UNL     1     -40.562  53.474 -52.172  1.00  0.00     0.079 A 
HETATM   13  C   UNL     1     -40.947  53.280 -53.502  1.00  0.00    -0.001 A 
HETATM   14  C   UNL     1     -39.805  52.512 -51.503  1.00  0.00     0.039 A 
HETATM   15  C   UNL     1     -40.551  52.115 -54.168  1.00  0.00     0.038 A 
HETATM   16  C   UNL     1     -41.785  54.278 -54.162  1.00  0.00     0.021 C 
HETATM   17  C   UNL     1     -39.778  51.163 -53.500  1.00  0.00     0.035 A 
HETATM   18  C   UNL     1     -39.405  51.355 -52.170  1.00  0.00     0.026 A 
HETATM   19 CL   UNL     1     -39.292  49.734 -54.326  1.00  0.00    -0.084 Cl
ENDBRANCH   8   9
ENDBRANCH   1   8
BRANCH   5  20
HETATM   20  N   UNL     1     -45.353  60.722 -53.135  1.00  0.00    -0.339 N 
HETATM   21  C   UNL     1     -46.561  61.302 -52.903  1.00  0.00     0.314 C 
HETATM   22  N   UNL     1     -47.120  61.815 -54.024  1.00  0.00    -0.352 N 
HETATM   23  O   UNL     1     -47.159  61.303 -51.839  1.00  0.00    -0.248 OA
HETATM   24  H   UNL     1     -46.533  62.258 -54.716  1.00  0.00     0.160 HD
HETATM   25  H   UNL     1     -47.993  62.304 -53.860  1.00  0.00     0.160 HD
HETATM   26  H   UNL     1     -44.965  60.924 -54.048  1.00  0.00     0.164 HD
ENDBRANCH   5  20
TORSDOF 3
ENDMDL
MODEL 5
REMARK VINA RESULT:      -7.5      1.404      1.793
REMARK  3 active torsions:
REMARK  status: ('A' for Active; 'I' for Inactive)
REMARK    1  A    between atoms: C_9  and  C_10 
REMARK    2  A    between atoms: C_10  and  N_11 
REMARK    3  A    between atoms: C_15  and  N_16 
REMARK       I    between atoms: N_16  and  C_17 
REMARK       I    between atoms: C_17  and  N_18 
ROOT
HETATM    1  N   UNL     1     -42.374  57.167 -55.813  1.00  0.00    -0.067 N 
HETATM    2  H   UNL     1     -41.393  56.891 -55.926  1.00  0.00     0.280 HD
HETATM    3  C   UNL     1     -43.256  55.968 -56.078  1.00  0.00     0.237 C 
HETATM    4  C   UNL     1     -43.014  55.448 -57.488  1.00  0.00     0.053 C 
HETATM    5  C   UNL     1     -43.288  56.523 -58.543  1.00  0.00     0.089 C 
HETATM    6  C   UNL     1     -42.459  57.773 -58.228  1.00  0.00     0.053 C 
HETATM    7  C   UNL     1     -42.646  58.281 -56.806  1.00  0.00     0.237 C 
ENDROOT
BRANCH   1   8
HETATM    8  C   UNL     1     -42.531  57.688 -54.396  1.00  0.00     0.271 C 
BRANCH   8   9
HETATM    9  C   UNL     1     -41.991  56.804 -53.310  1.00  0.00    -0.029 C 
HETATM   10  C   UNL     1     -41.730  57.513 -51.995  1.00  0.00     0.211 C 
HETATM   11  O   UNL     1     -41.648  56.672 -50.840  1.00  0.00    -0.346 OA
HETATM   12  C   UNL     1     -41.128  55.425 -51.041  1.00  0.00     0.079 A 
HETATM   13  C   UNL     1     -41.124  54.803 -52.292  1.00  0.00    -0.001 A 
HETATM   14  C   UNL     1     -40.641  54.761 -49.914  1.00  0.00     0.039 A 
HETATM   15  C   UNL     1     -40.608  53.508 -52.413  1.00  0.00     0.038 A 
HETATM   16  C   UNL     1     -41.689  55.500 -53.445  1.00  0.00     0.021 C 
HETATM   17  C   UNL     1     -40.105  52.854 -51.286  1.00  0.00     0.035 A 
HETATM   18  C   UNL     1     -40.121  53.473 -50.037  1.00  0.00     0.026 A 
HETATM   19 CL   UNL     1     -39.470  51.263 -51.443  1.00  0.00    -0.084 Cl
ENDBRANCH   8   9
ENDBRANCH   1   8
BRANCH   5  20
HETATM   20  N   UNL     1     -44.733  56.687 -58.718  1.00  0.00    -0.339 N 
HETATM   21  C   UNL     1     -45.527  56.102 -59.656  1.00  0.00     0.314 C 
HETATM   22  N   UNL     1     -46.840  56.384 -59.481  1.00  0.00    -0.352 N 
HETATM   23  O   UNL     1     -45.139  55.462 -60.620  1.00  0.00    -0.248 OA
HETATM   24  H   UNL     1     -47.216  56.445 -58.545  1.00  0.00     0.160 HD
HETATM   25  H   UNL     1     -47.452  55.907 -60.134  1.00  0.00     0.160 HD
HETATM   26  H   UNL     1     -45.239  57.076 -57.933  1.00  0.00     0.164 HD
ENDBRANCH   5  20
TORSDOF 3
ENDMDL
MODEL 6
REMARK VINA RESULT:      -7.4      2.054      2.570
REMARK  3 active torsions:
REMARK  status: ('A' for Active; 'I' for Inactive)
REMARK    1  A    between atoms: C_9  and  C_10 
REMARK    2  A    between atoms: C_10  and  N_11 
REMARK    3  A    between atoms: C_15  and  N_16 
REMARK       I    between atoms: N_16  and  C_17 
REMARK       I    between atoms: C_17  and  N_18 
ROOT
HETATM    1  N   UNL     1     -42.599  56.995 -55.129  1.00  0.00    -0.067 N 
HETATM    2  H   UNL     1     -42.295  57.549 -54.322  1.00  0.00     0.280 HD
HETATM    3  C   UNL     1     -42.968  57.932 -56.258  1.00  0.00     0.237 C 
HETATM    4  C   UNL     1     -44.082  58.868 -55.811  1.00  0.00     0.053 C 
HETATM    5  C   UNL     1     -45.326  58.094 -55.365  1.00  0.00     0.089 C 
HETATM    6  C   UNL     1     -44.940  57.083 -54.281  1.00  0.00     0.053 C 
HETATM    7  C   UNL     1     -43.792  56.170 -54.687  1.00  0.00     0.237 C 
ENDROOT
BRANCH   1   8
HETATM    8  C   UNL     1     -41.448  56.080 -55.503  1.00  0.00     0.271 C 
BRANCH   8   9
HETATM    9  C   UNL     1     -41.062  55.060 -54.471  1.00  0.00    -0.029 C 
HETATM   10  C   UNL     1     -40.810  55.629 -53.089  1.00  0.00     0.211 C 
HETATM   11  O   UNL     1     -40.878  54.694 -52.007  1.00  0.00    -0.346 OA
HETATM   12  C   UNL     1     -40.474  53.420 -52.289  1.00  0.00     0.079 A 
HETATM   13  C   UNL     1     -40.458  52.905 -53.588  1.00  0.00    -0.001 A 
HETATM   14  C   UNL     1     -40.122  52.621 -51.201  1.00  0.00     0.039 A 
HETATM   15  C   UNL     1     -40.068  51.577 -53.794  1.00  0.00     0.038 A 
HETATM   16  C   UNL     1     -40.884  53.747 -54.702  1.00  0.00     0.021 C 
HETATM   17  C   UNL     1     -39.699  50.785 -52.704  1.00  0.00     0.035 A 
HETATM   18  C   UNL     1     -39.726  51.300 -51.409  1.00  0.00     0.026 A 
HETATM   19 CL   UNL     1     -39.216  49.155 -52.965  1.00  0.00    -0.084 Cl
ENDBRANCH   8   9
ENDBRANCH   1   8
BRANCH   5  20
HETATM   20  N   UNL     1     -46.047  57.597 -56.539  1.00  0.00    -0.339 N 
HETATM   21  C   UNL     1     -46.654  58.329 -57.512  1.00  0.00     0.314 C 
HETATM   22  N   UNL     1     -47.144  57.563 -58.515  1.00  0.00    -0.352 N 
HETATM   23  O   UNL     1     -46.842  59.534 -57.485  1.00  0.00    -0.248 OA
HETATM   24  H   UNL     1     -46.629  56.749 -58.818  1.00  0.00     0.160 HD
HETATM   25  H   UNL     1     -47.547  58.096 -59.279  1.00  0.00     0.160 HD
HETATM   26  H   UNL     1     -45.880  56.631 -56.791  1.00  0.00     0.164 HD
ENDBRANCH   5  20
TORSDOF 3
ENDMDL
MODEL 7
REMARK VINA RESULT:      -7.3      2.077      3.048
REMARK  3 active torsions:
REMARK  status: ('A' for Active; 'I' for Inactive)
REMARK    1  A    between atoms: C_9  and  C_10 
REMARK    2  A    between atoms: C_10  and  N_11 
REMARK    3  A    between atoms: C_15  and  N_16 
REMARK       I    between atoms: N_16  and  C_17 
REMARK       I    between atoms: C_17  and  N_18 
ROOT
HETATM    1  N   UNL     1     -43.147  57.737 -52.773  1.00  0.00    -0.067 N 
HETATM    2  H   UNL     1     -43.026  58.732 -52.556  1.00  0.00     0.280 HD
HETATM    3  C   UNL     1     -42.123  57.332 -53.810  1.00  0.00     0.237 C 
HETATM    4  C   UNL     1     -42.299  58.172 -55.067  1.00  0.00     0.053 C 
HETATM    5  C   UNL     1     -43.705  58.021 -55.656  1.00  0.00     0.089 C 
HETATM    6  C   UNL     1     -44.748  58.348 -54.581  1.00  0.00     0.053 C 
HETATM    7  C   UNL     1     -44.559  57.557 -53.295  1.00  0.00     0.237 C 
ENDROOT
BRANCH   1   8
HETATM    8  C   UNL     1     -42.975  56.971 -51.474  1.00  0.00     0.271 C 
BRANCH   8   9
HETATM    9  C   UNL     1     -42.096  55.756 -51.542  1.00  0.00    -0.029 C 
HETATM   10  C   UNL     1     -41.023  55.698 -50.472  1.00  0.00     0.211 C 
HETATM   11  O   UNL     1     -40.468  54.403 -50.216  1.00  0.00    -0.346 OA
HETATM   12  C   UNL     1     -40.388  53.562 -51.289  1.00  0.00     0.079 A 
HETATM   13  C   UNL     1     -41.196  53.706 -52.421  1.00  0.00    -0.001 A 
HETATM   14  C   UNL     1     -39.489  52.499 -51.185  1.00  0.00     0.039 A 
HETATM   15  C   UNL     1     -41.083  52.781 -53.465  1.00  0.00     0.038 A 
HETATM   16  C   UNL     1     -42.166  54.795 -52.480  1.00  0.00     0.021 C 
HETATM   17  C   UNL     1     -40.169  51.729 -53.365  1.00  0.00     0.035 A 
HETATM   18  C   UNL     1     -39.374  51.583 -52.230  1.00  0.00     0.026 A 
HETATM   19 CL   UNL     1     -40.035  50.598 -54.654  1.00  0.00    -0.084 Cl
ENDBRANCH   8   9
ENDBRANCH   1   8
BRANCH   5  20
HETATM   20  N   UNL     1     -43.817  56.737 -56.349  1.00  0.00    -0.339 N 
HETATM   21  C   UNL     1     -43.290  56.396 -57.557  1.00  0.00     0.314 C 
HETATM   22  N   UNL     1     -43.491  55.094 -57.868  1.00  0.00    -0.352 N 
HETATM   23  O   UNL     1     -42.768  57.164 -58.349  1.00  0.00    -0.248 OA
HETATM   24  H   UNL     1     -43.441  54.394 -57.141  1.00  0.00     0.160 HD
HETATM   25  H   UNL     1     -43.053  54.808 -58.737  1.00  0.00     0.160 HD
HETATM   26  H   UNL     1     -44.102  55.946 -55.785  1.00  0.00     0.164 HD
ENDBRANCH   5  20
TORSDOF 3
ENDMDL
MODEL 8
REMARK VINA RESULT:      -7.3      3.825      4.979
REMARK  3 active torsions:
REMARK  status: ('A' for Active; 'I' for Inactive)
REMARK    1  A    between atoms: C_9  and  C_10 
REMARK    2  A    between atoms: C_10  and  N_11 
REMARK    3  A    between atoms: C_15  and  N_16 
REMARK       I    between atoms: N_16  and  C_17 
REMARK       I    between atoms: C_17  and  N_18 
ROOT
HETATM    1  N   UNL     1     -42.780  57.030 -53.177  1.00  0.00    -0.067 N 
HETATM    2  H   UNL     1     -43.286  56.142 -53.268  1.00  0.00     0.280 HD
HETATM    3  C   UNL     1     -43.135  57.666 -51.852  1.00  0.00     0.237 C 
HETATM    4  C   UNL     1     -44.636  57.905 -51.778  1.00  0.00     0.053 C 
HETATM    5  C   UNL     1     -45.123  58.803 -52.919  1.00  0.00     0.089 C 
HETATM    6  C   UNL     1     -44.689  58.205 -54.262  1.00  0.00     0.053 C 
HETATM    7  C   UNL     1     -43.199  57.909 -54.339  1.00  0.00     0.237 C 
ENDROOT
BRANCH   1   8
HETATM    8  C   UNL     1     -41.299  56.712 -53.277  1.00  0.00     0.271 C 
BRANCH   8   9
HETATM    9  C   UNL     1     -40.950  55.259 -53.414  1.00  0.00    -0.029 C 
HETATM   10  C   UNL     1     -41.180  54.685 -54.799  1.00  0.00     0.211 C 
HETATM   11  O   UNL     1     -40.472  53.478 -55.100  1.00  0.00    -0.346 OA
HETATM   12  C   UNL     1     -40.263  52.628 -54.051  1.00  0.00     0.079 A 
HETATM   13  C   UNL     1     -40.273  53.056 -52.721  1.00  0.00    -0.001 A 
HETATM   14  C   UNL     1     -39.980  51.299 -54.370  1.00  0.00     0.039 A 
HETATM   15  C   UNL     1     -40.013  52.133 -51.702  1.00  0.00     0.038 A 
HETATM   16  C   UNL     1     -40.519  54.463 -52.419  1.00  0.00     0.021 C 
HETATM   17  C   UNL     1     -39.748  50.800 -52.024  1.00  0.00     0.035 A 
HETATM   18  C   UNL     1     -39.728  50.380 -53.353  1.00  0.00     0.026 A 
HETATM   19 CL   UNL     1     -39.432  49.671 -50.765  1.00  0.00    -0.084 Cl
ENDBRANCH   8   9
ENDBRANCH   1   8
BRANCH   5  20
HETATM   20  N   UNL     1     -44.762  60.195 -52.642  1.00  0.00    -0.339 N 
HETATM   21  C   UNL     1     -45.397  61.319 -53.071  1.00  0.00     0.314 C 
HETATM   22  N   UNL     1     -44.869  62.451 -52.551  1.00  0.00    -0.352 N 
HETATM   23  O   UNL     1     -46.290  61.360 -53.903  1.00  0.00    -0.248 OA
HETATM   24  H   UNL     1     -44.541  62.455 -51.595  1.00  0.00     0.160 HD
HETATM   25  H   UNL     1     -45.368  63.295 -52.812  1.00  0.00     0.160 HD
HETATM   26  H   UNL     1     -44.131  60.348 -51.865  1.00  0.00     0.164 HD
ENDBRANCH   5  20
TORSDOF 3
ENDMDL
MODEL 9
REMARK VINA RESULT:      -7.2      4.661      6.127
REMARK  3 active torsions:
REMARK  status: ('A' for Active; 'I' for Inactive)
REMARK    1  A    between atoms: C_9  and  C_10 
REMARK    2  A    between atoms: C_10  and  N_11 
REMARK    3  A    between atoms: C_15  and  N_16 
REMARK       I    between atoms: N_16  and  C_17 
REMARK       I    between atoms: C_17  and  N_18 
ROOT
HETATM    1  N   UNL     1     -42.742  57.845 -51.812  1.00  0.00    -0.067 N 
HETATM    2  H   UNL     1     -42.484  57.553 -52.761  1.00  0.00     0.280 HD
HETATM    3  C   UNL     1     -44.216  58.184 -51.785  1.00  0.00     0.237 C 
HETATM    4  C   UNL     1     -44.510  59.299 -52.778  1.00  0.00     0.053 C 
HETATM    5  C   UNL     1     -43.694  60.558 -52.472  1.00  0.00     0.089 C 
HETATM    6  C   UNL     1     -42.204  60.202 -52.414  1.00  0.00     0.053 C 
HETATM    7  C   UNL     1     -41.894  59.054 -51.465  1.00  0.00     0.237 C 
ENDROOT
BRANCH   1   8
HETATM    8  C   UNL     1     -42.405  56.694 -50.883  1.00  0.00     0.271 C 
BRANCH   8   9
HETATM    9  C   UNL     1     -41.773  55.495 -51.529  1.00  0.00    -0.029 C 
HETATM   10  C   UNL     1     -41.917  55.446 -53.038  1.00  0.00     0.211 C 
HETATM   11  O   UNL     1     -40.988  54.603 -53.726  1.00  0.00    -0.346 OA
HETATM   12  C   UNL     1     -40.587  53.482 -53.057  1.00  0.00     0.079 A 
HETATM   13  C   UNL     1     -40.650  53.372 -51.665  1.00  0.00    -0.001 A 
HETATM   14  C   UNL     1     -40.049  52.451 -53.829  1.00  0.00     0.039 A 
HETATM   15  C   UNL     1     -40.184  52.206 -51.047  1.00  0.00     0.038 A 
HETATM   16  C   UNL     1     -41.167  54.487 -50.877  1.00  0.00     0.021 C 
HETATM   17  C   UNL     1     -39.663  51.169 -51.825  1.00  0.00     0.035 A 
HETATM   18  C   UNL     1     -39.592  51.287 -53.212  1.00  0.00     0.026 A 
HETATM   19 CL   UNL     1     -39.095  49.738 -51.059  1.00  0.00    -0.084 Cl
ENDBRANCH   8   9
ENDBRANCH   1   8
BRANCH   5  20
HETATM   20  N   UNL     1     -44.275  61.259 -51.325  1.00  0.00    -0.339 N 
HETATM   21  C   UNL     1     -44.186  62.584 -51.029  1.00  0.00     0.314 C 
HETATM   22  N   UNL     1     -44.925  62.930 -49.949  1.00  0.00    -0.352 N 
HETATM   23  O   UNL     1     -43.463  63.392 -51.588  1.00  0.00    -0.248 OA
HETATM   24  H   UNL     1     -45.824  62.493 -49.798  1.00  0.00     0.160 HD
HETATM   25  H   UNL     1     -44.919  63.925 -49.750  1.00  0.00     0.160 HD
HETATM   26  H   UNL     1     -45.013  60.773 -50.830  1.00  0.00     0.164 HD
ENDBRANCH   5  20
TORSDOF 3
ENDMDL
MODEL 10
REMARK VINA RESULT:      -7.2      1.883      2.246
REMARK  3 active torsions:
REMARK  status: ('A' for Active; 'I' for Inactive)
REMARK    1  A    between atoms: C_9  and  C_10 
REMARK    2  A    between atoms: C_10  and  N_11 
REMARK    3  A    between atoms: C_15  and  N_16 
REMARK       I    between atoms: N_16  and  C_17 
REMARK       I    between atoms: C_17  and  N_18 
ROOT
HETATM    1  N   UNL     1     -42.982  57.019 -55.518  1.00  0.00    -0.067 N 
HETATM    2  H   UNL     1     -43.497  56.169 -55.267  1.00  0.00     0.280 HD
HETATM    3  C   UNL     1     -43.934  58.194 -55.505  1.00  0.00     0.237 C 
HETATM    4  C   UNL     1     -45.067  57.953 -56.493  1.00  0.00     0.053 C 
HETATM    5  C   UNL     1     -44.542  57.740 -57.915  1.00  0.00     0.089 C 
HETATM    6  C   UNL     1     -43.511  56.606 -57.916  1.00  0.00     0.053 C 
HETATM    7  C   UNL     1     -42.396  56.801 -56.899  1.00  0.00     0.237 C 
ENDROOT
BRANCH   1   8
HETATM    8  C   UNL     1     -41.865  57.181 -54.503  1.00  0.00     0.271 C 
BRANCH   8   9
HETATM    9  C   UNL     1     -41.392  55.918 -53.843  1.00  0.00    -0.029 C 
HETATM   10  C   UNL     1     -41.101  56.056 -52.361  1.00  0.00     0.211 C 
HETATM   11  O   UNL     1     -41.084  54.835 -51.614  1.00  0.00    -0.346 OA
HETATM   12  C   UNL     1     -40.641  53.729 -52.281  1.00  0.00     0.079 A 
HETATM   13  C   UNL     1     -40.663  53.632 -53.676  1.00  0.00    -0.001 A 
HETATM   14  C   UNL     1     -40.209  52.657 -51.499  1.00  0.00     0.039 A 
HETATM   15  C   UNL     1     -40.229  52.450 -54.287  1.00  0.00     0.038 A 
HETATM   16  C   UNL     1     -41.172  54.748 -54.468  1.00  0.00     0.021 C 
HETATM   17  C   UNL     1     -39.779  51.387 -53.501  1.00  0.00     0.035 A 
HETATM   18  C   UNL     1     -39.770  51.484 -52.111  1.00  0.00     0.026 A 
HETATM   19 CL   UNL     1     -39.244  49.939 -54.261  1.00  0.00    -0.084 Cl
ENDBRANCH   8   9
ENDBRANCH   1   8
BRANCH   5  20
HETATM   20  N   UNL     1     -44.146  59.025 -58.494  1.00  0.00    -0.339 N 
HETATM   21  C   UNL     1     -44.945  59.946 -59.097  1.00  0.00     0.314 C 
HETATM   22  N   UNL     1     -44.281  61.077 -59.433  1.00  0.00    -0.352 N 
HETATM   23  O   UNL     1     -46.115  59.782 -59.405  1.00  0.00    -0.248 OA
HETATM   24  H   UNL     1     -43.564  61.435 -58.818  1.00  0.00     0.160 HD
HETATM   25  H   UNL     1     -44.875  61.799 -59.829  1.00  0.00     0.160 HD
HETATM   26  H   UNL     1     -43.241  59.383 -58.214  1.00  0.00     0.164 HD
ENDBRANCH   5  20
TORSDOF 3
ENDMDL
