MODEL 1
REMARK VINA RESULT:      -8.8      0.000      0.000
REMARK  3 active torsions:
REMARK  status: ('A' for Active; 'I' for Inactive)
REMARK    1  A    between atoms: C_3  and  C_4 
REMARK    2  A    between atoms: C_11  and  N_12 
REMARK       I    between atoms: N_12  and  C_13 
REMARK       I    between atoms: C_13  and  N_14 
REMARK    3  A    between atoms: N_14  and  C_15 
ROOT
HETATM    1  C   UNL     1     -39.792  59.154 -51.821  1.00  0.00     0.001 A 
HETATM    2  C   UNL     1     -40.287  58.662 -53.026  1.00  0.00     0.016 A 
HETATM    3  C   UNL     1     -41.208  57.606 -53.023  1.00  0.00     0.021 A 
HETATM    4  C   UNL     1     -41.630  57.023 -51.812  1.00  0.00     0.049 A 
HETATM    5  C   UNL     1     -41.108  57.518 -50.611  1.00  0.00     0.030 A 
HETATM    6  C   UNL     1     -40.202  58.584 -50.616  1.00  0.00     0.002 A 
ENDROOT
BRANCH   4   7
HETATM    7  N   UNL     1     -42.476  55.897 -51.838  1.00  0.00    -0.308 N 
HETATM    8  C   UNL     1     -42.281  54.613 -52.269  1.00  0.00     0.325 C 
HETATM    9  N   UNL     1     -40.992  54.236 -52.512  1.00  0.00    -0.306 N 
HETATM   10  O   UNL     1     -43.260  53.870 -52.287  1.00  0.00    -0.247 OA
HETATM   11  H   UNL     1     -40.276  54.945 -52.440  1.00  0.00     0.171 HD
HETATM   12  H   UNL     1     -43.385  55.993 -51.395  1.00  0.00     0.170 HD
BRANCH   9  13
HETATM   13  C   UNL     1     -40.500  52.934 -52.748  1.00  0.00     0.075 A 
HETATM   14  C   UNL     1     -39.974  52.243 -51.646  1.00  0.00     0.146 A 
HETATM   15  F   UNL     1     -39.931  52.852 -50.449  1.00  0.00    -0.204 F 
HETATM   16  C   UNL     1     -39.502  50.942 -51.754  1.00  0.00     0.086 A 
HETATM   17  C   UNL     1     -39.562  50.313 -52.987  1.00  0.00     0.119 A 
HETATM   18  F   UNL     1     -39.127  49.053 -53.109  1.00  0.00    -0.206 F 
HETATM   19  C   UNL     1     -40.075  50.971 -54.102  1.00  0.00     0.044 A 
HETATM   20  C   UNL     1     -40.539  52.285 -53.985  1.00  0.00     0.036 A 
ENDBRANCH   9  13
ENDBRANCH   4   7
BRANCH   3  21
HETATM   21  C   UNL     1     -41.760  57.187 -54.334  1.00  0.00     0.089 A 
HETATM   22  N   UNL     1     -41.256  56.158 -54.941  1.00  0.00    -0.171 NA
HETATM   23  N   UNL     1     -41.820  55.822 -56.140  1.00  0.00    -0.243 N 
HETATM   24  C   UNL     1     -42.867  56.468 -56.747  1.00  0.00     0.261 A 
HETATM   25  H   UNL     1     -41.439  55.007 -56.610  1.00  0.00     0.192 HD
HETATM   26  O   UNL     1     -43.351  56.114 -57.816  1.00  0.00    -0.267 OA
HETATM   27  C   UNL     1     -43.393  57.648 -56.037  1.00  0.00     0.078 A 
HETATM   28  C   UNL     1     -42.863  58.022 -54.871  1.00  0.00     0.040 A 
ENDBRANCH   3  21
TORSDOF 3
ENDMDL
MODEL 2
REMARK VINA RESULT:      -8.2      2.351      4.462
REMARK  3 active torsions:
REMARK  status: ('A' for Active; 'I' for Inactive)
REMARK    1  A    between atoms: C_3  and  C_4 
REMARK    2  A    between atoms: C_11  and  N_12 
REMARK       I    between atoms: N_12  and  C_13 
REMARK       I    between atoms: C_13  and  N_14 
REMARK    3  A    between atoms: N_14  and  C_15 
ROOT
HETATM    1  C   UNL     1     -42.150  57.377 -59.541  1.00  0.00     0.001 A 
HETATM    2  C   UNL     1     -42.033  58.076 -58.342  1.00  0.00     0.016 A 
HETATM    3  C   UNL     1     -42.508  57.506 -57.153  1.00  0.00     0.021 A 
HETATM    4  C   UNL     1     -43.117  56.237 -57.156  1.00  0.00     0.049 A 
HETATM    5  C   UNL     1     -43.244  55.556 -58.374  1.00  0.00     0.030 A 
HETATM    6  C   UNL     1     -42.754  56.120 -59.556  1.00  0.00     0.002 A 
ENDROOT
BRANCH   4   7
HETATM    7  N   UNL     1     -43.679  55.729 -55.969  1.00  0.00    -0.308 N 
HETATM    8  C   UNL     1     -43.251  54.773 -55.088  1.00  0.00     0.325 C 
HETATM    9  N   UNL     1     -41.951  54.370 -55.201  1.00  0.00    -0.306 N 
HETATM   10  O   UNL     1     -44.027  54.442 -54.194  1.00  0.00    -0.247 OA
HETATM   11  H   UNL     1     -41.414  54.738 -55.974  1.00  0.00     0.171 HD
HETATM   12  H   UNL     1     -44.521  56.181 -55.627  1.00  0.00     0.170 HD
BRANCH   9  13
HETATM   13  C   UNL     1     -41.208  53.577 -54.300  1.00  0.00     0.075 A 
HETATM   14  C   UNL     1     -40.967  54.117 -53.028  1.00  0.00     0.146 A 
HETATM   15  F   UNL     1     -41.414  55.351 -52.742  1.00  0.00    -0.204 F 
HETATM   16  C   UNL     1     -40.284  53.408 -52.048  1.00  0.00     0.086 A 
HETATM   17  C   UNL     1     -39.838  52.129 -52.343  1.00  0.00     0.119 A 
HETATM   18  F   UNL     1     -39.191  51.423 -51.407  1.00  0.00    -0.206 F 
HETATM   19  C   UNL     1     -40.058  51.565 -53.596  1.00  0.00     0.044 A 
HETATM   20  C   UNL     1     -40.739  52.292 -54.579  1.00  0.00     0.036 A 
ENDBRANCH   9  13
ENDBRANCH   4   7
BRANCH   3  21
HETATM   21  C   UNL     1     -42.275  58.265 -55.900  1.00  0.00     0.089 A 
HETATM   22  N   UNL     1     -41.746  57.666 -54.879  1.00  0.00    -0.171 NA
HETATM   23  N   UNL     1     -41.550  58.428 -53.761  1.00  0.00    -0.243 N 
HETATM   24  C   UNL     1     -41.855  59.759 -53.630  1.00  0.00     0.261 A 
HETATM   25  H   UNL     1     -41.121  57.967 -52.965  1.00  0.00     0.192 HD
HETATM   26  O   UNL     1     -41.640  60.404 -52.609  1.00  0.00    -0.267 OA
HETATM   27  C   UNL     1     -42.479  60.395 -54.804  1.00  0.00     0.078 A 
HETATM   28  C   UNL     1     -42.703  59.686 -55.912  1.00  0.00     0.040 A 
ENDBRANCH   3  21
TORSDOF 3
ENDMDL
MODEL 3
REMARK VINA RESULT:      -8.1      2.783      5.901
REMARK  3 active torsions:
REMARK  status: ('A' for Active; 'I' for Inactive)
REMARK    1  A    between atoms: C_3  and  C_4 
REMARK    2  A    between atoms: C_11  and  N_12 
REMARK       I    between atoms: N_12  and  C_13 
REMARK       I    between atoms: C_13  and  N_14 
REMARK    3  A    between atoms: N_14  and  C_15 
ROOT
HETATM    1  C   UNL     1     -39.379  51.894 -53.614  1.00  0.00     0.001 A 
HETATM    2  C   UNL     1     -40.215  52.774 -54.296  1.00  0.00     0.016 A 
HETATM    3  C   UNL     1     -41.205  53.479 -53.598  1.00  0.00     0.021 A 
HETATM    4  C   UNL     1     -41.375  53.298 -52.212  1.00  0.00     0.049 A 
HETATM    5  C   UNL     1     -40.538  52.394 -51.545  1.00  0.00     0.030 A 
HETATM    6  C   UNL     1     -39.540  51.705 -52.242  1.00  0.00     0.002 A 
ENDROOT
BRANCH   4   7
HETATM    7  N   UNL     1     -42.441  53.938 -51.550  1.00  0.00    -0.308 N 
HETATM    8  C   UNL     1     -42.568  55.192 -51.018  1.00  0.00     0.325 C 
HETATM    9  N   UNL     1     -41.614  56.105 -51.361  1.00  0.00    -0.306 N 
HETATM   10  O   UNL     1     -43.589  55.431 -50.375  1.00  0.00    -0.247 OA
HETATM   11  H   UNL     1     -40.833  55.781 -51.915  1.00  0.00     0.171 HD
HETATM   12  H   UNL     1     -43.322  53.437 -51.505  1.00  0.00     0.170 HD
BRANCH   9  13
HETATM   13  C   UNL     1     -41.627  57.499 -51.135  1.00  0.00     0.075 A 
HETATM   14  C   UNL     1     -42.551  58.254 -51.872  1.00  0.00     0.146 A 
HETATM   15  F   UNL     1     -43.340  57.636 -52.766  1.00  0.00    -0.204 F 
HETATM   16  C   UNL     1     -42.680  59.626 -51.700  1.00  0.00     0.086 A 
HETATM   17  C   UNL     1     -41.874  60.257 -50.766  1.00  0.00     0.119 A 
HETATM   18  F   UNL     1     -41.994  61.577 -50.573  1.00  0.00    -0.206 F 
HETATM   19  C   UNL     1     -40.945  59.538 -50.019  1.00  0.00     0.044 A 
HETATM   20  C   UNL     1     -40.816  58.158 -50.208  1.00  0.00     0.036 A 
ENDBRANCH   9  13
ENDBRANCH   4   7
BRANCH   3  21
HETATM   21  C   UNL     1     -42.003  54.463 -54.368  1.00  0.00     0.089 A 
HETATM   22  N   UNL     1     -43.285  54.300 -54.479  1.00  0.00    -0.171 NA
HETATM   23  N   UNL     1     -43.960  55.250 -55.192  1.00  0.00    -0.243 N 
HETATM   24  C   UNL     1     -43.406  56.354 -55.790  1.00  0.00     0.261 A 
HETATM   25  H   UNL     1     -44.966  55.135 -55.267  1.00  0.00     0.192 HD
HETATM   26  O   UNL     1     -44.060  57.189 -56.404  1.00  0.00    -0.267 OA
HETATM   27  C   UNL     1     -41.943  56.487 -55.664  1.00  0.00     0.078 A 
HETATM   28  C   UNL     1     -41.241  55.575 -54.988  1.00  0.00     0.040 A 
ENDBRANCH   3  21
TORSDOF 3
ENDMDL
MODEL 4
REMARK VINA RESULT:      -8.1      2.501      3.803
REMARK  3 active torsions:
REMARK  status: ('A' for Active; 'I' for Inactive)
REMARK    1  A    between atoms: C_3  and  C_4 
REMARK    2  A    between atoms: C_11  and  N_12 
REMARK       I    between atoms: N_12  and  C_13 
REMARK       I    between atoms: C_13  and  N_14 
REMARK    3  A    between atoms: N_14  and  C_15 
ROOT
HETATM    1  C   UNL     1     -42.074  59.593 -56.471  1.00  0.00     0.001 A 
HETATM    2  C   UNL     1     -42.511  58.831 -57.552  1.00  0.00     0.016 A 
HETATM    3  C   UNL     1     -43.051  57.557 -57.336  1.00  0.00     0.021 A 
HETATM    4  C   UNL     1     -43.147  57.027 -56.035  1.00  0.00     0.049 A 
HETATM    5  C   UNL     1     -42.686  57.798 -54.961  1.00  0.00     0.030 A 
HETATM    6  C   UNL     1     -42.162  59.077 -55.178  1.00  0.00     0.002 A 
ENDROOT
BRANCH   4   7
HETATM    7  N   UNL     1     -43.598  55.706 -55.850  1.00  0.00    -0.308 N 
HETATM    8  C   UNL     1     -42.971  54.578 -55.393  1.00  0.00     0.325 C 
HETATM    9  N   UNL     1     -41.767  54.753 -54.775  1.00  0.00    -0.306 N 
HETATM   10  O   UNL     1     -43.592  53.519 -55.467  1.00  0.00    -0.247 OA
HETATM   11  H   UNL     1     -41.376  55.684 -54.766  1.00  0.00     0.171 HD
HETATM   12  H   UNL     1     -44.586  55.531 -56.003  1.00  0.00     0.170 HD
BRANCH   9  13
HETATM   13  C   UNL     1     -41.029  53.805 -54.032  1.00  0.00     0.075 A 
HETATM   14  C   UNL     1     -40.929  54.020 -52.649  1.00  0.00     0.146 A 
HETATM   15  F   UNL     1     -41.497  55.113 -52.111  1.00  0.00    -0.204 F 
HETATM   16  C   UNL     1     -40.264  53.131 -51.815  1.00  0.00     0.086 A 
HETATM   17  C   UNL     1     -39.693  51.998 -52.373  1.00  0.00     0.119 A 
HETATM   18  F   UNL     1     -39.061  51.120 -51.584  1.00  0.00    -0.206 F 
HETATM   19  C   UNL     1     -39.771  51.756 -53.741  1.00  0.00     0.044 A 
HETATM   20  C   UNL     1     -40.435  52.664 -54.574  1.00  0.00     0.036 A 
ENDBRANCH   9  13
ENDBRANCH   4   7
BRANCH   3  21
HETATM   21  C   UNL     1     -43.576  56.835 -58.521  1.00  0.00     0.089 A 
HETATM   22  N   UNL     1     -43.112  55.659 -58.810  1.00  0.00    -0.171 NA
HETATM   23  N   UNL     1     -43.647  55.047 -59.908  1.00  0.00    -0.243 N 
HETATM   24  C   UNL     1     -44.627  55.561 -60.720  1.00  0.00     0.261 A 
HETATM   25  H   UNL     1     -43.299  54.119 -60.128  1.00  0.00     0.192 HD
HETATM   26  O   UNL     1     -45.088  54.962 -61.684  1.00  0.00    -0.267 OA
HETATM   27  C   UNL     1     -45.106  56.911 -60.372  1.00  0.00     0.078 A 
HETATM   28  C   UNL     1     -44.602  57.553 -59.317  1.00  0.00     0.040 A 
ENDBRANCH   3  21
TORSDOF 3
ENDMDL
MODEL 5
REMARK VINA RESULT:      -8.1      1.704      2.036
REMARK  3 active torsions:
REMARK  status: ('A' for Active; 'I' for Inactive)
REMARK    1  A    between atoms: C_3  and  C_4 
REMARK    2  A    between atoms: C_11  and  N_12 
REMARK       I    between atoms: N_12  and  C_13 
REMARK       I    between atoms: C_13  and  N_14 
REMARK    3  A    between atoms: N_14  and  C_15 
ROOT
HETATM    1  C   UNL     1     -40.372  59.365 -51.543  1.00  0.00     0.001 A 
HETATM    2  C   UNL     1     -41.332  59.201 -52.538  1.00  0.00     0.016 A 
HETATM    3  C   UNL     1     -42.176  58.083 -52.516  1.00  0.00     0.021 A 
HETATM    4  C   UNL     1     -42.057  57.111 -51.504  1.00  0.00     0.049 A 
HETATM    5  C   UNL     1     -41.073  57.281 -50.522  1.00  0.00     0.030 A 
HETATM    6  C   UNL     1     -40.244  58.407 -50.537  1.00  0.00     0.002 A 
ENDROOT
BRANCH   4   7
HETATM    7  N   UNL     1     -42.846  55.945 -51.560  1.00  0.00    -0.308 N 
HETATM    8  C   UNL     1     -42.597  54.692 -52.049  1.00  0.00     0.325 C 
HETATM    9  N   UNL     1     -41.296  54.391 -52.335  1.00  0.00    -0.306 N 
HETATM   10  O   UNL     1     -43.537  53.900 -52.078  1.00  0.00    -0.247 OA
HETATM   11  H   UNL     1     -40.615  55.132 -52.247  1.00  0.00     0.171 HD
HETATM   12  H   UNL     1     -43.747  55.976 -51.094  1.00  0.00     0.170 HD
BRANCH   9  13
HETATM   13  C   UNL     1     -40.745  53.126 -52.636  1.00  0.00     0.075 A 
HETATM   14  C   UNL     1     -40.923  52.650 -53.944  1.00  0.00     0.146 A 
HETATM   15  F   UNL     1     -41.625  53.387 -54.821  1.00  0.00    -0.204 F 
HETATM   16  C   UNL     1     -40.388  51.439 -54.362  1.00  0.00     0.086 A 
HETATM   17  C   UNL     1     -39.653  50.690 -53.457  1.00  0.00     0.119 A 
HETATM   18  F   UNL     1     -39.114  49.527 -53.845  1.00  0.00    -0.206 F 
HETATM   19  C   UNL     1     -39.459  51.132 -52.151  1.00  0.00     0.044 A 
HETATM   20  C   UNL     1     -40.011  52.349 -51.737  1.00  0.00     0.036 A 
ENDBRANCH   9  13
ENDBRANCH   4   7
BRANCH   3  21
HETATM   21  C   UNL     1     -43.233  58.013 -53.555  1.00  0.00     0.089 A 
HETATM   22  N   UNL     1     -43.237  57.026 -54.397  1.00  0.00    -0.171 NA
HETATM   23  N   UNL     1     -44.245  57.019 -55.320  1.00  0.00    -0.243 N 
HETATM   24  C   UNL     1     -45.245  57.952 -55.428  1.00  0.00     0.261 A 
HETATM   25  H   UNL     1     -44.262  56.240 -55.970  1.00  0.00     0.192 HD
HETATM   26  O   UNL     1     -46.140  57.889 -56.264  1.00  0.00    -0.267 OA
HETATM   27  C   UNL     1     -45.187  59.071 -54.470  1.00  0.00     0.078 A 
HETATM   28  C   UNL     1     -44.213  59.127 -53.560  1.00  0.00     0.040 A 
ENDBRANCH   3  21
TORSDOF 3
ENDMDL
MODEL 6
REMARK VINA RESULT:      -8.1      2.190      4.210
REMARK  3 active torsions:
REMARK  status: ('A' for Active; 'I' for Inactive)
REMARK    1  A    between atoms: C_3  and  C_4 
REMARK    2  A    between atoms: C_11  and  N_12 
REMARK       I    between atoms: N_12  and  C_13 
REMARK       I    between atoms: C_13  and  N_14 
REMARK    3  A    between atoms: N_14  and  C_15 
ROOT
HETATM    1  C   UNL     1     -41.973  59.643 -57.337  1.00  0.00     0.001 A 
HETATM    2  C   UNL     1     -42.545  59.401 -56.089  1.00  0.00     0.016 A 
HETATM    3  C   UNL     1     -42.985  58.112 -55.762  1.00  0.00     0.021 A 
HETATM    4  C   UNL     1     -42.870  57.055 -56.686  1.00  0.00     0.049 A 
HETATM    5  C   UNL     1     -42.311  57.320 -57.942  1.00  0.00     0.030 A 
HETATM    6  C   UNL     1     -41.856  58.604 -58.260  1.00  0.00     0.002 A 
ENDROOT
BRANCH   4   7
HETATM    7  N   UNL     1     -43.411  55.793 -56.374  1.00  0.00    -0.308 N 
HETATM    8  C   UNL     1     -42.872  54.686 -55.778  1.00  0.00     0.325 C 
HETATM    9  N   UNL     1     -41.674  54.851 -55.144  1.00  0.00    -0.306 N 
HETATM   10  O   UNL     1     -43.559  53.666 -55.755  1.00  0.00    -0.247 OA
HETATM   11  H   UNL     1     -41.223  55.752 -55.224  1.00  0.00     0.171 HD
HETATM   12  H   UNL     1     -44.405  55.665 -56.537  1.00  0.00     0.170 HD
BRANCH   9  13
HETATM   13  C   UNL     1     -41.019  53.947 -54.280  1.00  0.00     0.075 A 
HETATM   14  C   UNL     1     -41.084  54.221 -52.905  1.00  0.00     0.146 A 
HETATM   15  F   UNL     1     -41.722  55.325 -52.485  1.00  0.00    -0.204 F 
HETATM   16  C   UNL     1     -40.512  53.377 -51.962  1.00  0.00     0.086 A 
HETATM   17  C   UNL     1     -39.867  52.231 -52.400  1.00  0.00     0.119 A 
HETATM   18  F   UNL     1     -39.324  51.396 -51.506  1.00  0.00    -0.206 F 
HETATM   19  C   UNL     1     -39.782  51.931 -53.756  1.00  0.00     0.044 A 
HETATM   20  C   UNL     1     -40.353  52.793 -54.699  1.00  0.00     0.036 A 
ENDBRANCH   9  13
ENDBRANCH   4   7
BRANCH   3  21
HETATM   21  C   UNL     1     -43.504  57.904 -54.388  1.00  0.00     0.089 A 
HETATM   22  N   UNL     1     -44.636  57.295 -54.217  1.00  0.00    -0.171 NA
HETATM   23  N   UNL     1     -45.049  57.128 -52.925  1.00  0.00    -0.243 N 
HETATM   24  C   UNL     1     -44.373  57.539 -51.804  1.00  0.00     0.261 A 
HETATM   25  H   UNL     1     -45.926  56.637 -52.787  1.00  0.00     0.192 HD
HETATM   26  O   UNL     1     -44.778  57.347 -50.663  1.00  0.00    -0.267 OA
HETATM   27  C   UNL     1     -43.105  58.251 -52.043  1.00  0.00     0.078 A 
HETATM   28  C   UNL     1     -42.670  58.450 -53.289  1.00  0.00     0.040 A 
ENDBRANCH   3  21
TORSDOF 3
ENDMDL
MODEL 7
REMARK VINA RESULT:      -8.0      3.747      7.418
REMARK  3 active torsions:
REMARK  status: ('A' for Active; 'I' for Inactive)
REMARK    1  A    between atoms: C_3  and  C_4 
REMARK    2  A    between atoms: C_11  and  N_12 
REMARK       I    between atoms: N_12  and  C_13 
REMARK       I    between atoms: C_13  and  N_14 
REMARK    3  A    between atoms: N_14  and  C_15 
ROOT
HETATM    1  C   UNL     1     -41.012  54.242 -55.252  1.00  0.00     0.001 A 
HETATM    2  C   UNL     1     -40.641  54.206 -53.910  1.00  0.00     0.016 A 
HETATM    3  C   UNL     1     -41.571  54.549 -52.920  1.00  0.00     0.021 A 
HETATM    4  C   UNL     1     -42.877  54.945 -53.265  1.00  0.00     0.049 A 
HETATM    5  C   UNL     1     -43.228  54.993 -54.620  1.00  0.00     0.030 A 
HETATM    6  C   UNL     1     -42.302  54.634 -55.606  1.00  0.00     0.002 A 
ENDROOT
BRANCH   4   7
HETATM    7  N   UNL     1     -43.762  55.383 -52.261  1.00  0.00    -0.308 N 
HETATM    8  C   UNL     1     -43.849  56.557 -51.564  1.00  0.00     0.325 C 
HETATM    9  N   UNL     1     -43.125  57.611 -52.042  1.00  0.00    -0.306 N 
HETATM   10  O   UNL     1     -44.658  56.606 -50.639  1.00  0.00    -0.247 OA
HETATM   11  H   UNL     1     -42.510  57.439 -52.826  1.00  0.00     0.171 HD
HETATM   12  H   UNL     1     -44.542  54.773 -52.036  1.00  0.00     0.170 HD
BRANCH   9  13
HETATM   13  C   UNL     1     -43.204  58.966 -51.651  1.00  0.00     0.075 A 
HETATM   14  C   UNL     1     -42.173  59.452 -50.834  1.00  0.00     0.146 A 
HETATM   15  F   UNL     1     -41.197  58.617 -50.439  1.00  0.00    -0.204 F 
HETATM   16  C   UNL     1     -42.126  60.779 -50.424  1.00  0.00     0.086 A 
HETATM   17  C   UNL     1     -43.127  61.639 -50.846  1.00  0.00     0.119 A 
HETATM   18  F   UNL     1     -43.092  62.925 -50.476  1.00  0.00    -0.206 F 
HETATM   19  C   UNL     1     -44.166  61.188 -51.656  1.00  0.00     0.044 A 
HETATM   20  C   UNL     1     -44.209  59.848 -52.054  1.00  0.00     0.036 A 
ENDBRANCH   9  13
ENDBRANCH   4   7
BRANCH   3  21
HETATM   21  C   UNL     1     -41.138  54.407 -51.508  1.00  0.00     0.089 A 
HETATM   22  N   UNL     1     -41.055  55.461 -50.756  1.00  0.00    -0.171 NA
HETATM   23  N   UNL     1     -40.660  55.256 -49.464  1.00  0.00    -0.243 N 
HETATM   24  C   UNL     1     -40.353  54.044 -48.897  1.00  0.00     0.261 A 
HETATM   25  H   UNL     1     -40.610  56.075 -48.867  1.00  0.00     0.192 HD
HETATM   26  O   UNL     1     -40.023  53.911 -47.724  1.00  0.00    -0.267 OA
HETATM   27  C   UNL     1     -40.434  52.876 -49.794  1.00  0.00     0.078 A 
HETATM   28  C   UNL     1     -40.800  53.031 -51.067  1.00  0.00     0.040 A 
ENDBRANCH   3  21
TORSDOF 3
ENDMDL
MODEL 8
REMARK VINA RESULT:      -8.0      1.922      2.390
REMARK  3 active torsions:
REMARK  status: ('A' for Active; 'I' for Inactive)
REMARK    1  A    between atoms: C_3  and  C_4 
REMARK    2  A    between atoms: C_11  and  N_12 
REMARK       I    between atoms: N_12  and  C_13 
REMARK       I    between atoms: C_13  and  N_14 
REMARK    3  A    between atoms: N_14  and  C_15 
ROOT
HETATM    1  C   UNL     1     -44.514  57.634 -51.667  1.00  0.00     0.001 A 
HETATM    2  C   UNL     1     -44.631  57.724 -53.053  1.00  0.00     0.016 A 
HETATM    3  C   UNL     1     -43.623  57.200 -53.873  1.00  0.00     0.021 A 
HETATM    4  C   UNL     1     -42.481  56.594 -53.314  1.00  0.00     0.049 A 
HETATM    5  C   UNL     1     -42.371  56.530 -51.919  1.00  0.00     0.030 A 
HETATM    6  C   UNL     1     -43.387  57.038 -51.103  1.00  0.00     0.002 A 
ENDROOT
BRANCH   4   7
HETATM    7  N   UNL     1     -41.435  56.167 -54.154  1.00  0.00    -0.308 N 
HETATM    8  C   UNL     1     -40.648  55.048 -54.143  1.00  0.00     0.325 C 
HETATM    9  N   UNL     1     -41.053  54.020 -53.340  1.00  0.00    -0.306 N 
HETATM   10  O   UNL     1     -39.712  55.008 -54.939  1.00  0.00    -0.247 OA
HETATM   11  H   UNL     1     -41.855  54.179 -52.747  1.00  0.00     0.171 HD
HETATM   12  H   UNL     1     -41.248  56.730 -54.978  1.00  0.00     0.170 HD
BRANCH   9  13
HETATM   13  C   UNL     1     -40.557  52.698 -53.309  1.00  0.00     0.075 A 
HETATM   14  C   UNL     1     -39.953  52.274 -52.115  1.00  0.00     0.146 A 
HETATM   15  F   UNL     1     -39.843  53.137 -51.092  1.00  0.00    -0.204 F 
HETATM   16  C   UNL     1     -39.469  50.982 -51.958  1.00  0.00     0.086 A 
HETATM   17  C   UNL     1     -39.598  50.092 -53.012  1.00  0.00     0.119 A 
HETATM   18  F   UNL     1     -39.152  48.837 -52.875  1.00  0.00    -0.206 F 
HETATM   19  C   UNL     1     -40.190  50.481 -54.210  1.00  0.00     0.044 A 
HETATM   20  C   UNL     1     -40.666  51.788 -54.362  1.00  0.00     0.036 A 
ENDBRANCH   9  13
ENDBRANCH   4   7
BRANCH   3  21
HETATM   21  C   UNL     1     -43.850  57.251 -55.338  1.00  0.00     0.089 A 
HETATM   22  N   UNL     1     -43.538  56.227 -56.070  1.00  0.00    -0.171 NA
HETATM   23  N   UNL     1     -43.784  56.339 -57.409  1.00  0.00    -0.243 N 
HETATM   24  C   UNL     1     -44.332  57.427 -58.040  1.00  0.00     0.261 A 
HETATM   25  H   UNL     1     -43.557  55.533 -57.983  1.00  0.00     0.192 HD
HETATM   26  O   UNL     1     -44.551  57.470 -59.245  1.00  0.00    -0.267 OA
HETATM   27  C   UNL     1     -44.646  58.580 -57.176  1.00  0.00     0.078 A 
HETATM   28  C   UNL     1     -44.409  58.521 -55.864  1.00  0.00     0.040 A 
ENDBRANCH   3  21
TORSDOF 3
ENDMDL
MODEL 9
REMARK VINA RESULT:      -8.0      3.251      6.324
REMARK  3 active torsions:
REMARK  status: ('A' for Active; 'I' for Inactive)
REMARK    1  A    between atoms: C_3  and  C_4 
REMARK    2  A    between atoms: C_11  and  N_12 
REMARK       I    between atoms: N_12  and  C_13 
REMARK       I    between atoms: C_13  and  N_14 
REMARK    3  A    between atoms: N_14  and  C_15 
ROOT
HETATM    1  C   UNL     1     -39.982  54.633 -49.378  1.00  0.00     0.001 A 
HETATM    2  C   UNL     1     -39.801  53.591 -50.284  1.00  0.00     0.016 A 
HETATM    3  C   UNL     1     -40.678  53.447 -51.367  1.00  0.00     0.021 A 
HETATM    4  C   UNL     1     -41.754  54.338 -51.545  1.00  0.00     0.049 A 
HETATM    5  C   UNL     1     -41.933  55.368 -50.614  1.00  0.00     0.030 A 
HETATM    6  C   UNL     1     -41.046  55.520 -49.543  1.00  0.00     0.002 A 
ENDROOT
BRANCH   4   7
HETATM    7  N   UNL     1     -42.682  54.113 -52.581  1.00  0.00    -0.308 N 
HETATM    8  C   UNL     1     -43.085  54.888 -53.634  1.00  0.00     0.325 C 
HETATM    9  N   UNL     1     -42.325  55.986 -53.916  1.00  0.00    -0.306 N 
HETATM   10  O   UNL     1     -44.023  54.473 -54.313  1.00  0.00    -0.247 OA
HETATM   11  H   UNL     1     -41.566  56.204 -53.286  1.00  0.00     0.171 HD
HETATM   12  H   UNL     1     -43.096  53.188 -52.636  1.00  0.00     0.170 HD
BRANCH   9  13
HETATM   13  C   UNL     1     -42.388  56.814 -55.059  1.00  0.00     0.075 A 
HETATM   14  C   UNL     1     -42.302  58.198 -54.846  1.00  0.00     0.146 A 
HETATM   15  F   UNL     1     -42.200  58.665 -53.590  1.00  0.00    -0.204 F 
HETATM   16  C   UNL     1     -42.311  59.103 -55.899  1.00  0.00     0.086 A 
HETATM   17  C   UNL     1     -42.401  58.615 -57.193  1.00  0.00     0.119 A 
HETATM   18  F   UNL     1     -42.395  59.470 -58.224  1.00  0.00    -0.206 F 
HETATM   19  C   UNL     1     -42.491  57.248 -57.439  1.00  0.00     0.044 A 
HETATM   20  C   UNL     1     -42.491  56.345 -56.370  1.00  0.00     0.036 A 
ENDBRANCH   9  13
ENDBRANCH   4   7
BRANCH   3  21
HETATM   21  C   UNL     1     -40.377  52.370 -52.341  1.00  0.00     0.089 A 
HETATM   22  N   UNL     1     -40.543  52.589 -53.609  1.00  0.00    -0.171 NA
HETATM   23  N   UNL     1     -40.237  51.556 -54.450  1.00  0.00    -0.243 N 
HETATM   24  C   UNL     1     -39.768  50.323 -54.074  1.00  0.00     0.261 A 
HETATM   25  H   UNL     1     -40.350  51.729 -55.443  1.00  0.00     0.192 HD
HETATM   26  O   UNL     1     -39.489  49.435 -54.872  1.00  0.00    -0.267 OA
HETATM   27  C   UNL     1     -39.620  50.106 -52.623  1.00  0.00     0.078 A 
HETATM   28  C   UNL     1     -39.921  51.081 -51.764  1.00  0.00     0.040 A 
ENDBRANCH   3  21
TORSDOF 3
ENDMDL
MODEL 10
REMARK VINA RESULT:      -7.7      4.041      7.064
REMARK  3 active torsions:
REMARK  status: ('A' for Active; 'I' for Inactive)
REMARK    1  A    between atoms: C_3  and  C_4 
REMARK    2  A    between atoms: C_11  and  N_12 
REMARK       I    between atoms: N_12  and  C_13 
REMARK       I    between atoms: C_13  and  N_14 
REMARK    3  A    between atoms: N_14  and  C_15 
ROOT
HETATM    1  C   UNL     1     -40.614  53.361 -53.381  1.00  0.00     0.001 A 
HETATM    2  C   UNL     1     -40.726  54.623 -52.802  1.00  0.00     0.016 A 
HETATM    3  C   UNL     1     -41.751  55.488 -53.206  1.00  0.00     0.021 A 
HETATM    4  C   UNL     1     -42.667  55.102 -54.204  1.00  0.00     0.049 A 
HETATM    5  C   UNL     1     -42.529  53.837 -54.789  1.00  0.00     0.030 A 
HETATM    6  C   UNL     1     -41.515  52.969 -54.371  1.00  0.00     0.002 A 
ENDROOT
BRANCH   4   7
HETATM    7  N   UNL     1     -43.625  56.025 -54.666  1.00  0.00    -0.308 N 
HETATM    8  C   UNL     1     -43.578  56.986 -55.638  1.00  0.00     0.325 C 
HETATM    9  N   UNL     1     -42.523  56.934 -56.503  1.00  0.00    -0.306 N 
HETATM   10  O   UNL     1     -44.544  57.742 -55.732  1.00  0.00    -0.247 OA
HETATM   11  H   UNL     1     -41.805  56.247 -56.323  1.00  0.00     0.171 HD
HETATM   12  H   UNL     1     -44.563  55.946 -54.284  1.00  0.00     0.170 HD
BRANCH   9  13
HETATM   13  C   UNL     1     -42.352  57.654 -57.706  1.00  0.00     0.075 A 
HETATM   14  C   UNL     1     -42.531  56.944 -58.903  1.00  0.00     0.146 A 
HETATM   15  F   UNL     1     -42.817  55.632 -58.852  1.00  0.00    -0.204 F 
HETATM   16  C   UNL     1     -42.430  57.561 -60.143  1.00  0.00     0.086 A 
HETATM   17  C   UNL     1     -42.150  58.918 -60.189  1.00  0.00     0.119 A 
HETATM   18  F   UNL     1     -42.063  59.534 -61.374  1.00  0.00    -0.206 F 
HETATM   19  C   UNL     1     -41.964  59.651 -59.020  1.00  0.00     0.044 A 
HETATM   20  C   UNL     1     -42.058  59.018 -57.776  1.00  0.00     0.036 A 
ENDBRANCH   9  13
ENDBRANCH   4   7
BRANCH   3  21
HETATM   21  C   UNL     1     -41.865  56.781 -52.490  1.00  0.00     0.089 A 
HETATM   22  N   UNL     1     -42.777  56.930 -51.579  1.00  0.00    -0.171 NA
HETATM   23  N   UNL     1     -42.818  58.144 -50.952  1.00  0.00    -0.243 N 
HETATM   24  C   UNL     1     -41.983  59.205 -51.195  1.00  0.00     0.261 A 
HETATM   25  H   UNL     1     -43.519  58.259 -50.228  1.00  0.00     0.192 HD
HETATM   26  O   UNL     1     -42.048  60.268 -50.589  1.00  0.00    -0.267 OA
HETATM   27  C   UNL     1     -40.979  59.003 -52.255  1.00  0.00     0.078 A 
HETATM   28  C   UNL     1     -40.911  57.840 -52.905  1.00  0.00     0.040 A 
ENDBRANCH   3  21
TORSDOF 3
ENDMDL
