MODEL 1
REMARK VINA RESULT:      -8.7      0.000      0.000
REMARK  5 active torsions:
REMARK  status: ('A' for Active; 'I' for Inactive)
REMARK    1  A    between atoms: C_7  and  C_8 
REMARK    2  A    between atoms: N_9  and  N_10 
REMARK       I    between atoms: N_10  and  C_11 
REMARK    3  A    between atoms: C_11  and  C_12 
REMARK    4  A    between atoms: C_12  and  N_13 
REMARK       I    between atoms: N_13  and  C_14 
REMARK    5  A    between atoms: C_14  and  C_15 
ROOT
HETATM    1  N   UNL     1     -42.546  55.930 -53.943  1.00  0.00    -0.246 N 
HETATM    2  C   UNL     1     -42.969  55.805 -55.259  1.00  0.00     0.255 C 
HETATM    3  O   UNL     1     -43.142  54.749 -55.865  1.00  0.00    -0.270 OA
HETATM    4  H   UNL     1     -42.523  56.860 -53.515  1.00  0.00     0.192 HD
ENDROOT
BRANCH   1   5
HETATM    5  N   UNL     1     -42.209  54.827 -53.218  1.00  0.00    -0.184 NA
HETATM    6  C   UNL     1     -40.940  54.632 -53.059  1.00  0.00     0.153 C 
BRANCH   6   7
HETATM    7  C   UNL     1     -40.462  53.470 -52.329  1.00  0.00     0.018 A 
HETATM    8  C   UNL     1     -40.173  53.396 -50.972  1.00  0.00     0.018 A 
HETATM    9  C   UNL     1     -40.252  54.422 -49.895  1.00  0.00     0.069 C 
HETATM   10  N   UNL     1     -39.763  52.115 -50.701  1.00  0.00    -0.358 N 
HETATM   11  H   UNL     1     -39.491  51.775 -49.789  1.00  0.00     0.166 HD
HETATM   12  C   UNL     1     -39.779  51.348 -51.840  1.00  0.00     0.043 A 
HETATM   13  C   UNL     1     -40.211  52.169 -52.881  1.00  0.00     0.004 A 
HETATM   14  C   UNL     1     -39.446  50.000 -52.019  1.00  0.00     0.030 A 
HETATM   15  C   UNL     1     -40.316  51.607 -54.173  1.00  0.00     0.014 A 
HETATM   16  C   UNL     1     -39.988  50.260 -54.371  1.00  0.00     0.001 A 
HETATM   17  C   UNL     1     -39.559  49.471 -53.308  1.00  0.00     0.002 A 
ENDBRANCH   6   7
ENDBRANCH   1   5
BRANCH   2  18
HETATM   18  C   UNL     1     -43.164  57.159 -55.941  1.00  0.00     0.227 C 
BRANCH  18  19
HETATM   19  N   UNL     1     -44.198  57.147 -56.964  1.00  0.00    -0.348 N 
HETATM   20  C   UNL     1     -43.885  57.075 -58.303  1.00  0.00     0.252 C 
HETATM   21  O   UNL     1     -42.731  57.128 -58.716  1.00  0.00    -0.268 OA
HETATM   22  H   UNL     1     -45.143  57.367 -56.678  1.00  0.00     0.163 HD
BRANCH  20  23
HETATM   23  C   UNL     1     -45.034  56.987 -59.243  1.00  0.00     0.032 A 
HETATM   24  C   UNL     1     -45.134  55.870 -60.081  1.00  0.00     0.018 A 
HETATM   25  C   UNL     1     -46.213  55.751 -60.962  1.00  0.00     0.025 A 
HETATM   26  C   UNL     1     -47.196  56.740 -60.992  1.00  0.00     0.034 A 
HETATM   27 CL   UNL     1     -48.529  56.588 -62.068  1.00  0.00    -0.084 Cl
HETATM   28  C   UNL     1     -47.111  57.848 -60.149  1.00  0.00     0.025 A 
HETATM   29  C   UNL     1     -46.030  57.973 -59.271  1.00  0.00     0.018 A 
ENDBRANCH  20  23
ENDBRANCH  18  19
ENDBRANCH   2  18
TORSDOF 5
ENDMDL
MODEL 2
REMARK VINA RESULT:      -8.6      2.075      2.388
REMARK  5 active torsions:
REMARK  status: ('A' for Active; 'I' for Inactive)
REMARK    1  A    between atoms: C_7  and  C_8 
REMARK    2  A    between atoms: N_9  and  N_10 
REMARK       I    between atoms: N_10  and  C_11 
REMARK    3  A    between atoms: C_11  and  C_12 
REMARK    4  A    between atoms: C_12  and  N_13 
REMARK       I    between atoms: N_13  and  C_14 
REMARK    5  A    between atoms: C_14  and  C_15 
ROOT
HETATM    1  N   UNL     1     -41.608  57.302 -54.246  1.00  0.00    -0.246 N 
HETATM    2  C   UNL     1     -41.318  58.657 -54.180  1.00  0.00     0.255 C 
HETATM    3  O   UNL     1     -40.441  59.175 -53.492  1.00  0.00    -0.270 OA
HETATM    4  H   UNL     1     -42.303  56.975 -54.923  1.00  0.00     0.192 HD
ENDROOT
BRANCH   1   5
HETATM    5  N   UNL     1     -40.945  56.414 -53.452  1.00  0.00    -0.184 NA
HETATM    6  C   UNL     1     -41.498  55.251 -53.337  1.00  0.00     0.153 C 
BRANCH   6   7
HETATM    7  C   UNL     1     -40.897  54.233 -52.491  1.00  0.00     0.018 A 
HETATM    8  C   UNL     1     -40.598  54.340 -51.138  1.00  0.00     0.018 A 
HETATM    9  C   UNL     1     -40.784  55.464 -50.179  1.00  0.00     0.069 C 
HETATM   10  N   UNL     1     -40.052  53.148 -50.735  1.00  0.00    -0.358 N 
HETATM   11  H   UNL     1     -39.743  52.941 -49.795  1.00  0.00     0.166 HD
HETATM   12  C   UNL     1     -39.988  52.263 -51.783  1.00  0.00     0.043 A 
HETATM   13  C   UNL     1     -40.508  52.914 -52.901  1.00  0.00     0.004 A 
HETATM   14  C   UNL     1     -39.513  50.946 -51.819  1.00  0.00     0.030 A 
HETATM   15  C   UNL     1     -40.555  52.205 -54.123  1.00  0.00     0.014 A 
HETATM   16  C   UNL     1     -40.085  50.888 -54.177  1.00  0.00     0.001 A 
HETATM   17  C   UNL     1     -39.571  50.270 -53.040  1.00  0.00     0.002 A 
ENDBRANCH   6   7
ENDBRANCH   1   5
BRANCH   2  18
HETATM   18  C   UNL     1     -42.261  59.499 -55.040  1.00  0.00     0.227 C 
BRANCH  18  19
HETATM   19  N   UNL     1     -42.870  58.752 -56.129  1.00  0.00    -0.348 N 
HETATM   20  C   UNL     1     -42.352  58.785 -57.404  1.00  0.00     0.252 C 
HETATM   21  O   UNL     1     -41.425  59.522 -57.722  1.00  0.00    -0.268 OA
HETATM   22  H   UNL     1     -43.784  58.348 -55.967  1.00  0.00     0.163 HD
BRANCH  20  23
HETATM   23  C   UNL     1     -43.019  57.914 -58.408  1.00  0.00     0.032 A 
HETATM   24  C   UNL     1     -42.862  56.527 -58.305  1.00  0.00     0.018 A 
HETATM   25  C   UNL     1     -43.492  55.681 -59.224  1.00  0.00     0.025 A 
HETATM   26  C   UNL     1     -44.288  56.224 -60.231  1.00  0.00     0.034 A 
HETATM   27 CL   UNL     1     -45.073  55.184 -61.355  1.00  0.00    -0.084 Cl
HETATM   28  C   UNL     1     -44.462  57.605 -60.331  1.00  0.00     0.025 A 
HETATM   29  C   UNL     1     -43.828  58.453 -59.418  1.00  0.00     0.018 A 
ENDBRANCH  20  23
ENDBRANCH  18  19
ENDBRANCH   2  18
TORSDOF 5
ENDMDL
MODEL 3
REMARK VINA RESULT:      -8.6      6.975      8.909
REMARK  5 active torsions:
REMARK  status: ('A' for Active; 'I' for Inactive)
REMARK    1  A    between atoms: C_7  and  C_8 
REMARK    2  A    between atoms: N_9  and  N_10 
REMARK       I    between atoms: N_10  and  C_11 
REMARK    3  A    between atoms: C_11  and  C_12 
REMARK    4  A    between atoms: C_12  and  N_13 
REMARK       I    between atoms: N_13  and  C_14 
REMARK    5  A    between atoms: C_14  and  C_15 
ROOT
HETATM    1  N   UNL     1     -42.794  57.608 -50.879  1.00  0.00    -0.246 N 
HETATM    2  C   UNL     1     -44.120  58.008 -50.964  1.00  0.00     0.255 C 
HETATM    3  O   UNL     1     -45.101  57.267 -50.943  1.00  0.00    -0.270 OA
HETATM    4  H   UNL     1     -42.062  58.322 -50.817  1.00  0.00     0.192 HD
ENDROOT
BRANCH   1   5
HETATM    5  N   UNL     1     -42.474  56.284 -50.833  1.00  0.00    -0.184 NA
HETATM    6  C   UNL     1     -41.224  56.008 -51.019  1.00  0.00     0.153 C 
BRANCH   6   7
HETATM    7  C   UNL     1     -40.771  54.627 -51.022  1.00  0.00     0.018 A 
HETATM    8  C   UNL     1     -40.503  53.832 -49.914  1.00  0.00     0.018 A 
HETATM    9  C   UNL     1     -40.585  54.123 -48.456  1.00  0.00     0.069 C 
HETATM   10  N   UNL     1     -40.112  52.599 -50.369  1.00  0.00    -0.358 N 
HETATM   11  H   UNL     1     -39.857  51.818 -49.780  1.00  0.00     0.166 HD
HETATM   12  C   UNL     1     -40.120  52.561 -51.742  1.00  0.00     0.043 A 
HETATM   13  C   UNL     1     -40.527  53.819 -52.184  1.00  0.00     0.004 A 
HETATM   14  C   UNL     1     -39.801  51.513 -52.614  1.00  0.00     0.030 A 
HETATM   15  C   UNL     1     -40.620  54.039 -53.576  1.00  0.00     0.014 A 
HETATM   16  C   UNL     1     -40.305  53.002 -54.463  1.00  0.00     0.001 A 
HETATM   17  C   UNL     1     -39.901  51.758 -53.986  1.00  0.00     0.002 A 
ENDBRANCH   6   7
ENDBRANCH   1   5
BRANCH   2  18
HETATM   18  C   UNL     1     -44.264  59.519 -51.146  1.00  0.00     0.227 C 
BRANCH  18  19
HETATM   19  N   UNL     1     -44.251  60.256 -49.892  1.00  0.00    -0.348 N 
HETATM   20  C   UNL     1     -45.373  60.900 -49.424  1.00  0.00     0.252 C 
HETATM   21  O   UNL     1     -46.408  60.986 -50.077  1.00  0.00    -0.268 OA
HETATM   22  H   UNL     1     -43.352  60.429 -49.460  1.00  0.00     0.163 HD
BRANCH  20  23
HETATM   23  C   UNL     1     -45.252  61.547 -48.091  1.00  0.00     0.032 A 
HETATM   24  C   UNL     1     -45.216  62.945 -48.022  1.00  0.00     0.018 A 
HETATM   25  C   UNL     1     -45.121  63.582 -46.781  1.00  0.00     0.025 A 
HETATM   26  C   UNL     1     -45.077  62.822 -45.613  1.00  0.00     0.034 A 
HETATM   27 CL   UNL     1     -44.971  63.606 -44.086  1.00  0.00    -0.084 Cl
HETATM   28  C   UNL     1     -45.128  61.429 -45.673  1.00  0.00     0.025 A 
HETATM   29  C   UNL     1     -45.217  60.788 -46.912  1.00  0.00     0.018 A 
ENDBRANCH  20  23
ENDBRANCH  18  19
ENDBRANCH   2  18
TORSDOF 5
ENDMDL
MODEL 4
REMARK VINA RESULT:      -8.5      3.737      4.379
REMARK  5 active torsions:
REMARK  status: ('A' for Active; 'I' for Inactive)
REMARK    1  A    between atoms: C_7  and  C_8 
REMARK    2  A    between atoms: N_9  and  N_10 
REMARK       I    between atoms: N_10  and  C_11 
REMARK    3  A    between atoms: C_11  and  C_12 
REMARK    4  A    between atoms: C_12  and  N_13 
REMARK       I    between atoms: N_13  and  C_14 
REMARK    5  A    between atoms: C_14  and  C_15 
ROOT
HETATM    1  N   UNL     1     -41.751  57.682 -54.091  1.00  0.00    -0.246 N 
HETATM    2  C   UNL     1     -41.320  58.991 -53.929  1.00  0.00     0.255 C 
HETATM    3  O   UNL     1     -40.290  59.347 -53.359  1.00  0.00    -0.270 OA
HETATM    4  H   UNL     1     -42.582  57.500 -54.661  1.00  0.00     0.192 HD
ENDROOT
BRANCH   1   5
HETATM    5  N   UNL     1     -41.053  56.652 -53.536  1.00  0.00    -0.184 NA
HETATM    6  C   UNL     1     -41.748  55.838 -52.808  1.00  0.00     0.153 C 
BRANCH   6   7
HETATM    7  C   UNL     1     -41.104  54.719 -52.141  1.00  0.00     0.018 A 
HETATM    8  C   UNL     1     -40.816  54.607 -50.786  1.00  0.00     0.018 A 
HETATM    9  C   UNL     1     -41.058  55.540 -49.651  1.00  0.00     0.069 C 
HETATM   10  N   UNL     1     -40.218  53.389 -50.585  1.00  0.00    -0.358 N 
HETATM   11  H   UNL     1     -39.904  53.038 -49.691  1.00  0.00     0.166 HD
HETATM   12  C   UNL     1     -40.109  52.699 -51.768  1.00  0.00     0.043 A 
HETATM   13  C   UNL     1     -40.654  53.508 -52.765  1.00  0.00     0.004 A 
HETATM   14  C   UNL     1     -39.574  51.430 -52.023  1.00  0.00     0.030 A 
HETATM   15  C   UNL     1     -40.663  53.017 -54.090  1.00  0.00     0.014 A 
HETATM   16  C   UNL     1     -40.132  51.750 -54.363  1.00  0.00     0.001 A 
HETATM   17  C   UNL     1     -39.596  50.971 -53.342  1.00  0.00     0.002 A 
ENDBRANCH   6   7
ENDBRANCH   1   5
BRANCH   2  18
HETATM   18  C   UNL     1     -42.307  60.007 -54.503  1.00  0.00     0.227 C 
BRANCH  18  19
HETATM   19  N   UNL     1     -41.918  60.518 -55.808  1.00  0.00    -0.348 N 
HETATM   20  C   UNL     1     -42.192  59.824 -56.964  1.00  0.00     0.252 C 
HETATM   21  O   UNL     1     -42.676  58.697 -56.960  1.00  0.00    -0.268 OA
HETATM   22  H   UNL     1     -41.287  61.309 -55.832  1.00  0.00     0.163 HD
BRANCH  20  23
HETATM   23  C   UNL     1     -41.815  60.493 -58.237  1.00  0.00     0.032 A 
HETATM   24  C   UNL     1     -41.001  61.631 -58.185  1.00  0.00     0.018 A 
HETATM   25  C   UNL     1     -40.614  62.270 -59.367  1.00  0.00     0.025 A 
HETATM   26  C   UNL     1     -41.030  61.762 -60.597  1.00  0.00     0.034 A 
HETATM   27 CL   UNL     1     -40.546  62.542 -62.052  1.00  0.00    -0.084 Cl
HETATM   28  C   UNL     1     -41.828  60.620 -60.658  1.00  0.00     0.025 A 
HETATM   29  C   UNL     1     -42.222  59.982 -59.478  1.00  0.00     0.018 A 
ENDBRANCH  20  23
ENDBRANCH  18  19
ENDBRANCH   2  18
TORSDOF 5
ENDMDL
MODEL 5
REMARK VINA RESULT:      -8.1      5.883      7.390
REMARK  5 active torsions:
REMARK  status: ('A' for Active; 'I' for Inactive)
REMARK    1  A    between atoms: C_7  and  C_8 
REMARK    2  A    between atoms: N_9  and  N_10 
REMARK       I    between atoms: N_10  and  C_11 
REMARK    3  A    between atoms: C_11  and  C_12 
REMARK    4  A    between atoms: C_12  and  N_13 
REMARK       I    between atoms: N_13  and  C_14 
REMARK    5  A    between atoms: C_14  and  C_15 
ROOT
HETATM    1  N   UNL     1     -41.780  57.779 -53.125  1.00  0.00    -0.246 N 
HETATM    2  C   UNL     1     -41.134  58.995 -53.292  1.00  0.00     0.255 C 
HETATM    3  O   UNL     1     -39.924  59.190 -53.195  1.00  0.00    -0.270 OA
HETATM    4  H   UNL     1     -42.785  57.719 -53.318  1.00  0.00     0.192 HD
ENDROOT
BRANCH   1   5
HETATM    5  N   UNL     1     -41.080  56.671 -52.753  1.00  0.00    -0.184 NA
HETATM    6  C   UNL     1     -41.758  55.772 -52.116  1.00  0.00     0.153 C 
BRANCH   6   7
HETATM    7  C   UNL     1     -41.109  54.561 -51.644  1.00  0.00     0.018 A 
HETATM    8  C   UNL     1     -40.822  54.226 -50.326  1.00  0.00     0.018 A 
HETATM    9  C   UNL     1     -41.071  54.956 -49.052  1.00  0.00     0.069 C 
HETATM   10  N   UNL     1     -40.217  52.995 -50.330  1.00  0.00    -0.358 N 
HETATM   11  H   UNL     1     -39.902  52.502 -49.506  1.00  0.00     0.166 HD
HETATM   12  C   UNL     1     -40.103  52.513 -51.611  1.00  0.00     0.043 A 
HETATM   13  C   UNL     1     -40.651  53.473 -52.460  1.00  0.00     0.004 A 
HETATM   14  C   UNL     1     -39.559  51.307 -52.072  1.00  0.00     0.030 A 
HETATM   15  C   UNL     1     -40.655  53.210 -53.848  1.00  0.00     0.014 A 
HETATM   16  C   UNL     1     -40.117  52.010 -54.328  1.00  0.00     0.001 A 
HETATM   17  C   UNL     1     -39.577  51.074 -53.450  1.00  0.00     0.002 A 
ENDBRANCH   6   7
ENDBRANCH   1   5
BRANCH   2  18
HETATM   18  C   UNL     1     -42.108  60.140 -53.571  1.00  0.00     0.227 C 
BRANCH  18  19
HETATM   19  N   UNL     1     -42.569  60.814 -52.367  1.00  0.00    -0.348 N 
HETATM   20  C   UNL     1     -43.876  60.721 -51.945  1.00  0.00     0.252 C 
HETATM   21  O   UNL     1     -44.747  60.165 -52.607  1.00  0.00    -0.268 OA
HETATM   22  H   UNL     1     -41.949  61.492 -51.943  1.00  0.00     0.163 HD
BRANCH  20  23
HETATM   23  C   UNL     1     -44.200  61.387 -50.656  1.00  0.00     0.032 A 
HETATM   24  C   UNL     1     -44.912  60.670 -49.688  1.00  0.00     0.018 A 
HETATM   25  C   UNL     1     -45.215  61.264 -48.459  1.00  0.00     0.025 A 
HETATM   26  C   UNL     1     -44.792  62.566 -48.196  1.00  0.00     0.034 A 
HETATM   27 CL   UNL     1     -45.155  63.294 -46.680  1.00  0.00    -0.084 Cl
HETATM   28  C   UNL     1     -44.069  63.282 -49.150  1.00  0.00     0.025 A 
HETATM   29  C   UNL     1     -43.769  62.693 -50.382  1.00  0.00     0.018 A 
ENDBRANCH  20  23
ENDBRANCH  18  19
ENDBRANCH   2  18
TORSDOF 5
ENDMDL
MODEL 6
REMARK VINA RESULT:      -8.0      2.245      2.662
REMARK  5 active torsions:
REMARK  status: ('A' for Active; 'I' for Inactive)
REMARK    1  A    between atoms: C_7  and  C_8 
REMARK    2  A    between atoms: N_9  and  N_10 
REMARK       I    between atoms: N_10  and  C_11 
REMARK    3  A    between atoms: C_11  and  C_12 
REMARK    4  A    between atoms: C_12  and  N_13 
REMARK       I    between atoms: N_13  and  C_14 
REMARK    5  A    between atoms: C_14  and  C_15 
ROOT
HETATM    1  N   UNL     1     -41.748  57.582 -53.495  1.00  0.00    -0.246 N 
HETATM    2  C   UNL     1     -41.169  58.825 -53.707  1.00  0.00     0.255 C 
HETATM    3  O   UNL     1     -40.018  59.144 -53.418  1.00  0.00    -0.270 OA
HETATM    4  H   UNL     1     -42.690  57.404 -53.858  1.00  0.00     0.192 HD
ENDROOT
BRANCH   1   5
HETATM    5  N   UNL     1     -41.058  56.599 -52.853  1.00  0.00    -0.184 NA
HETATM    6  C   UNL     1     -41.682  55.473 -52.725  1.00  0.00     0.153 C 
BRANCH   6   7
HETATM    7  C   UNL     1     -41.055  54.362 -52.030  1.00  0.00     0.018 A 
HETATM    8  C   UNL     1     -40.786  54.271 -50.670  1.00  0.00     0.018 A 
HETATM    9  C   UNL     1     -41.037  55.225 -49.555  1.00  0.00     0.069 C 
HETATM   10  N   UNL     1     -40.199  53.053 -50.440  1.00  0.00    -0.358 N 
HETATM   11  H   UNL     1     -39.899  52.715 -49.536  1.00  0.00     0.166 HD
HETATM   12  C   UNL     1     -40.079  52.342 -51.610  1.00  0.00     0.043 A 
HETATM   13  C   UNL     1     -40.604  53.137 -52.628  1.00  0.00     0.004 A 
HETATM   14  C   UNL     1     -39.549  51.065 -51.835  1.00  0.00     0.030 A 
HETATM   15  C   UNL     1     -40.599  52.623 -53.944  1.00  0.00     0.014 A 
HETATM   16  C   UNL     1     -40.073  51.349 -54.188  1.00  0.00     0.001 A 
HETATM   17  C   UNL     1     -39.556  50.583 -53.146  1.00  0.00     0.002 A 
ENDBRANCH   6   7
ENDBRANCH   1   5
BRANCH   2  18
HETATM   18  C   UNL     1     -42.149  59.830 -54.314  1.00  0.00     0.227 C 
BRANCH  18  19
HETATM   19  N   UNL     1     -42.884  59.305 -55.453  1.00  0.00    -0.348 N 
HETATM   20  C   UNL     1     -44.172  58.836 -55.325  1.00  0.00     0.252 C 
HETATM   21  O   UNL     1     -44.732  58.729 -54.239  1.00  0.00    -0.268 OA
HETATM   22  H   UNL     1     -42.367  59.132 -56.305  1.00  0.00     0.163 HD
BRANCH  20  23
HETATM   23  C   UNL     1     -44.841  58.402 -56.579  1.00  0.00     0.032 A 
HETATM   24  C   UNL     1     -44.054  57.912 -57.628  1.00  0.00     0.018 A 
HETATM   25  C   UNL     1     -44.657  57.479 -58.813  1.00  0.00     0.025 A 
HETATM   26  C   UNL     1     -46.045  57.524 -58.940  1.00  0.00     0.034 A 
HETATM   27 CL   UNL     1     -46.789  56.982 -60.394  1.00  0.00    -0.084 Cl
HETATM   28  C   UNL     1     -46.837  57.997 -57.894  1.00  0.00     0.025 A 
HETATM   29  C   UNL     1     -46.237  58.436 -56.710  1.00  0.00     0.018 A 
ENDBRANCH  20  23
ENDBRANCH  18  19
ENDBRANCH   2  18
TORSDOF 5
ENDMDL
MODEL 7
REMARK VINA RESULT:      -8.0      3.898      9.317
REMARK  5 active torsions:
REMARK  status: ('A' for Active; 'I' for Inactive)
REMARK    1  A    between atoms: C_7  and  C_8 
REMARK    2  A    between atoms: N_9  and  N_10 
REMARK       I    between atoms: N_10  and  C_11 
REMARK    3  A    between atoms: C_11  and  C_12 
REMARK    4  A    between atoms: C_12  and  N_13 
REMARK       I    between atoms: N_13  and  C_14 
REMARK    5  A    between atoms: C_14  and  C_15 
ROOT
HETATM    1  N   UNL     1     -43.816  56.342 -55.209  1.00  0.00    -0.246 N 
HETATM    2  C   UNL     1     -43.814  57.106 -54.050  1.00  0.00     0.255 C 
HETATM    3  O   UNL     1     -43.889  58.331 -53.993  1.00  0.00    -0.270 OA
HETATM    4  H   UNL     1     -43.839  55.321 -55.131  1.00  0.00     0.192 HD
ENDROOT
BRANCH   1   5
HETATM    5  N   UNL     1     -43.833  56.943 -56.431  1.00  0.00    -0.184 NA
HETATM    6  C   UNL     1     -42.696  56.984 -57.047  1.00  0.00     0.153 C 
BRANCH   6   7
HETATM    7  C   UNL     1     -42.587  57.627 -58.345  1.00  0.00     0.018 A 
HETATM    8  C   UNL     1     -42.906  57.077 -59.580  1.00  0.00     0.018 A 
HETATM    9  C   UNL     1     -43.426  55.731 -59.949  1.00  0.00     0.069 C 
HETATM   10  N   UNL     1     -42.664  58.029 -60.538  1.00  0.00    -0.358 N 
HETATM   11  H   UNL     1     -42.810  57.904 -61.529  1.00  0.00     0.166 HD
HETATM   12  C   UNL     1     -42.200  59.188 -59.964  1.00  0.00     0.043 A 
HETATM   13  C   UNL     1     -42.138  58.969 -58.589  1.00  0.00     0.004 A 
HETATM   14  C   UNL     1     -41.836  60.402 -60.561  1.00  0.00     0.030 A 
HETATM   15  C   UNL     1     -41.687  60.024 -57.766  1.00  0.00     0.014 A 
HETATM   16  C   UNL     1     -41.319  61.245 -58.344  1.00  0.00     0.001 A 
HETATM   17  C   UNL     1     -41.393  61.428 -59.722  1.00  0.00     0.002 A 
ENDBRANCH   6   7
ENDBRANCH   1   5
BRANCH   2  18
HETATM   18  C   UNL     1     -43.652  56.255 -52.790  1.00  0.00     0.227 C 
BRANCH  18  19
HETATM   19  N   UNL     1     -42.924  55.017 -53.018  1.00  0.00    -0.348 N 
HETATM   20  C   UNL     1     -41.568  54.927 -52.801  1.00  0.00     0.252 C 
HETATM   21  O   UNL     1     -40.879  55.900 -52.512  1.00  0.00    -0.268 OA
HETATM   22  H   UNL     1     -43.407  54.273 -53.506  1.00  0.00     0.163 HD
BRANCH  20  23
HETATM   23  C   UNL     1     -40.959  53.585 -52.993  1.00  0.00     0.032 A 
HETATM   24  C   UNL     1     -40.256  53.007 -51.929  1.00  0.00     0.018 A 
HETATM   25  C   UNL     1     -39.687  51.737 -52.073  1.00  0.00     0.025 A 
HETATM   26  C   UNL     1     -39.835  51.044 -53.274  1.00  0.00     0.034 A 
HETATM   27 CL   UNL     1     -39.146  49.478 -53.449  1.00  0.00    -0.084 Cl
HETATM   28  C   UNL     1     -40.547  51.608 -54.333  1.00  0.00     0.025 A 
HETATM   29  C   UNL     1     -41.112  52.879 -54.194  1.00  0.00     0.018 A 
ENDBRANCH  20  23
ENDBRANCH  18  19
ENDBRANCH   2  18
TORSDOF 5
ENDMDL
MODEL 8
REMARK VINA RESULT:      -7.9      4.439      6.014
REMARK  5 active torsions:
REMARK  status: ('A' for Active; 'I' for Inactive)
REMARK    1  A    between atoms: C_7  and  C_8 
REMARK    2  A    between atoms: N_9  and  N_10 
REMARK       I    between atoms: N_10  and  C_11 
REMARK    3  A    between atoms: C_11  and  C_12 
REMARK    4  A    between atoms: C_12  and  N_13 
REMARK       I    between atoms: N_13  and  C_14 
REMARK    5  A    between atoms: C_14  and  C_15 
ROOT
HETATM    1  N   UNL     1     -41.020  56.456 -54.175  1.00  0.00    -0.246 N 
HETATM    2  C   UNL     1     -42.055  56.518 -55.097  1.00  0.00     0.255 C 
HETATM    3  O   UNL     1     -42.657  55.557 -55.572  1.00  0.00    -0.270 OA
HETATM    4  H   UNL     1     -40.652  57.328 -53.782  1.00  0.00     0.192 HD
ENDROOT
BRANCH   1   5
HETATM    5  N   UNL     1     -40.530  55.252 -53.766  1.00  0.00    -0.184 NA
HETATM    6  C   UNL     1     -40.978  54.826 -52.631  1.00  0.00     0.153 C 
BRANCH   6   7
HETATM    7  C   UNL     1     -40.502  53.568 -52.080  1.00  0.00     0.018 A 
HETATM    8  C   UNL     1     -40.189  53.302 -50.753  1.00  0.00     0.018 A 
HETATM    9  C   UNL     1     -40.233  54.167 -49.542  1.00  0.00     0.069 C 
HETATM   10  N   UNL     1     -39.791  51.991 -50.672  1.00  0.00    -0.358 N 
HETATM   11  H   UNL     1     -39.506  51.524 -49.823  1.00  0.00     0.166 HD
HETATM   12  C   UNL     1     -39.839  51.391 -51.907  1.00  0.00     0.043 A 
HETATM   13  C   UNL     1     -40.280  52.354 -52.813  1.00  0.00     0.004 A 
HETATM   14  C   UNL     1     -39.528  50.078 -52.280  1.00  0.00     0.030 A 
HETATM   15  C   UNL     1     -40.417  51.980 -54.169  1.00  0.00     0.014 A 
HETATM   16  C   UNL     1     -40.111  50.671 -54.560  1.00  0.00     0.001 A 
HETATM   17  C   UNL     1     -39.673  49.735 -53.626  1.00  0.00     0.002 A 
ENDBRANCH   6   7
ENDBRANCH   1   5
BRANCH   2  18
HETATM   18  C   UNL     1     -42.366  57.950 -55.531  1.00  0.00     0.227 C 
BRANCH  18  19
HETATM   19  N   UNL     1     -42.773  58.812 -54.433  1.00  0.00    -0.348 N 
HETATM   20  C   UNL     1     -41.856  59.544 -53.714  1.00  0.00     0.252 C 
HETATM   21  O   UNL     1     -40.645  59.434 -53.879  1.00  0.00    -0.268 OA
HETATM   22  H   UNL     1     -43.724  58.726 -54.097  1.00  0.00     0.163 HD
BRANCH  20  23
HETATM   23  C   UNL     1     -42.408  60.448 -52.671  1.00  0.00     0.032 A 
HETATM   24  C   UNL     1     -42.150  60.160 -51.325  1.00  0.00     0.018 A 
HETATM   25  C   UNL     1     -42.641  61.002 -50.322  1.00  0.00     0.025 A 
HETATM   26  C   UNL     1     -43.375  62.136 -50.668  1.00  0.00     0.034 A 
HETATM   27 CL   UNL     1     -43.969  63.178 -49.435  1.00  0.00    -0.084 Cl
HETATM   28  C   UNL     1     -43.623  62.438 -52.007  1.00  0.00     0.025 A 
HETATM   29  C   UNL     1     -43.139  61.595 -53.012  1.00  0.00     0.018 A 
ENDBRANCH  20  23
ENDBRANCH  18  19
ENDBRANCH   2  18
TORSDOF 5
ENDMDL
MODEL 9
REMARK VINA RESULT:      -7.9     15.634     18.062
REMARK  5 active torsions:
REMARK  status: ('A' for Active; 'I' for Inactive)
REMARK    1  A    between atoms: C_7  and  C_8 
REMARK    2  A    between atoms: N_9  and  N_10 
REMARK       I    between atoms: N_10  and  C_11 
REMARK    3  A    between atoms: C_11  and  C_12 
REMARK    4  A    between atoms: C_12  and  N_13 
REMARK       I    between atoms: N_13  and  C_14 
REMARK    5  A    between atoms: C_14  and  C_15 
ROOT
HETATM    1  N   UNL     1     -38.760  39.507 -51.082  1.00  0.00    -0.246 N 
HETATM    2  C   UNL     1     -38.947  38.172 -50.754  1.00  0.00     0.255 C 
HETATM    3  O   UNL     1     -38.205  37.242 -51.061  1.00  0.00    -0.270 OA
HETATM    4  H   UNL     1     -39.399  40.208 -50.695  1.00  0.00     0.192 HD
ENDROOT
BRANCH   1   5
HETATM    5  N   UNL     1     -37.716  39.884 -51.871  1.00  0.00    -0.184 NA
HETATM    6  C   UNL     1     -37.851  41.025 -52.465  1.00  0.00     0.153 C 
BRANCH   6   7
HETATM    7  C   UNL     1     -36.813  41.516 -53.357  1.00  0.00     0.018 A 
HETATM    8  C   UNL     1     -35.552  41.975 -52.998  1.00  0.00     0.018 A 
HETATM    9  C   UNL     1     -34.898  42.107 -51.667  1.00  0.00     0.069 C 
HETATM   10  N   UNL     1     -34.894  42.330 -54.148  1.00  0.00    -0.358 N 
HETATM   11  H   UNL     1     -33.953  42.696 -54.188  1.00  0.00     0.166 HD
HETATM   12  C   UNL     1     -35.686  42.114 -55.249  1.00  0.00     0.043 A 
HETATM   13  C   UNL     1     -36.899  41.605 -54.787  1.00  0.00     0.004 A 
HETATM   14  C   UNL     1     -35.417  42.329 -56.606  1.00  0.00     0.030 A 
HETATM   15  C   UNL     1     -37.897  41.294 -55.737  1.00  0.00     0.014 A 
HETATM   16  C   UNL     1     -37.645  41.502 -57.099  1.00  0.00     0.001 A 
HETATM   17  C   UNL     1     -36.422  42.012 -57.524  1.00  0.00     0.002 A 
ENDBRANCH   6   7
ENDBRANCH   1   5
BRANCH   2  18
HETATM   18  C   UNL     1     -40.246  37.937 -49.982  1.00  0.00     0.227 C 
BRANCH  18  19
HETATM   19  N   UNL     1     -40.202  38.427 -48.613  1.00  0.00    -0.348 N 
HETATM   20  C   UNL     1     -41.351  38.724 -47.916  1.00  0.00     0.252 C 
HETATM   21  O   UNL     1     -42.463  38.700 -48.434  1.00  0.00    -0.268 OA
HETATM   22  H   UNL     1     -39.302  38.710 -48.246  1.00  0.00     0.163 HD
BRANCH  20  23
HETATM   23  C   UNL     1     -41.173  39.138 -46.500  1.00  0.00     0.032 A 
HETATM   24  C   UNL     1     -40.501  38.275 -45.625  1.00  0.00     0.018 A 
HETATM   25  C   UNL     1     -40.302  38.645 -44.292  1.00  0.00     0.025 A 
HETATM   26  C   UNL     1     -40.762  39.881 -43.840  1.00  0.00     0.034 A 
HETATM   27 CL   UNL     1     -40.508  40.342 -42.202  1.00  0.00    -0.084 Cl
HETATM   28  C   UNL     1     -41.419  40.753 -44.709  1.00  0.00     0.025 A 
HETATM   29  C   UNL     1     -41.625  40.383 -46.042  1.00  0.00     0.018 A 
ENDBRANCH  20  23
ENDBRANCH  18  19
ENDBRANCH   2  18
TORSDOF 5
ENDMDL
MODEL 10
REMARK VINA RESULT:      -7.7      3.508      9.609
REMARK  5 active torsions:
REMARK  status: ('A' for Active; 'I' for Inactive)
REMARK    1  A    between atoms: C_7  and  C_8 
REMARK    2  A    between atoms: N_9  and  N_10 
REMARK       I    between atoms: N_10  and  C_11 
REMARK    3  A    between atoms: C_11  and  C_12 
REMARK    4  A    between atoms: C_12  and  N_13 
REMARK       I    between atoms: N_13  and  C_14 
REMARK    5  A    between atoms: C_14  and  C_15 
ROOT
HETATM    1  N   UNL     1     -43.066  57.472 -54.910  1.00  0.00    -0.246 N 
HETATM    2  C   UNL     1     -42.023  58.156 -54.303  1.00  0.00     0.255 C 
HETATM    3  O   UNL     1     -41.514  59.200 -54.704  1.00  0.00    -0.270 OA
HETATM    4  H   UNL     1     -43.469  56.657 -54.436  1.00  0.00     0.192 HD
ENDROOT
BRANCH   1   5
HETATM    5  N   UNL     1     -43.577  57.903 -56.097  1.00  0.00    -0.184 NA
HETATM    6  C   UNL     1     -43.755  56.985 -56.992  1.00  0.00     0.153 C 
BRANCH   6   7
HETATM    7  C   UNL     1     -44.266  57.333 -58.307  1.00  0.00     0.018 A 
HETATM    8  C   UNL     1     -43.702  57.010 -59.535  1.00  0.00     0.018 A 
HETATM    9  C   UNL     1     -42.468  56.251 -59.878  1.00  0.00     0.069 C 
HETATM   10  N   UNL     1     -44.512  57.524 -60.515  1.00  0.00    -0.358 N 
HETATM   11  H   UNL     1     -44.346  57.437 -61.508  1.00  0.00     0.166 HD
HETATM   12  C   UNL     1     -45.591  58.172 -59.965  1.00  0.00     0.043 A 
HETATM   13  C   UNL     1     -45.466  58.072 -58.580  1.00  0.00     0.004 A 
HETATM   14  C   UNL     1     -46.658  58.830 -60.589  1.00  0.00     0.030 A 
HETATM   15  C   UNL     1     -46.465  58.665 -57.776  1.00  0.00     0.014 A 
HETATM   16  C   UNL     1     -47.540  59.326 -58.383  1.00  0.00     0.001 A 
HETATM   17  C   UNL     1     -47.632  59.407 -59.770  1.00  0.00     0.002 A 
ENDBRANCH   6   7
ENDBRANCH   1   5
BRANCH   2  18
HETATM   18  C   UNL     1     -41.501  57.439 -53.057  1.00  0.00     0.227 C 
BRANCH  18  19
HETATM   19  N   UNL     1     -41.038  56.086 -53.320  1.00  0.00    -0.348 N 
HETATM   20  C   UNL     1     -40.987  55.136 -52.326  1.00  0.00     0.252 C 
HETATM   21  O   UNL     1     -41.218  55.397 -51.150  1.00  0.00    -0.268 OA
HETATM   22  H   UNL     1     -40.592  55.908 -54.211  1.00  0.00     0.163 HD
BRANCH  20  23
HETATM   23  C   UNL     1     -40.574  53.770 -52.742  1.00  0.00     0.032 A 
HETATM   24  C   UNL     1     -40.055  52.899 -51.776  1.00  0.00     0.018 A 
HETATM   25  C   UNL     1     -39.676  51.602 -52.134  1.00  0.00     0.025 A 
HETATM   26  C   UNL     1     -39.830  51.174 -53.452  1.00  0.00     0.034 A 
HETATM   27 CL   UNL     1     -39.374  49.574 -53.891  1.00  0.00    -0.084 Cl
HETATM   28  C   UNL     1     -40.361  52.030 -54.417  1.00  0.00     0.025 A 
HETATM   29  C   UNL     1     -40.735  53.330 -54.064  1.00  0.00     0.018 A 
ENDBRANCH  20  23
ENDBRANCH  18  19
ENDBRANCH   2  18
TORSDOF 5
ENDMDL
