MODEL 1
REMARK VINA RESULT:      -7.2      0.000      0.000
REMARK  8 active torsions:
REMARK  status: ('A' for Active; 'I' for Inactive)
REMARK    1  A    between atoms: C_2  and  C_3 
REMARK    2  A    between atoms: C_6  and  C_7 
REMARK       I    between atoms: C_7  and  N_8 
REMARK    3  A    between atoms: C_12  and  O_13 
REMARK    4  A    between atoms: O_13  and  C_14 
REMARK    5  A    between atoms: C_14  and  C_15 
REMARK    6  A    between atoms: C_15  and  O_16 
REMARK    7  A    between atoms: C_18  and  N_19 
REMARK       I    between atoms: N_19  and  C_20 
REMARK    8  A    between atoms: C_20  and  C_21 
ROOT
HETATM    1  C   UNL     1     -43.357  59.056 -57.524  1.00  0.00     0.274 C 
HETATM    2  N   UNL     1     -43.464  58.833 -56.143  1.00  0.00    -0.347 N 
HETATM    3  C   UNL     1     -43.277  57.547 -55.468  1.00  0.00     0.127 C 
HETATM    4  C   UNL     1     -42.234  57.675 -54.361  1.00  0.00     0.037 C 
HETATM    5  C   UNL     1     -42.566  58.800 -53.356  1.00  0.00     0.019 C 
HETATM    6  C   UNL     1     -43.796  58.475 -52.417  1.00  0.00     0.162 C 
HETATM    7  C   UNL     1     -43.384  58.863 -50.957  1.00  0.00     0.148 C 
HETATM    8  C   UNL     1     -41.889  58.964 -51.042  1.00  0.00    -0.026 A 
HETATM    9  C   UNL     1     -41.434  58.968 -52.359  1.00  0.00    -0.038 A 
HETATM   10  C   UNL     1     -41.006  59.096 -49.975  1.00  0.00     0.010 A 
HETATM   11  C   UNL     1     -39.645  59.245 -50.242  1.00  0.00     0.001 A 
HETATM   12  C   UNL     1     -39.185  59.269 -51.563  1.00  0.00     0.001 A 
HETATM   13  C   UNL     1     -40.078  59.131 -52.628  1.00  0.00     0.009 A 
HETATM   14  C   UNL     1     -42.790  60.118 -54.133  1.00  0.00     0.037 C 
HETATM   15  C   UNL     1     -43.803  59.952 -55.269  1.00  0.00     0.127 C 
HETATM   16  O   UNL     1     -43.301  60.202 -57.976  1.00  0.00    -0.266 OA
ENDROOT
BRANCH   6  17
HETATM   17  O   UNL     1     -44.120  57.070 -52.497  1.00  0.00    -0.380 OA
BRANCH  17  18
HETATM   18  C   UNL     1     -43.999  56.397 -51.240  1.00  0.00     0.194 C 
BRANCH  18  19
HETATM   19  C   UNL     1     -42.977  55.271 -51.366  1.00  0.00     0.193 C 
BRANCH  19  20
HETATM   20  O   UNL     1     -43.362  54.399 -52.427  1.00  0.00    -0.394 OA
HETATM   21  C   UNL     1     -42.242  53.972 -53.190  1.00  0.00     0.201 C 
ENDBRANCH  19  20
ENDBRANCH  18  19
ENDBRANCH  17  18
ENDBRANCH   6  17
BRANCH   7  22
HETATM   22  N   UNL     1     -43.930  60.122 -50.474  1.00  0.00    -0.350 N 
HETATM   23  C   UNL     1     -45.125  60.175 -49.801  1.00  0.00     0.221 C 
HETATM   24  O   UNL     1     -45.911  59.233 -49.764  1.00  0.00    -0.273 OA
HETATM   25  H   UNL     1     -43.276  60.885 -50.355  1.00  0.00     0.163 HD
BRANCH  23  26
HETATM   26  C   UNL     1     -45.395  61.467 -49.039  1.00  0.00     0.070 C 
HETATM   27  C   UNL     1     -45.454  61.190 -47.539  1.00  0.00     0.019 C 
HETATM   28  C   UNL     1     -44.377  62.555 -49.366  1.00  0.00     0.019 C 
ENDBRANCH  23  26
ENDBRANCH   7  22
BRANCH   1  29
HETATM   29  C   UNL     1     -43.279  57.917 -58.454  1.00  0.00     0.154 A 
HETATM   30  N   UNL     1     -42.142  57.491 -59.028  1.00  0.00    -0.123 NA
HETATM   31  O   UNL     1     -42.484  56.408 -59.814  1.00  0.00    -0.217 OA
HETATM   32  C   UNL     1     -43.810  56.144 -59.675  1.00  0.00     0.084 A 
HETATM   33  C   UNL     1     -44.355  57.055 -58.806  1.00  0.00     0.075 A 
BRANCH  32  34
HETATM   34  C   UNL     1     -44.365  55.000 -60.453  1.00  0.00     0.037 C 
HETATM   35  C   UNL     1     -45.608  55.405 -61.246  1.00  0.00     0.016 C 
HETATM   36  C   UNL     1     -44.673  53.819 -59.531  1.00  0.00     0.016 C 
ENDBRANCH  32  34
ENDBRANCH   1  29
TORSDOF 8
ENDMDL
MODEL 2
REMARK VINA RESULT:      -7.1      3.393      5.188
REMARK  8 active torsions:
REMARK  status: ('A' for Active; 'I' for Inactive)
REMARK    1  A    between atoms: C_2  and  C_3 
REMARK    2  A    between atoms: C_6  and  C_7 
REMARK       I    between atoms: C_7  and  N_8 
REMARK    3  A    between atoms: C_12  and  O_13 
REMARK    4  A    between atoms: O_13  and  C_14 
REMARK    5  A    between atoms: C_14  and  C_15 
REMARK    6  A    between atoms: C_15  and  O_16 
REMARK    7  A    between atoms: C_18  and  N_19 
REMARK       I    between atoms: N_19  and  C_20 
REMARK    8  A    between atoms: C_20  and  C_21 
ROOT
HETATM    1  C   UNL     1     -43.153  55.121 -54.096  1.00  0.00     0.274 C 
HETATM    2  N   UNL     1     -42.969  56.444 -53.665  1.00  0.00    -0.347 N 
HETATM    3  C   UNL     1     -41.693  57.160 -53.624  1.00  0.00     0.127 C 
HETATM    4  C   UNL     1     -41.796  58.474 -54.393  1.00  0.00     0.037 C 
HETATM    5  C   UNL     1     -42.960  59.363 -53.902  1.00  0.00     0.019 C 
HETATM    6  C   UNL     1     -42.720  60.000 -52.475  1.00  0.00     0.162 C 
HETATM    7  C   UNL     1     -43.122  61.510 -52.564  1.00  0.00     0.148 C 
HETATM    8  C   UNL     1     -43.148  61.768 -54.042  1.00  0.00    -0.026 A 
HETATM    9  C   UNL     1     -43.097  60.590 -54.785  1.00  0.00    -0.038 A 
HETATM   10  C   UNL     1     -43.262  63.007 -54.664  1.00  0.00     0.010 A 
HETATM   11  C   UNL     1     -43.337  63.057 -56.056  1.00  0.00     0.001 A 
HETATM   12  C   UNL     1     -43.306  61.876 -56.806  1.00  0.00     0.001 A 
HETATM   13  C   UNL     1     -43.186  60.636 -56.173  1.00  0.00     0.009 A 
HETATM   14  C   UNL     1     -44.268  58.539 -53.932  1.00  0.00     0.037 C 
HETATM   15  C   UNL     1     -44.125  57.203 -53.197  1.00  0.00     0.127 C 
HETATM   16  O   UNL     1     -44.283  54.680 -54.315  1.00  0.00    -0.266 OA
ENDROOT
BRANCH   6  17
HETATM   17  O   UNL     1     -41.331  59.866 -52.102  1.00  0.00    -0.380 OA
BRANCH  17  18
HETATM   18  C   UNL     1     -41.152  59.573 -50.714  1.00  0.00     0.194 C 
BRANCH  18  19
HETATM   19  C   UNL     1     -40.455  58.224 -50.568  1.00  0.00     0.193 C 
BRANCH  19  20
HETATM   20  O   UNL     1     -41.399  57.247 -50.134  1.00  0.00    -0.394 OA
HETATM   21  C   UNL     1     -40.848  55.938 -50.152  1.00  0.00     0.201 C 
ENDBRANCH  19  20
ENDBRANCH  18  19
ENDBRANCH  17  18
ENDBRANCH   6  17
BRANCH   7  22
HETATM   22  N   UNL     1     -44.419  61.839 -51.991  1.00  0.00    -0.350 N 
HETATM   23  C   UNL     1     -44.535  62.326 -50.713  1.00  0.00     0.221 C 
HETATM   24  O   UNL     1     -43.614  62.298 -49.902  1.00  0.00    -0.273 OA
HETATM   25  H   UNL     1     -45.173  62.013 -52.642  1.00  0.00     0.163 HD
BRANCH  23  26
HETATM   26  C   UNL     1     -45.875  62.970 -50.373  1.00  0.00     0.070 C 
HETATM   27  C   UNL     1     -46.878  62.716 -51.497  1.00  0.00     0.019 C 
HETATM   28  C   UNL     1     -46.416  62.503 -49.026  1.00  0.00     0.019 C 
ENDBRANCH  23  26
ENDBRANCH   7  22
BRANCH   1  29
HETATM   29  C   UNL     1     -41.989  54.249 -54.322  1.00  0.00     0.154 A 
HETATM   30  N   UNL     1     -41.174  54.343 -55.386  1.00  0.00    -0.123 NA
HETATM   31  O   UNL     1     -40.212  53.366 -55.226  1.00  0.00    -0.217 OA
HETATM   32  C   UNL     1     -40.407  52.719 -54.047  1.00  0.00     0.084 A 
HETATM   33  C   UNL     1     -41.506  53.257 -53.424  1.00  0.00     0.075 A 
BRANCH  32  34
HETATM   34  C   UNL     1     -39.457  51.624 -53.699  1.00  0.00     0.037 C 
HETATM   35  C   UNL     1     -39.841  50.308 -54.374  1.00  0.00     0.016 C 
HETATM   36  C   UNL     1     -39.366  51.449 -52.183  1.00  0.00     0.016 C 
ENDBRANCH  32  34
ENDBRANCH   1  29
TORSDOF 8
ENDMDL
MODEL 3
REMARK VINA RESULT:      -7.0      2.152      8.830
REMARK  8 active torsions:
REMARK  status: ('A' for Active; 'I' for Inactive)
REMARK    1  A    between atoms: C_2  and  C_3 
REMARK    2  A    between atoms: C_6  and  C_7 
REMARK       I    between atoms: C_7  and  N_8 
REMARK    3  A    between atoms: C_12  and  O_13 
REMARK    4  A    between atoms: O_13  and  C_14 
REMARK    5  A    between atoms: C_14  and  C_15 
REMARK    6  A    between atoms: C_15  and  O_16 
REMARK    7  A    between atoms: C_18  and  N_19 
REMARK       I    between atoms: N_19  and  C_20 
REMARK    8  A    between atoms: C_20  and  C_21 
ROOT
HETATM    1  C   UNL     1     -45.608  59.456 -50.556  1.00  0.00     0.274 C 
HETATM    2  N   UNL     1     -44.717  59.126 -51.589  1.00  0.00    -0.347 N 
HETATM    3  C   UNL     1     -43.309  59.521 -51.662  1.00  0.00     0.127 C 
HETATM    4  C   UNL     1     -42.422  58.294 -51.849  1.00  0.00     0.037 C 
HETATM    5  C   UNL     1     -42.834  57.440 -53.068  1.00  0.00     0.019 C 
HETATM    6  C   UNL     1     -42.513  58.116 -54.461  1.00  0.00     0.162 C 
HETATM    7  C   UNL     1     -41.854  57.025 -55.369  1.00  0.00     0.148 C 
HETATM    8  C   UNL     1     -41.441  55.969 -54.385  1.00  0.00    -0.026 A 
HETATM    9  C   UNL     1     -42.007  56.169 -53.127  1.00  0.00    -0.038 A 
HETATM   10  C   UNL     1     -40.636  54.865 -54.645  1.00  0.00     0.010 A 
HETATM   11  C   UNL     1     -40.407  53.943 -53.624  1.00  0.00     0.001 A 
HETATM   12  C   UNL     1     -40.988  54.128 -52.365  1.00  0.00     0.001 A 
HETATM   13  C   UNL     1     -41.791  55.243 -52.111  1.00  0.00     0.009 A 
HETATM   14  C   UNL     1     -44.336  57.090 -52.951  1.00  0.00     0.037 C 
HETATM   15  C   UNL     1     -45.201  58.331 -52.714  1.00  0.00     0.127 C 
HETATM   16  O   UNL     1     -46.700  58.892 -50.460  1.00  0.00    -0.266 OA
ENDROOT
BRANCH   6  17
HETATM   17  O   UNL     1     -41.615  59.231 -54.272  1.00  0.00    -0.380 OA
BRANCH  17  18
HETATM   18  C   UNL     1     -41.916  60.340 -55.124  1.00  0.00     0.194 C 
BRANCH  18  19
HETATM   19  C   UNL     1     -43.422  60.583 -55.124  1.00  0.00     0.193 C 
BRANCH  19  20
HETATM   20  O   UNL     1     -43.676  61.987 -55.115  1.00  0.00    -0.394 OA
HETATM   21  C   UNL     1     -43.386  62.566 -53.851  1.00  0.00     0.201 C 
ENDBRANCH  19  20
ENDBRANCH  18  19
ENDBRANCH  17  18
ENDBRANCH   6  17
BRANCH   7  22
HETATM   22  N   UNL     1     -42.733  56.440 -56.370  1.00  0.00    -0.350 N 
HETATM   23  C   UNL     1     -42.936  57.042 -57.586  1.00  0.00     0.221 C 
HETATM   24  O   UNL     1     -42.594  58.197 -57.824  1.00  0.00    -0.273 OA
HETATM   25  H   UNL     1     -42.921  55.449 -56.286  1.00  0.00     0.163 HD
BRANCH  23  26
HETATM   26  C   UNL     1     -43.565  56.162 -58.660  1.00  0.00     0.070 C 
HETATM   27  C   UNL     1     -44.895  56.759 -59.116  1.00  0.00     0.019 C 
HETATM   28  C   UNL     1     -42.626  55.925 -59.838  1.00  0.00     0.019 C 
ENDBRANCH  23  26
ENDBRANCH   7  22
BRANCH   1  29
HETATM   29  C   UNL     1     -45.233  60.464 -49.550  1.00  0.00     0.154 A 
HETATM   30  N   UNL     1     -44.628  61.628 -49.840  1.00  0.00    -0.123 NA
HETATM   31  O   UNL     1     -44.459  62.288 -48.640  1.00  0.00    -0.217 OA
HETATM   32  C   UNL     1     -45.006  61.556 -47.633  1.00  0.00     0.084 A 
HETATM   33  C   UNL     1     -45.532  60.403 -48.160  1.00  0.00     0.075 A 
BRANCH  32  34
HETATM   34  C   UNL     1     -44.920  62.115 -46.254  1.00  0.00     0.037 C 
HETATM   35  C   UNL     1     -44.643  61.025 -45.219  1.00  0.00     0.016 C 
HETATM   36  C   UNL     1     -46.193  62.885 -45.903  1.00  0.00     0.016 C 
ENDBRANCH  32  34
ENDBRANCH   1  29
TORSDOF 8
ENDMDL
MODEL 4
REMARK VINA RESULT:      -7.0      3.463      8.016
REMARK  8 active torsions:
REMARK  status: ('A' for Active; 'I' for Inactive)
REMARK    1  A    between atoms: C_2  and  C_3 
REMARK    2  A    between atoms: C_6  and  C_7 
REMARK       I    between atoms: C_7  and  N_8 
REMARK    3  A    between atoms: C_12  and  O_13 
REMARK    4  A    between atoms: O_13  and  C_14 
REMARK    5  A    between atoms: C_14  and  C_15 
REMARK    6  A    between atoms: C_15  and  O_16 
REMARK    7  A    between atoms: C_18  and  N_19 
REMARK       I    between atoms: N_19  and  C_20 
REMARK    8  A    between atoms: C_20  and  C_21 
ROOT
HETATM    1  C   UNL     1     -42.004  56.707 -53.144  1.00  0.00     0.274 C 
HETATM    2  N   UNL     1     -42.113  57.222 -54.445  1.00  0.00    -0.347 N 
HETATM    3  C   UNL     1     -42.136  56.432 -55.677  1.00  0.00     0.127 C 
HETATM    4  C   UNL     1     -43.371  56.775 -56.505  1.00  0.00     0.037 C 
HETATM    5  C   UNL     1     -43.492  58.286 -56.799  1.00  0.00     0.019 C 
HETATM    6  C   UNL     1     -42.421  58.824 -57.830  1.00  0.00     0.162 C 
HETATM    7  C   UNL     1     -43.177  59.733 -58.856  1.00  0.00     0.148 C 
HETATM    8  C   UNL     1     -44.613  59.348 -58.657  1.00  0.00    -0.026 A 
HETATM    9  C   UNL     1     -44.801  58.584 -57.507  1.00  0.00    -0.038 A 
HETATM   10  C   UNL     1     -45.689  59.721 -59.457  1.00  0.00     0.010 A 
HETATM   11  C   UNL     1     -46.974  59.325 -59.085  1.00  0.00     0.001 A 
HETATM   12  C   UNL     1     -47.170  58.574 -57.921  1.00  0.00     0.001 A 
HETATM   13  C   UNL     1     -46.084  58.200 -57.127  1.00  0.00     0.009 A 
HETATM   14  C   UNL     1     -43.422  59.064 -55.465  1.00  0.00     0.037 C 
HETATM   15  C   UNL     1     -42.202  58.668 -54.629  1.00  0.00     0.127 C 
HETATM   16  O   UNL     1     -42.225  57.420 -52.163  1.00  0.00    -0.266 OA
ENDROOT
BRANCH   6  17
HETATM   17  O   UNL     1     -41.786  57.717 -58.505  1.00  0.00    -0.380 OA
BRANCH  17  18
HETATM   18  C   UNL     1     -42.136  57.631 -59.889  1.00  0.00     0.194 C 
BRANCH  18  19
HETATM   19  C   UNL     1     -42.816  56.291 -60.156  1.00  0.00     0.193 C 
BRANCH  19  20
HETATM   20  O   UNL     1     -44.081  56.516 -60.774  1.00  0.00    -0.394 OA
HETATM   21  C   UNL     1     -45.131  55.857 -60.080  1.00  0.00     0.201 C 
ENDBRANCH  19  20
ENDBRANCH  18  19
ENDBRANCH  17  18
ENDBRANCH   6  17
BRANCH   7  22
HETATM   22  N   UNL     1     -43.024  61.165 -58.645  1.00  0.00    -0.350 N 
HETATM   23  C   UNL     1     -42.183  61.920 -59.425  1.00  0.00     0.221 C 
HETATM   24  O   UNL     1     -41.349  61.425 -60.177  1.00  0.00    -0.273 OA
HETATM   25  H   UNL     1     -43.771  61.634 -58.149  1.00  0.00     0.163 HD
BRANCH  23  26
HETATM   26  C   UNL     1     -42.392  63.428 -59.348  1.00  0.00     0.070 C 
HETATM   27  C   UNL     1     -43.859  63.768 -59.600  1.00  0.00     0.019 C 
HETATM   28  C   UNL     1     -41.902  64.014 -58.028  1.00  0.00     0.019 C 
ENDBRANCH  23  26
ENDBRANCH   7  22
BRANCH   1  29
HETATM   29  C   UNL     1     -41.651  55.293 -52.935  1.00  0.00     0.154 A 
HETATM   30  N   UNL     1     -42.393  54.431 -52.219  1.00  0.00    -0.123 NA
HETATM   31  O   UNL     1     -41.735  53.218 -52.270  1.00  0.00    -0.217 OA
HETATM   32  C   UNL     1     -40.632  53.327 -53.056  1.00  0.00     0.084 A 
HETATM   33  C   UNL     1     -40.547  54.616 -53.522  1.00  0.00     0.075 A 
BRANCH  32  34
HETATM   34  C   UNL     1     -39.792  52.109 -53.232  1.00  0.00     0.037 C 
HETATM   35  C   UNL     1     -40.412  51.134 -54.232  1.00  0.00     0.016 C 
HETATM   36  C   UNL     1     -39.549  51.422 -51.887  1.00  0.00     0.016 C 
ENDBRANCH  32  34
ENDBRANCH   1  29
TORSDOF 8
ENDMDL
MODEL 5
REMARK VINA RESULT:      -7.0      2.205      4.376
REMARK  8 active torsions:
REMARK  status: ('A' for Active; 'I' for Inactive)
REMARK    1  A    between atoms: C_2  and  C_3 
REMARK    2  A    between atoms: C_6  and  C_7 
REMARK       I    between atoms: C_7  and  N_8 
REMARK    3  A    between atoms: C_12  and  O_13 
REMARK    4  A    between atoms: O_13  and  C_14 
REMARK    5  A    between atoms: C_14  and  C_15 
REMARK    6  A    between atoms: C_15  and  O_16 
REMARK    7  A    between atoms: C_18  and  N_19 
REMARK       I    between atoms: N_19  and  C_20 
REMARK    8  A    between atoms: C_20  and  C_21 
ROOT
HETATM    1  C   UNL     1     -42.798  57.271 -57.891  1.00  0.00     0.274 C 
HETATM    2  N   UNL     1     -42.802  56.969 -56.520  1.00  0.00    -0.347 N 
HETATM    3  C   UNL     1     -43.800  56.153 -55.828  1.00  0.00     0.127 C 
HETATM    4  C   UNL     1     -43.121  55.020 -55.062  1.00  0.00     0.037 C 
HETATM    5  C   UNL     1     -42.031  55.525 -54.092  1.00  0.00     0.019 C 
HETATM    6  C   UNL     1     -42.601  56.288 -52.830  1.00  0.00     0.162 C 
HETATM    7  C   UNL     1     -41.845  55.740 -51.573  1.00  0.00     0.148 C 
HETATM    8  C   UNL     1     -41.238  54.462 -52.072  1.00  0.00    -0.026 A 
HETATM    9  C   UNL     1     -41.302  54.353 -53.460  1.00  0.00    -0.038 A 
HETATM   10  C   UNL     1     -40.620  53.483 -51.301  1.00  0.00     0.010 A 
HETATM   11  C   UNL     1     -40.047  52.384 -51.941  1.00  0.00     0.001 A 
HETATM   12  C   UNL     1     -40.091  52.279 -53.336  1.00  0.00     0.001 A 
HETATM   13  C   UNL     1     -40.720  53.264 -54.102  1.00  0.00     0.009 A 
HETATM   14  C   UNL     1     -41.033  56.410 -54.875  1.00  0.00     0.037 C 
HETATM   15  C   UNL     1     -41.740  57.508 -55.674  1.00  0.00     0.127 C 
HETATM   16  O   UNL     1     -41.804  57.765 -58.426  1.00  0.00    -0.266 OA
ENDROOT
BRANCH   6  17
HETATM   17  O   UNL     1     -44.020  56.052 -52.712  1.00  0.00    -0.380 OA
BRANCH  17  18
HETATM   18  C   UNL     1     -44.773  57.256 -52.538  1.00  0.00     0.194 C 
BRANCH  18  19
HETATM   19  C   UNL     1     -44.722  57.677 -51.072  1.00  0.00     0.193 C 
BRANCH  19  20
HETATM   20  O   UNL     1     -45.962  58.281 -50.709  1.00  0.00    -0.394 OA
HETATM   21  C   UNL     1     -45.940  59.688 -50.903  1.00  0.00     0.201 C 
ENDBRANCH  19  20
ENDBRANCH  18  19
ENDBRANCH  17  18
ENDBRANCH   6  17
BRANCH   7  22
HETATM   22  N   UNL     1     -40.797  56.607 -51.055  1.00  0.00    -0.350 N 
HETATM   23  C   UNL     1     -40.772  57.950 -51.339  1.00  0.00     0.221 C 
HETATM   24  O   UNL     1     -41.468  58.460 -52.211  1.00  0.00    -0.273 OA
HETATM   25  H   UNL     1     -40.296  56.277 -50.241  1.00  0.00     0.163 HD
BRANCH  23  26
HETATM   26  C   UNL     1     -39.860  58.791 -50.453  1.00  0.00     0.070 C 
HETATM   27  C   UNL     1     -38.593  59.172 -51.215  1.00  0.00     0.019 C 
HETATM   28  C   UNL     1     -40.569  60.023 -49.898  1.00  0.00     0.019 C 
ENDBRANCH  23  26
ENDBRANCH   7  22
BRANCH   1  29
HETATM   29  C   UNL     1     -43.979  56.970 -58.717  1.00  0.00     0.154 A 
HETATM   30  N   UNL     1     -44.173  55.804 -59.355  1.00  0.00    -0.123 NA
HETATM   31  O   UNL     1     -45.387  55.913 -60.005  1.00  0.00    -0.217 OA
HETATM   32  C   UNL     1     -45.952  57.116 -59.719  1.00  0.00     0.084 A 
HETATM   33  C   UNL     1     -45.112  57.813 -58.887  1.00  0.00     0.075 A 
BRANCH  32  34
HETATM   34  C   UNL     1     -47.277  57.414 -60.334  1.00  0.00     0.037 C 
HETATM   35  C   UNL     1     -47.592  56.460 -61.486  1.00  0.00     0.016 C 
HETATM   36  C   UNL     1     -47.339  58.868 -60.804  1.00  0.00     0.016 C 
ENDBRANCH  32  34
ENDBRANCH   1  29
TORSDOF 8
ENDMDL
MODEL 6
REMARK VINA RESULT:      -6.7      3.501      6.364
REMARK  8 active torsions:
REMARK  status: ('A' for Active; 'I' for Inactive)
REMARK    1  A    between atoms: C_2  and  C_3 
REMARK    2  A    between atoms: C_6  and  C_7 
REMARK       I    between atoms: C_7  and  N_8 
REMARK    3  A    between atoms: C_12  and  O_13 
REMARK    4  A    between atoms: O_13  and  C_14 
REMARK    5  A    between atoms: C_14  and  C_15 
REMARK    6  A    between atoms: C_15  and  O_16 
REMARK    7  A    between atoms: C_18  and  N_19 
REMARK       I    between atoms: N_19  and  C_20 
REMARK    8  A    between atoms: C_20  and  C_21 
ROOT
HETATM    1  C   UNL     1     -43.233  54.861 -53.917  1.00  0.00     0.274 C 
HETATM    2  N   UNL     1     -43.110  56.259 -53.941  1.00  0.00    -0.347 N 
HETATM    3  C   UNL     1     -41.885  57.013 -53.674  1.00  0.00     0.127 C 
HETATM    4  C   UNL     1     -41.581  57.960 -54.831  1.00  0.00     0.037 C 
HETATM    5  C   UNL     1     -42.763  58.898 -55.161  1.00  0.00     0.019 C 
HETATM    6  C   UNL     1     -43.018  60.013 -54.069  1.00  0.00     0.162 C 
HETATM    7  C   UNL     1     -43.227  61.367 -54.826  1.00  0.00     0.148 C 
HETATM    8  C   UNL     1     -42.678  61.081 -56.193  1.00  0.00    -0.026 A 
HETATM    9  C   UNL     1     -42.456  59.721 -56.399  1.00  0.00    -0.038 A 
HETATM   10  C   UNL     1     -42.445  62.009 -57.203  1.00  0.00     0.010 A 
HETATM   11  C   UNL     1     -41.992  61.557 -58.442  1.00  0.00     0.001 A 
HETATM   12  C   UNL     1     -41.785  60.190 -58.660  1.00  0.00     0.001 A 
HETATM   13  C   UNL     1     -42.016  59.266 -57.638  1.00  0.00     0.009 A 
HETATM   14  C   UNL     1     -44.032  58.044 -55.393  1.00  0.00     0.037 C 
HETATM   15  C   UNL     1     -44.288  57.068 -54.242  1.00  0.00     0.127 C 
HETATM   16  O   UNL     1     -44.234  54.307 -54.378  1.00  0.00    -0.266 OA
ENDROOT
BRANCH   6  17
HETATM   17  O   UNL     1     -41.885  60.099 -53.178  1.00  0.00    -0.380 OA
BRANCH  17  18
HETATM   18  C   UNL     1     -42.263  60.287 -51.812  1.00  0.00     0.194 C 
BRANCH  18  19
HETATM   19  C   UNL     1     -41.460  59.336 -50.930  1.00  0.00     0.193 C 
BRANCH  19  20
HETATM   20  O   UNL     1     -40.132  59.226 -51.438  1.00  0.00    -0.394 OA
HETATM   21  C   UNL     1     -39.166  59.627 -50.476  1.00  0.00     0.201 C 
ENDBRANCH  19  20
ENDBRANCH  18  19
ENDBRANCH  17  18
ENDBRANCH   6  17
BRANCH   7  22
HETATM   22  N   UNL     1     -44.611  61.805 -54.940  1.00  0.00    -0.350 N 
HETATM   23  C   UNL     1     -44.962  63.122 -54.778  1.00  0.00     0.221 C 
HETATM   24  O   UNL     1     -44.201  63.962 -54.307  1.00  0.00    -0.273 OA
HETATM   25  H   UNL     1     -45.238  61.199 -55.451  1.00  0.00     0.163 HD
BRANCH  23  26
HETATM   26  C   UNL     1     -46.351  63.499 -55.280  1.00  0.00     0.070 C 
HETATM   27  C   UNL     1     -46.348  63.600 -56.804  1.00  0.00     0.019 C 
HETATM   28  C   UNL     1     -47.426  62.537 -54.787  1.00  0.00     0.019 C 
ENDBRANCH  23  26
ENDBRANCH   7  22
BRANCH   1  29
HETATM   29  C   UNL     1     -42.148  54.032 -53.365  1.00  0.00     0.154 A 
HETATM   30  N   UNL     1     -41.717  54.106 -52.095  1.00  0.00    -0.123 NA
HETATM   31  O   UNL     1     -40.708  53.171 -51.972  1.00  0.00    -0.217 OA
HETATM   32  C   UNL     1     -40.564  52.496 -53.143  1.00  0.00     0.084 A 
HETATM   33  C   UNL     1     -41.470  52.987 -54.051  1.00  0.00     0.075 A 
BRANCH  32  34
HETATM   34  C   UNL     1     -39.515  51.439 -53.200  1.00  0.00     0.037 C 
HETATM   35  C   UNL     1     -39.776  50.445 -54.332  1.00  0.00     0.016 C 
HETATM   36  C   UNL     1     -39.405  50.714 -51.858  1.00  0.00     0.016 C 
ENDBRANCH  32  34
ENDBRANCH   1  29
TORSDOF 8
ENDMDL
MODEL 7
REMARK VINA RESULT:      -6.5      2.046      8.689
REMARK  8 active torsions:
REMARK  status: ('A' for Active; 'I' for Inactive)
REMARK    1  A    between atoms: C_2  and  C_3 
REMARK    2  A    between atoms: C_6  and  C_7 
REMARK       I    between atoms: C_7  and  N_8 
REMARK    3  A    between atoms: C_12  and  O_13 
REMARK    4  A    between atoms: O_13  and  C_14 
REMARK    5  A    between atoms: C_14  and  C_15 
REMARK    6  A    between atoms: C_15  and  O_16 
REMARK    7  A    between atoms: C_18  and  N_19 
REMARK       I    between atoms: N_19  and  C_20 
REMARK    8  A    between atoms: C_20  and  C_21 
ROOT
HETATM    1  C   UNL     1     -46.013  60.638 -51.010  1.00  0.00     0.274 C 
HETATM    2  N   UNL     1     -45.001  60.048 -51.784  1.00  0.00    -0.347 N 
HETATM    3  C   UNL     1     -43.589  59.949 -51.412  1.00  0.00     0.127 C 
HETATM    4  C   UNL     1     -43.120  58.499 -51.489  1.00  0.00     0.037 C 
HETATM    5  C   UNL     1     -43.389  57.857 -52.867  1.00  0.00     0.019 C 
HETATM    6  C   UNL     1     -42.465  58.414 -54.023  1.00  0.00     0.162 C 
HETATM    7  C   UNL     1     -41.939  57.182 -54.834  1.00  0.00     0.148 C 
HETATM    8  C   UNL     1     -42.198  56.030 -53.908  1.00  0.00    -0.026 A 
HETATM    9  C   UNL     1     -43.026  56.383 -52.844  1.00  0.00    -0.038 A 
HETATM   10  C   UNL     1     -41.742  54.725 -54.062  1.00  0.00     0.010 A 
HETATM   11  C   UNL     1     -42.136  53.760 -53.136  1.00  0.00     0.001 A 
HETATM   12  C   UNL     1     -42.983  54.105 -52.077  1.00  0.00     0.001 A 
HETATM   13  C   UNL     1     -43.432  55.419 -51.926  1.00  0.00     0.009 A 
HETATM   14  C   UNL     1     -44.885  58.030 -53.218  1.00  0.00     0.037 C 
HETATM   15  C   UNL     1     -45.345  59.484 -53.086  1.00  0.00     0.127 C 
HETATM   16  O   UNL     1     -47.202  60.471 -51.292  1.00  0.00    -0.266 OA
ENDROOT
BRANCH   6  17
HETATM   17  O   UNL     1     -41.364  59.158 -53.459  1.00  0.00    -0.380 OA
BRANCH  17  18
HETATM   18  C   UNL     1     -40.144  58.411 -53.427  1.00  0.00     0.194 C 
BRANCH  18  19
HETATM   19  C   UNL     1     -39.301  58.872 -52.241  1.00  0.00     0.193 C 
BRANCH  19  20
HETATM   20  O   UNL     1     -40.020  59.859 -51.503  1.00  0.00    -0.394 OA
HETATM   21  C   UNL     1     -39.903  59.657 -50.102  1.00  0.00     0.201 C 
ENDBRANCH  19  20
ENDBRANCH  18  19
ENDBRANCH  17  18
ENDBRANCH   6  17
BRANCH   7  22
HETATM   22  N   UNL     1     -42.609  56.946 -56.104  1.00  0.00    -0.350 N 
HETATM   23  C   UNL     1     -42.462  57.806 -57.164  1.00  0.00     0.221 C 
HETATM   24  O   UNL     1     -41.965  58.922 -57.052  1.00  0.00    -0.273 OA
HETATM   25  H   UNL     1     -42.905  55.997 -56.291  1.00  0.00     0.163 HD
BRANCH  23  26
HETATM   26  C   UNL     1     -42.901  57.261 -58.518  1.00  0.00     0.070 C 
HETATM   27  C   UNL     1     -41.943  57.734 -59.610  1.00  0.00     0.019 C 
HETATM   28  C   UNL     1     -43.038  55.742 -58.515  1.00  0.00     0.019 C 
ENDBRANCH  23  26
ENDBRANCH   7  22
BRANCH   1  29
HETATM   29  C   UNL     1     -45.665  61.441 -49.826  1.00  0.00     0.154 A 
HETATM   30  N   UNL     1     -45.408  62.760 -49.861  1.00  0.00    -0.123 NA
HETATM   31  O   UNL     1     -45.137  63.138 -48.561  1.00  0.00    -0.217 OA
HETATM   32  C   UNL     1     -45.282  62.069 -47.734  1.00  0.00     0.084 A 
HETATM   33  C   UNL     1     -45.640  60.975 -48.482  1.00  0.00     0.075 A 
BRANCH  32  34
HETATM   34  C   UNL     1     -45.029  62.288 -46.281  1.00  0.00     0.037 C 
HETATM   35  C   UNL     1     -44.789  60.970 -45.545  1.00  0.00     0.016 C 
HETATM   36  C   UNL     1     -46.184  63.061 -45.643  1.00  0.00     0.016 C 
ENDBRANCH  32  34
ENDBRANCH   1  29
TORSDOF 8
ENDMDL
MODEL 8
REMARK VINA RESULT:      -6.5      2.605      9.201
REMARK  8 active torsions:
REMARK  status: ('A' for Active; 'I' for Inactive)
REMARK    1  A    between atoms: C_2  and  C_3 
REMARK    2  A    between atoms: C_6  and  C_7 
REMARK       I    between atoms: C_7  and  N_8 
REMARK    3  A    between atoms: C_12  and  O_13 
REMARK    4  A    between atoms: O_13  and  C_14 
REMARK    5  A    between atoms: C_14  and  C_15 
REMARK    6  A    between atoms: C_15  and  O_16 
REMARK    7  A    between atoms: C_18  and  N_19 
REMARK       I    between atoms: N_19  and  C_20 
REMARK    8  A    between atoms: C_20  and  C_21 
ROOT
HETATM    1  C   UNL     1     -44.426  58.353 -51.784  1.00  0.00     0.274 C 
HETATM    2  N   UNL     1     -44.779  58.399 -53.141  1.00  0.00    -0.347 N 
HETATM    3  C   UNL     1     -45.407  59.532 -53.822  1.00  0.00     0.127 C 
HETATM    4  C   UNL     1     -44.589  59.937 -55.045  1.00  0.00     0.037 C 
HETATM    5  C   UNL     1     -44.341  58.760 -56.014  1.00  0.00     0.019 C 
HETATM    6  C   UNL     1     -45.632  58.296 -56.799  1.00  0.00     0.162 C 
HETATM    7  C   UNL     1     -45.226  58.116 -58.300  1.00  0.00     0.148 C 
HETATM    8  C   UNL     1     -43.927  58.862 -58.392  1.00  0.00    -0.026 A 
HETATM    9  C   UNL     1     -43.414  59.187 -57.138  1.00  0.00    -0.038 A 
HETATM   10  C   UNL     1     -43.235  59.178 -59.557  1.00  0.00     0.010 A 
HETATM   11  C   UNL     1     -42.001  59.821 -59.453  1.00  0.00     0.001 A 
HETATM   12  C   UNL     1     -41.472  60.132 -58.195  1.00  0.00     0.001 A 
HETATM   13  C   UNL     1     -42.178  59.816 -57.031  1.00  0.00     0.009 A 
HETATM   14  C   UNL     1     -43.715  57.585 -55.227  1.00  0.00     0.037 C 
HETATM   15  C   UNL     1     -44.526  57.230 -53.978  1.00  0.00     0.127 C 
HETATM   16  O   UNL     1     -43.697  57.457 -51.351  1.00  0.00    -0.266 OA
ENDROOT
BRANCH   6  17
HETATM   17  O   UNL     1     -46.672  59.290 -56.670  1.00  0.00    -0.380 OA
BRANCH  17  18
HETATM   18  C   UNL     1     -47.377  59.522 -57.893  1.00  0.00     0.194 C 
BRANCH  18  19
HETATM   19  C   UNL     1     -47.507  61.024 -58.124  1.00  0.00     0.193 C 
BRANCH  19  20
HETATM   20  O   UNL     1     -46.423  61.698 -57.486  1.00  0.00    -0.394 OA
HETATM   21  C   UNL     1     -45.463  62.158 -58.427  1.00  0.00     0.201 C 
ENDBRANCH  19  20
ENDBRANCH  18  19
ENDBRANCH  17  18
ENDBRANCH   6  17
BRANCH   7  22
HETATM   22  N   UNL     1     -45.027  56.739 -58.726  1.00  0.00    -0.350 N 
HETATM   23  C   UNL     1     -45.909  56.116 -59.573  1.00  0.00     0.221 C 
HETATM   24  O   UNL     1     -47.017  56.574 -59.837  1.00  0.00    -0.273 OA
HETATM   25  H   UNL     1     -44.087  56.373 -58.657  1.00  0.00     0.163 HD
BRANCH  23  26
HETATM   26  C   UNL     1     -45.402  54.834 -60.225  1.00  0.00     0.070 C 
HETATM   27  C   UNL     1     -44.953  55.116 -61.657  1.00  0.00     0.019 C 
HETATM   28  C   UNL     1     -44.294  54.171 -59.413  1.00  0.00     0.019 C 
ENDBRANCH  23  26
ENDBRANCH   7  22
BRANCH   1  29
HETATM   29  C   UNL     1     -44.899  59.397 -50.860  1.00  0.00     0.154 A 
HETATM   30  N   UNL     1     -45.967  59.263 -50.056  1.00  0.00    -0.123 NA
HETATM   31  O   UNL     1     -46.072  60.444 -49.349  1.00  0.00    -0.217 OA
HETATM   32  C   UNL     1     -45.044  61.269 -49.680  1.00  0.00     0.084 A 
HETATM   33  C   UNL     1     -44.258  60.644 -50.615  1.00  0.00     0.075 A 
BRANCH  32  34
HETATM   34  C   UNL     1     -44.991  62.600 -49.011  1.00  0.00     0.037 C 
HETATM   35  C   UNL     1     -43.777  63.411 -49.463  1.00  0.00     0.016 C 
HETATM   36  C   UNL     1     -44.998  62.440 -47.490  1.00  0.00     0.016 C 
ENDBRANCH  32  34
ENDBRANCH   1  29
TORSDOF 8
ENDMDL
MODEL 9
REMARK VINA RESULT:      -6.4      2.612      8.932
REMARK  8 active torsions:
REMARK  status: ('A' for Active; 'I' for Inactive)
REMARK    1  A    between atoms: C_2  and  C_3 
REMARK    2  A    between atoms: C_6  and  C_7 
REMARK       I    between atoms: C_7  and  N_8 
REMARK    3  A    between atoms: C_12  and  O_13 
REMARK    4  A    between atoms: O_13  and  C_14 
REMARK    5  A    between atoms: C_14  and  C_15 
REMARK    6  A    between atoms: C_15  and  O_16 
REMARK    7  A    between atoms: C_18  and  N_19 
REMARK       I    between atoms: N_19  and  C_20 
REMARK    8  A    between atoms: C_20  and  C_21 
ROOT
HETATM    1  C   UNL     1     -45.774  61.766 -51.867  1.00  0.00     0.274 C 
HETATM    2  N   UNL     1     -45.052  61.162 -52.908  1.00  0.00    -0.347 N 
HETATM    3  C   UNL     1     -44.461  59.823 -52.873  1.00  0.00     0.127 C 
HETATM    4  C   UNL     1     -44.943  58.998 -54.063  1.00  0.00     0.037 C 
HETATM    5  C   UNL     1     -44.685  59.697 -55.416  1.00  0.00     0.019 C 
HETATM    6  C   UNL     1     -43.160  59.746 -55.829  1.00  0.00     0.162 C 
HETATM    7  C   UNL     1     -43.070  59.326 -57.335  1.00  0.00     0.148 C 
HETATM    8  C   UNL     1     -44.395  58.666 -57.582  1.00  0.00    -0.026 A 
HETATM    9  C   UNL     1     -45.302  58.897 -56.550  1.00  0.00    -0.038 A 
HETATM   10  C   UNL     1     -44.760  57.941 -58.712  1.00  0.00     0.010 A 
HETATM   11  C   UNL     1     -46.063  57.451 -58.806  1.00  0.00     0.001 A 
HETATM   12  C   UNL     1     -46.983  57.696 -57.780  1.00  0.00     0.001 A 
HETATM   13  C   UNL     1     -46.606  58.421 -56.647  1.00  0.00     0.009 A 
HETATM   14  C   UNL     1     -45.298  61.116 -55.374  1.00  0.00     0.037 C 
HETATM   15  C   UNL     1     -44.838  61.906 -54.146  1.00  0.00     0.127 C 
HETATM   16  O   UNL     1     -46.428  62.792 -52.065  1.00  0.00    -0.266 OA
ENDROOT
BRANCH   6  17
HETATM   17  O   UNL     1     -42.396  58.841 -55.003  1.00  0.00    -0.380 OA
BRANCH  17  18
HETATM   18  C   UNL     1     -41.359  59.497 -54.268  1.00  0.00     0.194 C 
BRANCH  18  19
HETATM   19  C   UNL     1     -40.668  58.487 -53.358  1.00  0.00     0.193 C 
BRANCH  19  20
HETATM   20  O   UNL     1     -39.698  59.157 -52.555  1.00  0.00    -0.394 OA
HETATM   21  C   UNL     1     -40.060  59.157 -51.182  1.00  0.00     0.201 C 
ENDBRANCH  19  20
ENDBRANCH  18  19
ENDBRANCH  17  18
ENDBRANCH   6  17
BRANCH   7  22
HETATM   22  N   UNL     1     -42.890  60.423 -58.274  1.00  0.00    -0.350 N 
HETATM   23  C   UNL     1     -41.664  61.010 -58.464  1.00  0.00     0.221 C 
HETATM   24  O   UNL     1     -40.711  60.822 -57.714  1.00  0.00    -0.273 OA
HETATM   25  H   UNL     1     -43.588  60.518 -59.000  1.00  0.00     0.163 HD
BRANCH  23  26
HETATM   26  C   UNL     1     -41.535  61.872 -59.715  1.00  0.00     0.070 C 
HETATM   27  C   UNL     1     -40.191  62.598 -59.715  1.00  0.00     0.019 C 
HETATM   28  C   UNL     1     -41.736  61.068 -60.995  1.00  0.00     0.019 C 
ENDBRANCH  23  26
ENDBRANCH   7  22
BRANCH   1  29
HETATM   29  C   UNL     1     -45.783  61.160 -50.525  1.00  0.00     0.154 A 
HETATM   30  N   UNL     1     -46.202  59.910 -50.267  1.00  0.00    -0.123 NA
HETATM   31  O   UNL     1     -46.046  59.720 -48.908  1.00  0.00    -0.217 OA
HETATM   32  C   UNL     1     -45.485  60.826 -48.353  1.00  0.00     0.084 A 
HETATM   33  C   UNL     1     -45.276  61.759 -49.338  1.00  0.00     0.075 A 
BRANCH  32  34
HETATM   34  C   UNL     1     -45.237  60.805 -46.883  1.00  0.00     0.037 C 
HETATM   35  C   UNL     1     -46.237  59.908 -46.154  1.00  0.00     0.016 C 
HETATM   36  C   UNL     1     -45.264  62.222 -46.310  1.00  0.00     0.016 C 
ENDBRANCH  32  34
ENDBRANCH   1  29
TORSDOF 8
ENDMDL
MODEL 10
REMARK VINA RESULT:      -6.3      3.391      6.875
REMARK  8 active torsions:
REMARK  status: ('A' for Active; 'I' for Inactive)
REMARK    1  A    between atoms: C_2  and  C_3 
REMARK    2  A    between atoms: C_6  and  C_7 
REMARK       I    between atoms: C_7  and  N_8 
REMARK    3  A    between atoms: C_12  and  O_13 
REMARK    4  A    between atoms: O_13  and  C_14 
REMARK    5  A    between atoms: C_14  and  C_15 
REMARK    6  A    between atoms: C_15  and  O_16 
REMARK    7  A    between atoms: C_18  and  N_19 
REMARK       I    between atoms: N_19  and  C_20 
REMARK    8  A    between atoms: C_20  and  C_21 
ROOT
HETATM    1  C   UNL     1     -43.287  54.658 -54.286  1.00  0.00     0.274 C 
HETATM    2  N   UNL     1     -43.072  56.018 -54.559  1.00  0.00    -0.347 N 
HETATM    3  C   UNL     1     -41.771  56.689 -54.579  1.00  0.00     0.127 C 
HETATM    4  C   UNL     1     -41.565  57.411 -55.908  1.00  0.00     0.037 C 
HETATM    5  C   UNL     1     -42.714  58.390 -56.239  1.00  0.00     0.019 C 
HETATM    6  C   UNL     1     -42.736  59.681 -55.326  1.00  0.00     0.162 C 
HETATM    7  C   UNL     1     -42.953  60.913 -56.267  1.00  0.00     0.148 C 
HETATM    8  C   UNL     1     -42.620  60.366 -57.624  1.00  0.00    -0.026 A 
HETATM    9  C   UNL     1     -42.524  58.976 -57.626  1.00  0.00    -0.038 A 
HETATM   10  C   UNL     1     -42.466  61.100 -58.797  1.00  0.00     0.010 A 
HETATM   11  C   UNL     1     -42.222  60.418 -59.989  1.00  0.00     0.001 A 
HETATM   12  C   UNL     1     -42.144  59.022 -60.000  1.00  0.00     0.001 A 
HETATM   13  C   UNL     1     -42.295  58.294 -58.817  1.00  0.00     0.009 A 
HETATM   14  C   UNL     1     -44.059  57.630 -56.163  1.00  0.00     0.037 C 
HETATM   15  C   UNL     1     -44.220  56.874 -54.842  1.00  0.00     0.127 C 
HETATM   16  O   UNL     1     -44.379  54.133 -54.518  1.00  0.00    -0.266 OA
ENDROOT
BRANCH   6  17
HETATM   17  O   UNL     1     -41.487  59.801 -54.612  1.00  0.00    -0.380 OA
BRANCH  17  18
HETATM   18  C   UNL     1     -41.665  59.991 -53.205  1.00  0.00     0.194 C 
BRANCH  18  19
HETATM   19  C   UNL     1     -40.702  59.081 -52.448  1.00  0.00     0.193 C 
BRANCH  19  20
HETATM   20  O   UNL     1     -40.181  59.778 -51.318  1.00  0.00    -0.394 OA
HETATM   21  C   UNL     1     -40.837  59.399 -50.116  1.00  0.00     0.201 C 
ENDBRANCH  19  20
ENDBRANCH  18  19
ENDBRANCH  17  18
ENDBRANCH   6  17
BRANCH   7  22
HETATM   22  N   UNL     1     -44.304  61.452 -56.278  1.00  0.00    -0.350 N 
HETATM   23  C   UNL     1     -44.655  62.524 -55.495  1.00  0.00     0.221 C 
HETATM   24  O   UNL     1     -43.948  62.944 -54.584  1.00  0.00    -0.273 OA
HETATM   25  H   UNL     1     -44.871  61.243 -57.089  1.00  0.00     0.163 HD
BRANCH  23  26
HETATM   26  C   UNL     1     -45.964  63.211 -55.869  1.00  0.00     0.070 C 
HETATM   27  C   UNL     1     -46.155  63.189 -57.384  1.00  0.00     0.019 C 
HETATM   28  C   UNL     1     -47.163  62.605 -55.146  1.00  0.00     0.019 C 
ENDBRANCH  23  26
ENDBRANCH   7  22
BRANCH   1  29
HETATM   29  C   UNL     1     -42.197  53.830 -53.744  1.00  0.00     0.154 A 
HETATM   30  N   UNL     1     -41.449  52.994 -54.484  1.00  0.00    -0.123 NA
HETATM   31  O   UNL     1     -40.541  52.417 -53.619  1.00  0.00    -0.217 OA
HETATM   32  C   UNL     1     -40.698  52.940 -52.374  1.00  0.00     0.084 A 
HETATM   33  C   UNL     1     -41.718  53.858 -52.405  1.00  0.00     0.075 A 
BRANCH  32  34
HETATM   34  C   UNL     1     -39.796  52.435 -51.300  1.00  0.00     0.037 C 
HETATM   35  C   UNL     1     -39.569  50.928 -51.415  1.00  0.00     0.016 C 
HETATM   36  C   UNL     1     -40.347  52.795 -49.919  1.00  0.00     0.016 C 
ENDBRANCH  32  34
ENDBRANCH   1  29
TORSDOF 8
ENDMDL
