MODEL 1
REMARK VINA RESULT:      -7.8      0.000      0.000
REMARK  6 active torsions:
REMARK  status: ('A' for Active; 'I' for Inactive)
REMARK    1  A    between atoms: C_4  and  C_5 
REMARK    2  A    between atoms: C_5  and  N_6 
REMARK    3  A    between atoms: C_5  and  C_10 
REMARK    4  A    between atoms: C_10  and  N_11 
REMARK       I    between atoms: N_11  and  C_12 
REMARK       I    between atoms: C_12  and  N_13 
REMARK    5  A    between atoms: N_13  and  C_14 
REMARK    6  A    between atoms: C_17  and  N_18 
ROOT
HETATM    1  N   UNL     1     -41.046  57.851 -53.858  1.00  0.00    -0.340 N 
HETATM    2  C   UNL     1     -41.999  57.480 -54.746  1.00  0.00     0.320 C 
HETATM    3  N   UNL     1     -41.991  56.207 -55.209  1.00  0.00    -0.309 N 
HETATM    4  O   UNL     1     -42.799  58.301 -55.197  1.00  0.00    -0.247 OA
HETATM    5  H   UNL     1     -40.237  57.243 -53.795  1.00  0.00     0.164 HD
HETATM    6  H   UNL     1     -42.562  56.096 -56.041  1.00  0.00     0.170 HD
ENDROOT
BRANCH   1   7
HETATM    7  C   UNL     1     -40.995  59.145 -53.172  1.00  0.00     0.164 C 
BRANCH   7   8
HETATM    8  C   UNL     1     -41.580  59.186 -51.722  1.00  0.00     0.261 C 
BRANCH   8   9
HETATM    9  C   UNL     1     -41.887  57.809 -51.222  1.00  0.00     0.085 A 
HETATM   10  O   UNL     1     -40.833  57.060 -50.785  1.00  0.00    -0.318 OA
HETATM   11  C   UNL     1     -41.328  55.846 -50.413  1.00  0.00     0.049 A 
HETATM   12  C   UNL     1     -40.353  54.848 -49.924  1.00  0.00     0.076 C 
HETATM   13  C   UNL     1     -42.694  55.820 -50.585  1.00  0.00     0.035 A 
HETATM   14  C   UNL     1     -43.057  57.086 -51.107  1.00  0.00     0.037 A 
ENDBRANCH   8   9
BRANCH   8  15
HETATM   15  N   UNL     1     -42.761  60.153 -51.597  1.00  0.00    -0.067 N 
HETATM   16  H   UNL     1     -43.557  59.547 -51.314  1.00  0.00     0.280 HD
HETATM   17  C   UNL     1     -42.665  61.185 -50.514  1.00  0.00     0.270 C 
HETATM   18  C   UNL     1     -43.155  60.765 -52.904  1.00  0.00     0.270 C 
ENDBRANCH   8  15
ENDBRANCH   7   8
ENDBRANCH   1   7
BRANCH   3  19
HETATM   19  C   UNL     1     -41.472  55.009 -54.679  1.00  0.00     0.036 A 
HETATM   20  C   UNL     1     -40.254  54.441 -55.049  1.00  0.00     0.032 A 
HETATM   21  C   UNL     1     -39.789  53.272 -54.424  1.00  0.00     0.032 A 
HETATM   22  C   UNL     1     -40.526  52.662 -53.404  1.00  0.00     0.040 A 
HETATM   23  C   UNL     1     -41.750  53.235 -53.034  1.00  0.00     0.032 A 
HETATM   24  C   UNL     1     -42.208  54.402 -53.657  1.00  0.00     0.032 A 
BRANCH  22  25
HETATM   25  N   UNL     1     -40.068  51.478 -52.744  1.00  0.00    -0.309 N 
HETATM   26  C   UNL     1     -39.827  50.201 -53.255  1.00  0.00     0.106 A 
HETATM   27  C   UNL     1     -39.824  49.813 -54.690  1.00  0.00     0.091 C 
HETATM   28  N   UNL     1     -39.483  49.359 -52.297  1.00  0.00    -0.246 NA
HETATM   29  C   UNL     1     -39.431  50.087 -51.150  1.00  0.00     0.136 A 
HETATM   30  C   UNL     1     -39.760  51.394 -51.398  1.00  0.00     0.118 A 
ENDBRANCH  22  25
ENDBRANCH   3  19
TORSDOF 6
ENDMDL
MODEL 2
REMARK VINA RESULT:      -7.4      3.243      5.856
REMARK  6 active torsions:
REMARK  status: ('A' for Active; 'I' for Inactive)
REMARK    1  A    between atoms: C_4  and  C_5 
REMARK    2  A    between atoms: C_5  and  N_6 
REMARK    3  A    between atoms: C_5  and  C_10 
REMARK    4  A    between atoms: C_10  and  N_11 
REMARK       I    between atoms: N_11  and  C_12 
REMARK       I    between atoms: C_12  and  N_13 
REMARK    5  A    between atoms: N_13  and  C_14 
REMARK    6  A    between atoms: C_17  and  N_18 
ROOT
HETATM    1  N   UNL     1     -43.047  56.545 -55.696  1.00  0.00    -0.340 N 
HETATM    2  C   UNL     1     -42.051  57.286 -55.155  1.00  0.00     0.320 C 
HETATM    3  N   UNL     1     -41.267  56.720 -54.206  1.00  0.00    -0.309 N 
HETATM    4  O   UNL     1     -41.916  58.475 -55.446  1.00  0.00    -0.247 OA
HETATM    5  H   UNL     1     -43.313  55.713 -55.180  1.00  0.00     0.164 HD
HETATM    6  H   UNL     1     -40.733  57.409 -53.688  1.00  0.00     0.170 HD
ENDROOT
BRANCH   1   7
HETATM    7  C   UNL     1     -43.896  56.966 -56.814  1.00  0.00     0.164 C 
BRANCH   7   8
HETATM    8  C   UNL     1     -43.523  56.395 -58.222  1.00  0.00     0.261 C 
BRANCH   8   9
HETATM    9  C   UNL     1     -42.846  57.429 -59.065  1.00  0.00     0.085 A 
HETATM   10  O   UNL     1     -42.911  58.721 -58.631  1.00  0.00    -0.318 OA
HETATM   11  C   UNL     1     -42.268  59.490 -59.554  1.00  0.00     0.049 A 
HETATM   12  C   UNL     1     -42.233  60.946 -59.304  1.00  0.00     0.076 C 
HETATM   13  C   UNL     1     -41.771  58.696 -60.565  1.00  0.00     0.035 A 
HETATM   14  C   UNL     1     -42.142  57.367 -60.251  1.00  0.00     0.037 A 
ENDBRANCH   8   9
BRANCH   8  15
HETATM   15  N   UNL     1     -44.716  55.732 -58.916  1.00  0.00    -0.067 N 
HETATM   16  H   UNL     1     -45.297  55.370 -58.133  1.00  0.00     0.280 HD
HETATM   17  C   UNL     1     -45.632  56.639 -59.681  1.00  0.00     0.270 C 
HETATM   18  C   UNL     1     -44.328  54.536 -59.726  1.00  0.00     0.270 C 
ENDBRANCH   8  15
ENDBRANCH   7   8
ENDBRANCH   1   7
BRANCH   3  19
HETATM   19  C   UNL     1     -40.950  55.378 -53.915  1.00  0.00     0.036 A 
HETATM   20  C   UNL     1     -40.298  54.511 -54.790  1.00  0.00     0.032 A 
HETATM   21  C   UNL     1     -39.970  53.203 -54.393  1.00  0.00     0.032 A 
HETATM   22  C   UNL     1     -40.272  52.748 -53.105  1.00  0.00     0.040 A 
HETATM   23  C   UNL     1     -40.928  53.622 -52.228  1.00  0.00     0.032 A 
HETATM   24  C   UNL     1     -41.250  54.926 -52.627  1.00  0.00     0.032 A 
BRANCH  22  25
HETATM   25  N   UNL     1     -39.939  51.426 -52.672  1.00  0.00    -0.309 N 
HETATM   26  C   UNL     1     -39.854  50.237 -53.400  1.00  0.00     0.106 A 
HETATM   27  C   UNL     1     -39.923  50.104 -54.878  1.00  0.00     0.091 C 
HETATM   28  N   UNL     1     -39.589  49.211 -52.611  1.00  0.00    -0.246 NA
HETATM   29  C   UNL     1     -39.433  49.722 -51.361  1.00  0.00     0.136 A 
HETATM   30  C   UNL     1     -39.617  51.080 -51.372  1.00  0.00     0.118 A 
ENDBRANCH  22  25
ENDBRANCH   3  19
TORSDOF 6
ENDMDL
MODEL 3
REMARK VINA RESULT:      -7.4      1.321      1.948
REMARK  6 active torsions:
REMARK  status: ('A' for Active; 'I' for Inactive)
REMARK    1  A    between atoms: C_4  and  C_5 
REMARK    2  A    between atoms: C_5  and  N_6 
REMARK    3  A    between atoms: C_5  and  C_10 
REMARK    4  A    between atoms: C_10  and  N_11 
REMARK       I    between atoms: N_11  and  C_12 
REMARK       I    between atoms: C_12  and  N_13 
REMARK    5  A    between atoms: N_13  and  C_14 
REMARK    6  A    between atoms: C_17  and  N_18 
ROOT
HETATM    1  N   UNL     1     -42.451  58.560 -53.786  1.00  0.00    -0.340 N 
HETATM    2  C   UNL     1     -43.285  58.158 -54.775  1.00  0.00     0.320 C 
HETATM    3  N   UNL     1     -43.021  56.989 -55.406  1.00  0.00    -0.309 N 
HETATM    4  O   UNL     1     -44.207  58.879 -55.158  1.00  0.00    -0.247 OA
HETATM    5  H   UNL     1     -41.546  58.105 -53.755  1.00  0.00     0.164 HD
HETATM    6  H   UNL     1     -43.530  56.900 -56.279  1.00  0.00     0.170 HD
ENDROOT
BRANCH   1   7
HETATM    7  C   UNL     1     -42.668  59.728 -52.927  1.00  0.00     0.164 C 
BRANCH   7   8
HETATM    8  C   UNL     1     -42.562  59.485 -51.385  1.00  0.00     0.261 C 
BRANCH   8   9
HETATM    9  C   UNL     1     -42.096  58.095 -51.086  1.00  0.00     0.085 A 
HETATM   10  O   UNL     1     -43.005  57.090 -51.242  1.00  0.00    -0.318 OA
HETATM   11  C   UNL     1     -42.386  55.928 -50.887  1.00  0.00     0.049 A 
HETATM   12  C   UNL     1     -43.195  54.693 -50.952  1.00  0.00     0.076 C 
HETATM   13  C   UNL     1     -41.080  56.180 -50.528  1.00  0.00     0.035 A 
HETATM   14  C   UNL     1     -40.891  57.576 -50.656  1.00  0.00     0.037 A 
ENDBRANCH   8   9
BRANCH   8  15
HETATM   15  N   UNL     1     -43.848  59.866 -50.645  1.00  0.00    -0.067 N 
HETATM   16  H   UNL     1     -44.011  59.071 -49.994  1.00  0.00     0.280 HD
HETATM   17  C   UNL     1     -43.775  61.073 -49.760  1.00  0.00     0.270 C 
HETATM   18  C   UNL     1     -45.044  59.915 -51.542  1.00  0.00     0.270 C 
ENDBRANCH   8  15
ENDBRANCH   7   8
ENDBRANCH   1   7
BRANCH   3  19
HETATM   19  C   UNL     1     -42.307  55.839 -55.013  1.00  0.00     0.036 A 
HETATM   20  C   UNL     1     -40.940  55.810 -54.743  1.00  0.00     0.032 A 
HETATM   21  C   UNL     1     -40.322  54.628 -54.300  1.00  0.00     0.032 A 
HETATM   22  C   UNL     1     -41.066  53.461 -54.101  1.00  0.00     0.040 A 
HETATM   23  C   UNL     1     -42.440  53.493 -54.374  1.00  0.00     0.032 A 
HETATM   24  C   UNL     1     -43.053  54.674 -54.812  1.00  0.00     0.032 A 
BRANCH  22  25
HETATM   25  N   UNL     1     -40.462  52.248 -53.641  1.00  0.00    -0.309 N 
HETATM   26  C   UNL     1     -39.881  51.946 -52.407  1.00  0.00     0.106 A 
HETATM   27  C   UNL     1     -39.916  52.793 -51.187  1.00  0.00     0.091 C 
HETATM   28  N   UNL     1     -39.365  50.730 -52.406  1.00  0.00    -0.246 NA
HETATM   29  C   UNL     1     -39.658  50.191 -53.620  1.00  0.00     0.136 A 
HETATM   30  C   UNL     1     -40.351  51.089 -54.388  1.00  0.00     0.118 A 
ENDBRANCH  22  25
ENDBRANCH   3  19
TORSDOF 6
ENDMDL
MODEL 4
REMARK VINA RESULT:      -7.3      2.062      7.627
REMARK  6 active torsions:
REMARK  status: ('A' for Active; 'I' for Inactive)
REMARK    1  A    between atoms: C_4  and  C_5 
REMARK    2  A    between atoms: C_5  and  N_6 
REMARK    3  A    between atoms: C_5  and  C_10 
REMARK    4  A    between atoms: C_10  and  N_11 
REMARK       I    between atoms: N_11  and  C_12 
REMARK       I    between atoms: C_12  and  N_13 
REMARK    5  A    between atoms: N_13  and  C_14 
REMARK    6  A    between atoms: C_17  and  N_18 
ROOT
HETATM    1  N   UNL     1     -40.552  54.182 -50.650  1.00  0.00    -0.340 N 
HETATM    2  C   UNL     1     -41.143  54.724 -49.559  1.00  0.00     0.320 C 
HETATM    3  N   UNL     1     -41.418  56.050 -49.565  1.00  0.00    -0.309 N 
HETATM    4  O   UNL     1     -41.341  54.051 -48.547  1.00  0.00    -0.247 OA
HETATM    5  H   UNL     1     -40.115  54.836 -51.290  1.00  0.00     0.164 HD
HETATM    6  H   UNL     1     -41.614  56.406 -48.635  1.00  0.00     0.170 HD
ENDROOT
BRANCH   1   7
HETATM    7  C   UNL     1     -40.305  52.751 -50.850  1.00  0.00     0.164 C 
BRANCH   7   8
HETATM    8  C   UNL     1     -39.857  52.317 -52.284  1.00  0.00     0.261 C 
BRANCH   8   9
HETATM    9  C   UNL     1     -40.536  53.137 -53.336  1.00  0.00     0.085 A 
HETATM   10  O   UNL     1     -41.847  53.450 -53.126  1.00  0.00    -0.318 OA
HETATM   11  C   UNL     1     -42.270  54.161 -54.209  1.00  0.00     0.049 A 
HETATM   12  C   UNL     1     -43.685  54.591 -54.216  1.00  0.00     0.076 C 
HETATM   13  C   UNL     1     -41.232  54.327 -55.099  1.00  0.00     0.035 A 
HETATM   14  C   UNL     1     -40.113  53.668 -54.538  1.00  0.00     0.037 A 
ENDBRANCH   8   9
BRANCH   8  15
HETATM   15  N   UNL     1     -39.997  50.809 -52.507  1.00  0.00    -0.067 N 
HETATM   16  H   UNL     1     -41.024  50.650 -52.537  1.00  0.00     0.280 HD
HETATM   17  C   UNL     1     -39.493  50.278 -53.816  1.00  0.00     0.270 C 
HETATM   18  C   UNL     1     -39.489  49.999 -51.356  1.00  0.00     0.270 C 
ENDBRANCH   8  15
ENDBRANCH   7   8
ENDBRANCH   1   7
BRANCH   3  19
HETATM   19  C   UNL     1     -41.626  56.971 -50.612  1.00  0.00     0.036 A 
HETATM   20  C   UNL     1     -40.664  57.863 -51.083  1.00  0.00     0.032 A 
HETATM   21  C   UNL     1     -40.942  58.706 -52.172  1.00  0.00     0.032 A 
HETATM   22  C   UNL     1     -42.181  58.658 -52.820  1.00  0.00     0.040 A 
HETATM   23  C   UNL     1     -43.145  57.760 -52.343  1.00  0.00     0.032 A 
HETATM   24  C   UNL     1     -42.863  56.919 -51.259  1.00  0.00     0.032 A 
BRANCH  22  25
HETATM   25  N   UNL     1     -42.484  59.498 -53.937  1.00  0.00    -0.309 N 
HETATM   26  C   UNL     1     -42.523  59.201 -55.301  1.00  0.00     0.106 A 
HETATM   27  C   UNL     1     -42.423  57.849 -55.910  1.00  0.00     0.091 C 
HETATM   28  N   UNL     1     -42.772  60.281 -56.019  1.00  0.00    -0.246 NA
HETATM   29  C   UNL     1     -42.966  61.293 -55.132  1.00  0.00     0.136 A 
HETATM   30  C   UNL     1     -42.820  60.837 -53.847  1.00  0.00     0.118 A 
ENDBRANCH  22  25
ENDBRANCH   3  19
TORSDOF 6
ENDMDL
MODEL 5
REMARK VINA RESULT:      -7.2      2.104      3.508
REMARK  6 active torsions:
REMARK  status: ('A' for Active; 'I' for Inactive)
REMARK    1  A    between atoms: C_4  and  C_5 
REMARK    2  A    between atoms: C_5  and  N_6 
REMARK    3  A    between atoms: C_5  and  C_10 
REMARK    4  A    between atoms: C_10  and  N_11 
REMARK       I    between atoms: N_11  and  C_12 
REMARK       I    between atoms: C_12  and  N_13 
REMARK    5  A    between atoms: N_13  and  C_14 
REMARK    6  A    between atoms: C_17  and  N_18 
ROOT
HETATM    1  N   UNL     1     -44.614  58.327 -52.401  1.00  0.00    -0.340 N 
HETATM    2  C   UNL     1     -44.827  58.066 -51.089  1.00  0.00     0.320 C 
HETATM    3  N   UNL     1     -44.397  56.884 -50.588  1.00  0.00    -0.309 N 
HETATM    4  O   UNL     1     -45.478  58.841 -50.387  1.00  0.00    -0.247 OA
HETATM    5  H   UNL     1     -44.387  57.527 -52.982  1.00  0.00     0.164 HD
HETATM    6  H   UNL     1     -44.818  56.671 -49.689  1.00  0.00     0.170 HD
ENDROOT
BRANCH   1   7
HETATM    7  C   UNL     1     -44.903  59.602 -53.062  1.00  0.00     0.164 C 
BRANCH   7   8
HETATM    8  C   UNL     1     -43.699  60.587 -53.229  1.00  0.00     0.261 C 
BRANCH   8   9
HETATM    9  C   UNL     1     -42.391  59.875 -53.075  1.00  0.00     0.085 A 
HETATM   10  O   UNL     1     -41.814  59.902 -51.839  1.00  0.00    -0.318 OA
HETATM   11  C   UNL     1     -40.631  59.231 -51.932  1.00  0.00     0.049 A 
HETATM   12  C   UNL     1     -39.809  59.153 -50.706  1.00  0.00     0.076 C 
HETATM   13  C   UNL     1     -40.458  58.755 -53.213  1.00  0.00     0.035 A 
HETATM   14  C   UNL     1     -41.593  59.168 -53.951  1.00  0.00     0.037 A 
ENDBRANCH   8   9
BRANCH   8  15
HETATM   15  N   UNL     1     -43.827  61.822 -52.333  1.00  0.00    -0.067 N 
HETATM   16  H   UNL     1     -43.245  61.593 -51.501  1.00  0.00     0.280 HD
HETATM   17  C   UNL     1     -43.243  63.096 -52.866  1.00  0.00     0.270 C 
HETATM   18  C   UNL     1     -45.216  62.028 -51.819  1.00  0.00     0.270 C 
ENDBRANCH   8  15
ENDBRANCH   7   8
ENDBRANCH   1   7
BRANCH   3  19
HETATM   19  C   UNL     1     -43.387  55.990 -50.998  1.00  0.00     0.036 A 
HETATM   20  C   UNL     1     -42.025  56.177 -50.772  1.00  0.00     0.032 A 
HETATM   21  C   UNL     1     -41.092  55.204 -51.167  1.00  0.00     0.032 A 
HETATM   22  C   UNL     1     -41.510  54.017 -51.778  1.00  0.00     0.040 A 
HETATM   23  C   UNL     1     -42.880  53.832 -52.005  1.00  0.00     0.032 A 
HETATM   24  C   UNL     1     -43.806  54.804 -51.606  1.00  0.00     0.032 A 
BRANCH  22  25
HETATM   25  N   UNL     1     -40.581  53.005 -52.180  1.00  0.00    -0.309 N 
HETATM   26  C   UNL     1     -40.140  52.645 -53.455  1.00  0.00     0.106 A 
HETATM   27  C   UNL     1     -40.414  53.375 -54.719  1.00  0.00     0.091 C 
HETATM   28  N   UNL     1     -39.331  51.602 -53.405  1.00  0.00    -0.246 NA
HETATM   29  C   UNL     1     -39.178  51.301 -52.088  1.00  0.00     0.136 A 
HETATM   30  C   UNL     1     -39.913  52.160 -51.312  1.00  0.00     0.118 A 
ENDBRANCH  22  25
ENDBRANCH   3  19
TORSDOF 6
ENDMDL
MODEL 6
REMARK VINA RESULT:      -7.0      2.795      4.387
REMARK  6 active torsions:
REMARK  status: ('A' for Active; 'I' for Inactive)
REMARK    1  A    between atoms: C_4  and  C_5 
REMARK    2  A    between atoms: C_5  and  N_6 
REMARK    3  A    between atoms: C_5  and  C_10 
REMARK    4  A    between atoms: C_10  and  N_11 
REMARK       I    between atoms: N_11  and  C_12 
REMARK       I    between atoms: C_12  and  N_13 
REMARK    5  A    between atoms: N_13  and  C_14 
REMARK    6  A    between atoms: C_17  and  N_18 
ROOT
HETATM    1  N   UNL     1     -42.206  57.048 -57.250  1.00  0.00    -0.340 N 
HETATM    2  C   UNL     1     -43.100  56.056 -57.474  1.00  0.00     0.320 C 
HETATM    3  N   UNL     1     -43.022  54.934 -56.719  1.00  0.00    -0.309 N 
HETATM    4  O   UNL     1     -43.906  56.127 -58.403  1.00  0.00    -0.247 OA
HETATM    5  H   UNL     1     -41.379  56.791 -56.723  1.00  0.00     0.164 HD
HETATM    6  H   UNL     1     -43.547  54.164 -57.120  1.00  0.00     0.170 HD
ENDROOT
BRANCH   1   7
HETATM    7  C   UNL     1     -42.235  58.366 -57.890  1.00  0.00     0.164 C 
BRANCH   7   8
HETATM    8  C   UNL     1     -42.747  59.554 -57.010  1.00  0.00     0.261 C 
BRANCH   8   9
HETATM    9  C   UNL     1     -42.620  59.242 -55.552  1.00  0.00     0.085 A 
HETATM   10  O   UNL     1     -41.363  59.252 -55.024  1.00  0.00    -0.318 OA
HETATM   11  C   UNL     1     -41.475  58.911 -53.709  1.00  0.00     0.049 A 
HETATM   12  C   UNL     1     -40.222  58.831 -52.929  1.00  0.00     0.076 C 
HETATM   13  C   UNL     1     -42.799  58.707 -53.386  1.00  0.00     0.035 A 
HETATM   14  C   UNL     1     -43.539  58.921 -54.573  1.00  0.00     0.037 A 
ENDBRANCH   8   9
BRANCH   8  15
HETATM   15  N   UNL     1     -44.150  60.016 -57.413  1.00  0.00    -0.067 N 
HETATM   16  H   UNL     1     -44.781  59.506 -56.762  1.00  0.00     0.280 HD
HETATM   17  C   UNL     1     -44.464  61.465 -57.190  1.00  0.00     0.270 C 
HETATM   18  C   UNL     1     -44.536  59.577 -58.789  1.00  0.00     0.270 C 
ENDBRANCH   8  15
ENDBRANCH   7   8
ENDBRANCH   1   7
BRANCH   3  19
HETATM   19  C   UNL     1     -42.486  54.687 -55.439  1.00  0.00     0.036 A 
HETATM   20  C   UNL     1     -41.136  54.467 -55.175  1.00  0.00     0.032 A 
HETATM   21  C   UNL     1     -40.683  54.287 -53.858  1.00  0.00     0.032 A 
HETATM   22  C   UNL     1     -41.572  54.343 -52.779  1.00  0.00     0.040 A 
HETATM   23  C   UNL     1     -42.929  54.565 -53.048  1.00  0.00     0.032 A 
HETATM   24  C   UNL     1     -43.376  54.747 -54.363  1.00  0.00     0.032 A 
BRANCH  22  25
HETATM   25  N   UNL     1     -41.135  54.174 -51.428  1.00  0.00    -0.309 N 
HETATM   26  C   UNL     1     -40.981  55.116 -50.408  1.00  0.00     0.106 A 
HETATM   27  C   UNL     1     -41.420  56.534 -50.448  1.00  0.00     0.091 C 
HETATM   28  N   UNL     1     -40.477  54.564 -49.319  1.00  0.00    -0.246 NA
HETATM   29  C   UNL     1     -40.353  53.237 -49.586  1.00  0.00     0.136 A 
HETATM   30  C   UNL     1     -40.772  52.964 -50.863  1.00  0.00     0.118 A 
ENDBRANCH  22  25
ENDBRANCH   3  19
TORSDOF 6
ENDMDL
MODEL 7
REMARK VINA RESULT:      -7.0      1.766      3.584
REMARK  6 active torsions:
REMARK  status: ('A' for Active; 'I' for Inactive)
REMARK    1  A    between atoms: C_4  and  C_5 
REMARK    2  A    between atoms: C_5  and  N_6 
REMARK    3  A    between atoms: C_5  and  C_10 
REMARK    4  A    between atoms: C_10  and  N_11 
REMARK       I    between atoms: N_11  and  C_12 
REMARK       I    between atoms: C_12  and  N_13 
REMARK    5  A    between atoms: N_13  and  C_14 
REMARK    6  A    between atoms: C_17  and  N_18 
ROOT
HETATM    1  N   UNL     1     -43.252  57.536 -51.689  1.00  0.00    -0.340 N 
HETATM    2  C   UNL     1     -42.218  57.974 -50.932  1.00  0.00     0.320 C 
HETATM    3  N   UNL     1     -41.477  57.060 -50.260  1.00  0.00    -0.309 N 
HETATM    4  O   UNL     1     -42.009  59.178 -50.780  1.00  0.00    -0.247 OA
HETATM    5  H   UNL     1     -43.572  56.592 -51.502  1.00  0.00     0.164 HD
HETATM    6  H   UNL     1     -40.907  57.484 -49.536  1.00  0.00     0.170 HD
ENDROOT
BRANCH   1   7
HETATM    7  C   UNL     1     -44.064  58.380 -52.570  1.00  0.00     0.164 C 
BRANCH   7   8
HETATM    8  C   UNL     1     -43.860  58.176 -54.107  1.00  0.00     0.261 C 
BRANCH   8   9
HETATM    9  C   UNL     1     -43.323  56.812 -54.408  1.00  0.00     0.085 A 
HETATM   10  O   UNL     1     -41.966  56.669 -54.417  1.00  0.00    -0.318 OA
HETATM   11  C   UNL     1     -41.700  55.373 -54.742  1.00  0.00     0.049 A 
HETATM   12  C   UNL     1     -40.276  54.987 -54.840  1.00  0.00     0.076 C 
HETATM   13  C   UNL     1     -42.877  54.679 -54.917  1.00  0.00     0.035 A 
HETATM   14  C   UNL     1     -43.925  55.605 -54.701  1.00  0.00     0.037 A 
ENDBRANCH   8   9
BRANCH   8  15
HETATM   15  N   UNL     1     -43.040  59.304 -54.741  1.00  0.00    -0.067 N 
HETATM   16  H   UNL     1     -42.054  58.992 -54.633  1.00  0.00     0.280 HD
HETATM   17  C   UNL     1     -43.215  59.508 -56.216  1.00  0.00     0.270 C 
HETATM   18  C   UNL     1     -43.147  60.594 -53.992  1.00  0.00     0.270 C 
ENDBRANCH   8  15
ENDBRANCH   7   8
ENDBRANCH   1   7
BRANCH   3  19
HETATM   19  C   UNL     1     -41.244  55.686 -50.474  1.00  0.00     0.036 A 
HETATM   20  C   UNL     1     -42.053  54.857 -51.249  1.00  0.00     0.032 A 
HETATM   21  C   UNL     1     -41.711  53.510 -51.454  1.00  0.00     0.032 A 
HETATM   22  C   UNL     1     -40.542  52.974 -50.902  1.00  0.00     0.040 A 
HETATM   23  C   UNL     1     -39.732  53.810 -50.122  1.00  0.00     0.032 A 
HETATM   24  C   UNL     1     -40.075  55.154 -49.923  1.00  0.00     0.032 A 
BRANCH  22  25
HETATM   25  N   UNL     1     -40.166  51.609 -51.105  1.00  0.00    -0.309 N 
HETATM   26  C   UNL     1     -39.745  50.956 -52.265  1.00  0.00     0.106 A 
HETATM   27  C   UNL     1     -39.412  51.597 -53.563  1.00  0.00     0.091 C 
HETATM   28  N   UNL     1     -39.564  49.665 -52.049  1.00  0.00    -0.246 NA
HETATM   29  C   UNL     1     -39.802  49.463 -50.726  1.00  0.00     0.136 A 
HETATM   30  C   UNL     1     -40.149  50.641 -50.116  1.00  0.00     0.118 A 
ENDBRANCH  22  25
ENDBRANCH   3  19
TORSDOF 6
ENDMDL
MODEL 8
REMARK VINA RESULT:      -6.9      4.361      8.271
REMARK  6 active torsions:
REMARK  status: ('A' for Active; 'I' for Inactive)
REMARK    1  A    between atoms: C_4  and  C_5 
REMARK    2  A    between atoms: C_5  and  N_6 
REMARK    3  A    between atoms: C_5  and  C_10 
REMARK    4  A    between atoms: C_10  and  N_11 
REMARK       I    between atoms: N_11  and  C_12 
REMARK       I    between atoms: C_12  and  N_13 
REMARK    5  A    between atoms: N_13  and  C_14 
REMARK    6  A    between atoms: C_17  and  N_18 
ROOT
HETATM    1  N   UNL     1     -41.496  55.468 -55.835  1.00  0.00    -0.340 N 
HETATM    2  C   UNL     1     -42.731  55.143 -56.287  1.00  0.00     0.320 C 
HETATM    3  N   UNL     1     -43.388  56.035 -57.067  1.00  0.00    -0.309 N 
HETATM    4  O   UNL     1     -43.285  54.105 -55.925  1.00  0.00    -0.247 OA
HETATM    5  H   UNL     1     -41.248  56.450 -55.884  1.00  0.00     0.164 HD
HETATM    6  H   UNL     1     -44.378  55.825 -57.140  1.00  0.00     0.170 HD
ENDROOT
BRANCH   1   7
HETATM    7  C   UNL     1     -40.609  54.568 -55.093  1.00  0.00     0.164 C 
BRANCH   7   8
HETATM    8  C   UNL     1     -40.713  54.621 -53.533  1.00  0.00     0.261 C 
BRANCH   8   9
HETATM    9  C   UNL     1     -40.268  53.333 -52.915  1.00  0.00     0.085 A 
HETATM   10  O   UNL     1     -40.177  52.250 -53.740  1.00  0.00    -0.318 OA
HETATM   11  C   UNL     1     -39.792  51.191 -52.974  1.00  0.00     0.049 A 
HETATM   12  C   UNL     1     -39.652  49.887 -53.656  1.00  0.00     0.076 C 
HETATM   13  C   UNL     1     -39.613  51.593 -51.668  1.00  0.00     0.035 A 
HETATM   14  C   UNL     1     -39.918  52.975 -51.629  1.00  0.00     0.037 A 
ENDBRANCH   8   9
BRANCH   8  15
HETATM   15  N   UNL     1     -42.096  55.076 -53.056  1.00  0.00    -0.067 N 
HETATM   16  H   UNL     1     -42.607  55.298 -53.934  1.00  0.00     0.280 HD
HETATM   17  C   UNL     1     -42.941  54.041 -52.376  1.00  0.00     0.270 C 
HETATM   18  C   UNL     1     -42.052  56.349 -52.273  1.00  0.00     0.270 C 
ENDBRANCH   8  15
ENDBRANCH   7   8
ENDBRANCH   1   7
BRANCH   3  19
HETATM   19  C   UNL     1     -42.939  57.084 -57.894  1.00  0.00     0.036 A 
HETATM   20  C   UNL     1     -42.354  56.908 -59.147  1.00  0.00     0.032 A 
HETATM   21  C   UNL     1     -41.988  58.017 -59.929  1.00  0.00     0.032 A 
HETATM   22  C   UNL     1     -42.220  59.320 -59.478  1.00  0.00     0.040 A 
HETATM   23  C   UNL     1     -42.808  59.494 -58.218  1.00  0.00     0.032 A 
HETATM   24  C   UNL     1     -43.174  58.386 -57.444  1.00  0.00     0.032 A 
BRANCH  22  25
HETATM   25  N   UNL     1     -41.867  60.465 -60.260  1.00  0.00    -0.309 N 
HETATM   26  C   UNL     1     -41.221  61.646 -59.885  1.00  0.00     0.106 A 
HETATM   27  C   UNL     1     -40.574  61.916 -58.576  1.00  0.00     0.091 C 
HETATM   28  N   UNL     1     -41.150  62.494 -60.895  1.00  0.00    -0.246 NA
HETATM   29  C   UNL     1     -41.691  61.857 -61.967  1.00  0.00     0.136 A 
HETATM   30  C   UNL     1     -42.116  60.602 -61.614  1.00  0.00     0.118 A 
ENDBRANCH  22  25
ENDBRANCH   3  19
TORSDOF 6
ENDMDL
MODEL 9
REMARK VINA RESULT:      -6.9      2.314      4.082
REMARK  6 active torsions:
REMARK  status: ('A' for Active; 'I' for Inactive)
REMARK    1  A    between atoms: C_4  and  C_5 
REMARK    2  A    between atoms: C_5  and  N_6 
REMARK    3  A    between atoms: C_5  and  C_10 
REMARK    4  A    between atoms: C_10  and  N_11 
REMARK       I    between atoms: N_11  and  C_12 
REMARK       I    between atoms: C_12  and  N_13 
REMARK    5  A    between atoms: N_13  and  C_14 
REMARK    6  A    between atoms: C_17  and  N_18 
ROOT
HETATM    1  N   UNL     1     -44.700  58.214 -52.826  1.00  0.00    -0.340 N 
HETATM    2  C   UNL     1     -44.538  58.374 -51.491  1.00  0.00     0.320 C 
HETATM    3  N   UNL     1     -43.970  57.368 -50.784  1.00  0.00    -0.309 N 
HETATM    4  O   UNL     1     -44.979  59.369 -50.914  1.00  0.00    -0.247 OA
HETATM    5  H   UNL     1     -44.632  57.263 -53.171  1.00  0.00     0.164 HD
HETATM    6  H   UNL     1     -44.123  57.466 -49.786  1.00  0.00     0.170 HD
ENDROOT
BRANCH   1   7
HETATM    7  C   UNL     1     -45.178  59.250 -53.745  1.00  0.00     0.164 C 
BRANCH   7   8
HETATM    8  C   UNL     1     -44.727  59.117 -55.237  1.00  0.00     0.261 C 
BRANCH   8   9
HETATM    9  C   UNL     1     -43.779  57.972 -55.417  1.00  0.00     0.085 A 
HETATM   10  O   UNL     1     -44.231  56.734 -55.064  1.00  0.00    -0.318 OA
HETATM   11  C   UNL     1     -43.208  55.858 -55.275  1.00  0.00     0.049 A 
HETATM   12  C   UNL     1     -43.461  54.441 -54.934  1.00  0.00     0.076 C 
HETATM   13  C   UNL     1     -42.113  56.522 -55.782  1.00  0.00     0.035 A 
HETATM   14  C   UNL     1     -42.480  57.886 -55.875  1.00  0.00     0.037 A 
ENDBRANCH   8   9
BRANCH   8  15
HETATM   15  N   UNL     1     -44.199  60.436 -55.807  1.00  0.00    -0.067 N 
HETATM   16  H   UNL     1     -43.308  60.173 -56.274  1.00  0.00     0.280 HD
HETATM   17  C   UNL     1     -45.021  61.071 -56.889  1.00  0.00     0.270 C 
HETATM   18  C   UNL     1     -43.832  61.425 -54.747  1.00  0.00     0.270 C 
ENDBRANCH   8  15
ENDBRANCH   7   8
ENDBRANCH   1   7
BRANCH   3  19
HETATM   19  C   UNL     1     -43.102  56.321 -51.154  1.00  0.00     0.036 A 
HETATM   20  C   UNL     1     -41.809  56.501 -51.643  1.00  0.00     0.032 A 
HETATM   21  C   UNL     1     -40.992  55.395 -51.932  1.00  0.00     0.032 A 
HETATM   22  C   UNL     1     -41.448  54.091 -51.718  1.00  0.00     0.040 A 
HETATM   23  C   UNL     1     -42.748  53.913 -51.226  1.00  0.00     0.032 A 
HETATM   24  C   UNL     1     -43.558  55.019 -50.936  1.00  0.00     0.032 A 
BRANCH  22  25
HETATM   25  N   UNL     1     -40.632  52.948 -51.994  1.00  0.00    -0.309 N 
HETATM   26  C   UNL     1     -40.173  52.445 -53.213  1.00  0.00     0.106 A 
HETATM   27  C   UNL     1     -40.289  53.108 -54.538  1.00  0.00     0.091 C 
HETATM   28  N   UNL     1     -39.502  51.320 -53.045  1.00  0.00    -0.246 NA
HETATM   29  C   UNL     1     -39.456  51.101 -51.704  1.00  0.00     0.136 A 
HETATM   30  C   UNL     1     -40.118  52.096 -51.033  1.00  0.00     0.118 A 
ENDBRANCH  22  25
ENDBRANCH   3  19
TORSDOF 6
ENDMDL
MODEL 10
REMARK VINA RESULT:      -6.6     15.170     17.901
REMARK  6 active torsions:
REMARK  status: ('A' for Active; 'I' for Inactive)
REMARK    1  A    between atoms: C_4  and  C_5 
REMARK    2  A    between atoms: C_5  and  N_6 
REMARK    3  A    between atoms: C_5  and  C_10 
REMARK    4  A    between atoms: C_10  and  N_11 
REMARK       I    between atoms: N_11  and  C_12 
REMARK       I    between atoms: C_12  and  N_13 
REMARK    5  A    between atoms: N_13  and  C_14 
REMARK    6  A    between atoms: C_17  and  N_18 
ROOT
HETATM    1  N   UNL     1     -33.457  41.176 -52.608  1.00  0.00    -0.340 N 
HETATM    2  C   UNL     1     -34.597  41.806 -52.238  1.00  0.00     0.320 C 
HETATM    3  N   UNL     1     -35.433  42.249 -53.208  1.00  0.00    -0.309 N 
HETATM    4  O   UNL     1     -34.828  42.057 -51.055  1.00  0.00    -0.247 OA
HETATM    5  H   UNL     1     -33.170  41.305 -53.571  1.00  0.00     0.164 HD
HETATM    6  H   UNL     1     -36.111  42.918 -52.856  1.00  0.00     0.170 HD
ENDROOT
BRANCH   1   7
HETATM    7  C   UNL     1     -32.517  40.531 -51.686  1.00  0.00     0.164 C 
BRANCH   7   8
HETATM    8  C   UNL     1     -32.369  38.980 -51.820  1.00  0.00     0.261 C 
BRANCH   8   9
HETATM    9  C   UNL     1     -31.754  38.604 -53.132  1.00  0.00     0.085 A 
HETATM   10  O   UNL     1     -31.712  39.570 -54.094  1.00  0.00    -0.318 OA
HETATM   11  C   UNL     1     -31.151  39.010 -55.203  1.00  0.00     0.049 A 
HETATM   12  C   UNL     1     -31.024  39.873 -56.397  1.00  0.00     0.076 C 
HETATM   13  C   UNL     1     -30.813  37.699 -54.950  1.00  0.00     0.035 A 
HETATM   14  C   UNL     1     -31.200  37.436 -53.614  1.00  0.00     0.037 A 
ENDBRANCH   8   9
BRANCH   8  15
HETATM   15  N   UNL     1     -33.679  38.241 -51.530  1.00  0.00    -0.067 N 
HETATM   16  H   UNL     1     -33.383  37.260 -51.350  1.00  0.00     0.280 HD
HETATM   17  C   UNL     1     -34.415  38.650 -50.291  1.00  0.00     0.270 C 
HETATM   18  C   UNL     1     -34.590  38.184 -52.715  1.00  0.00     0.270 C 
ENDBRANCH   8  15
ENDBRANCH   7   8
ENDBRANCH   1   7
BRANCH   3  19
HETATM   19  C   UNL     1     -35.629  41.851 -54.546  1.00  0.00     0.036 A 
HETATM   20  C   UNL     1     -34.892  42.326 -55.629  1.00  0.00     0.032 A 
HETATM   21  C   UNL     1     -35.119  41.829 -56.923  1.00  0.00     0.032 A 
HETATM   22  C   UNL     1     -36.074  40.834 -57.153  1.00  0.00     0.040 A 
HETATM   23  C   UNL     1     -36.814  40.358 -56.062  1.00  0.00     0.032 A 
HETATM   24  C   UNL     1     -36.582  40.854 -54.773  1.00  0.00     0.032 A 
BRANCH  22  25
HETATM   25  N   UNL     1     -36.316  40.303 -58.459  1.00  0.00    -0.309 N 
HETATM   26  C   UNL     1     -36.936  40.888 -59.566  1.00  0.00     0.106 A 
HETATM   27  C   UNL     1     -37.347  42.309 -59.695  1.00  0.00     0.091 C 
HETATM   28  N   UNL     1     -37.029  40.033 -60.569  1.00  0.00    -0.246 NA
HETATM   29  C   UNL     1     -36.412  38.893 -60.157  1.00  0.00     0.136 A 
HETATM   30  C   UNL     1     -35.943  39.038 -58.877  1.00  0.00     0.118 A 
ENDBRANCH  22  25
ENDBRANCH   3  19
TORSDOF 6
ENDMDL
