MODEL 1
REMARK VINA RESULT:      -8.2      0.000      0.000
REMARK  4 active torsions:
REMARK  status: ('A' for Active; 'I' for Inactive)
REMARK    1  A    between atoms: C_6  and  C_7 
REMARK    2  A    between atoms: C_7  and  N_8 
REMARK       I    between atoms: N_8  and  C_9 
REMARK    3  A    between atoms: C_9  and  C_10 
REMARK    4  A    between atoms: C_14  and  C_15 
ROOT
HETATM    1  N   UNL     1     -43.449  59.433 -51.470  1.00  0.00    -0.349 N 
HETATM    2  C   UNL     1     -42.155  59.073 -51.726  1.00  0.00     0.270 C 
HETATM    3  O   UNL     1     -41.288  59.902 -51.992  1.00  0.00    -0.266 OA
HETATM    4  H   UNL     1     -44.170  58.746 -51.284  1.00  0.00     0.163 HD
ENDROOT
BRANCH   2   5
HETATM    5  C   UNL     1     -41.876  57.665 -51.671  1.00  0.00     0.120 A 
HETATM    6  N   UNL     1     -42.144  56.929 -50.552  1.00  0.00    -0.272 N 
HETATM    7  H   UNL     1     -42.548  57.269 -49.685  1.00  0.00     0.189 HD
HETATM    8  N   UNL     1     -41.816  55.633 -50.652  1.00  0.00    -0.174 NA
HETATM    9  C   UNL     1     -41.331  55.500 -51.897  1.00  0.00     0.089 A 
HETATM   10  C   UNL     1     -41.346  56.758 -52.567  1.00  0.00     0.071 A 
BRANCH   9  11
HETATM   11  C   UNL     1     -40.869  54.202 -52.402  1.00  0.00    -0.006 A 
HETATM   12  C   UNL     1     -40.224  53.282 -51.561  1.00  0.00     0.015 A 
HETATM   13  C   UNL     1     -39.786  52.048 -52.057  1.00  0.00     0.024 A 
HETATM   14  C   UNL     1     -39.989  51.726 -53.397  1.00  0.00     0.034 A 
HETATM   15 CL   UNL     1     -39.449  50.209 -54.003  1.00  0.00    -0.084 Cl
HETATM   16  C   UNL     1     -40.626  52.625 -54.246  1.00  0.00     0.024 A 
HETATM   17  C   UNL     1     -41.060  53.858 -53.750  1.00  0.00     0.015 A 
ENDBRANCH   9  11
ENDBRANCH   2   5
BRANCH   1  18
HETATM   18  C   UNL     1     -43.864  60.811 -51.511  1.00  0.00     0.201 C 
BRANCH  18  19
HETATM   19  C   UNL     1     -44.533  61.149 -50.226  1.00  0.00     0.123 A 
HETATM   20  N   UNL     1     -45.655  61.828 -50.063  1.00  0.00    -0.232 NA
HETATM   21  C   UNL     1     -45.855  61.887 -48.705  1.00  0.00     0.085 A 
HETATM   22  C   UNL     1     -44.838  61.230 -48.024  1.00  0.00     0.062 A 
HETATM   23  C   UNL     1     -46.889  62.491 -47.974  1.00  0.00     0.034 A 
HETATM   24  C   UNL     1     -44.784  61.132 -46.631  1.00  0.00     0.032 A 
HETATM   25  N   UNL     1     -44.011  60.768 -49.014  1.00  0.00    -0.341 N 
HETATM   26  C   UNL     1     -45.823  61.741 -45.919  1.00  0.00     0.002 A 
HETATM   27  C   UNL     1     -46.859  62.410 -46.576  1.00  0.00     0.002 A 
HETATM   28  H   UNL     1     -43.160  60.241 -48.873  1.00  0.00     0.167 HD
ENDBRANCH  18  19
ENDBRANCH   1  18
TORSDOF 4
ENDMDL
MODEL 2
REMARK VINA RESULT:      -8.0      6.864      8.146
REMARK  4 active torsions:
REMARK  status: ('A' for Active; 'I' for Inactive)
REMARK    1  A    between atoms: C_6  and  C_7 
REMARK    2  A    between atoms: C_7  and  N_8 
REMARK       I    between atoms: N_8  and  C_9 
REMARK    3  A    between atoms: C_9  and  C_10 
REMARK    4  A    between atoms: C_14  and  C_15 
ROOT
HETATM    1  N   UNL     1     -42.730  56.441 -57.820  1.00  0.00    -0.349 N 
HETATM    2  C   UNL     1     -43.062  56.334 -56.498  1.00  0.00     0.270 C 
HETATM    3  O   UNL     1     -44.079  56.848 -56.038  1.00  0.00    -0.266 OA
HETATM    4  H   UNL     1     -41.874  56.047 -58.192  1.00  0.00     0.163 HD
ENDROOT
BRANCH   2   5
HETATM    5  C   UNL     1     -42.144  55.591 -55.682  1.00  0.00     0.120 A 
HETATM    6  N   UNL     1     -40.896  56.068 -55.398  1.00  0.00    -0.272 N 
HETATM    7  H   UNL     1     -40.498  56.949 -55.711  1.00  0.00     0.189 HD
HETATM    8  N   UNL     1     -40.153  55.254 -54.636  1.00  0.00    -0.174 NA
HETATM    9  C   UNL     1     -40.950  54.202 -54.384  1.00  0.00     0.089 A 
HETATM   10  C   UNL     1     -42.208  54.374 -55.031  1.00  0.00     0.071 A 
BRANCH   9  11
HETATM   11  C   UNL     1     -40.496  53.081 -53.555  1.00  0.00    -0.006 A 
HETATM   12  C   UNL     1     -40.168  51.841 -54.124  1.00  0.00     0.015 A 
HETATM   13  C   UNL     1     -39.739  50.778 -53.320  1.00  0.00     0.024 A 
HETATM   14  C   UNL     1     -39.634  50.948 -51.941  1.00  0.00     0.034 A 
HETATM   15 CL   UNL     1     -39.106  49.640 -50.955  1.00  0.00    -0.084 Cl
HETATM   16  C   UNL     1     -39.954  52.170 -51.358  1.00  0.00     0.024 A 
HETATM   17  C   UNL     1     -40.386  53.229 -52.162  1.00  0.00     0.015 A 
ENDBRANCH   9  11
ENDBRANCH   2   5
BRANCH   1  18
HETATM   18  C   UNL     1     -43.557  57.176 -58.741  1.00  0.00     0.201 C 
BRANCH  18  19
HETATM   19  C   UNL     1     -42.875  58.455 -59.083  1.00  0.00     0.123 A 
HETATM   20  N   UNL     1     -42.734  58.990 -60.282  1.00  0.00    -0.232 NA
HETATM   21  C   UNL     1     -42.030  60.154 -60.085  1.00  0.00     0.085 A 
HETATM   22  C   UNL     1     -41.737  60.335 -58.739  1.00  0.00     0.062 A 
HETATM   23  C   UNL     1     -41.600  61.113 -61.014  1.00  0.00     0.034 A 
HETATM   24  C   UNL     1     -41.028  61.434 -58.248  1.00  0.00     0.032 A 
HETATM   25  N   UNL     1     -42.286  59.241 -58.122  1.00  0.00    -0.341 N 
HETATM   26  C   UNL     1     -40.607  62.380 -59.189  1.00  0.00     0.002 A 
HETATM   27  C   UNL     1     -40.886  62.225 -60.550  1.00  0.00     0.002 A 
HETATM   28  H   UNL     1     -42.258  59.047 -57.131  1.00  0.00     0.167 HD
ENDBRANCH  18  19
ENDBRANCH   1  18
TORSDOF 4
ENDMDL
MODEL 3
REMARK VINA RESULT:      -8.0      6.155      8.332
REMARK  4 active torsions:
REMARK  status: ('A' for Active; 'I' for Inactive)
REMARK    1  A    between atoms: C_6  and  C_7 
REMARK    2  A    between atoms: C_7  and  N_8 
REMARK       I    between atoms: N_8  and  C_9 
REMARK    3  A    between atoms: C_9  and  C_10 
REMARK    4  A    between atoms: C_14  and  C_15 
ROOT
HETATM    1  N   UNL     1     -42.072  57.044 -57.514  1.00  0.00    -0.349 N 
HETATM    2  C   UNL     1     -42.153  57.456 -56.213  1.00  0.00     0.270 C 
HETATM    3  O   UNL     1     -42.321  58.635 -55.911  1.00  0.00    -0.266 OA
HETATM    4  H   UNL     1     -41.899  56.078 -57.761  1.00  0.00     0.163 HD
ENDROOT
BRANCH   2   5
HETATM    5  C   UNL     1     -42.021  56.424 -55.223  1.00  0.00     0.120 A 
HETATM    6  N   UNL     1     -42.933  56.282 -54.216  1.00  0.00    -0.272 N 
HETATM    7  H   UNL     1     -43.758  56.853 -54.061  1.00  0.00     0.189 HD
HETATM    8  N   UNL     1     -42.665  55.282 -53.365  1.00  0.00    -0.174 NA
HETATM    9  C   UNL     1     -41.541  54.723 -53.840  1.00  0.00     0.089 A 
HETATM   10  C   UNL     1     -41.101  55.417 -55.004  1.00  0.00     0.071 A 
BRANCH   9  11
HETATM   11  C   UNL     1     -40.925  53.566 -53.180  1.00  0.00    -0.006 A 
HETATM   12  C   UNL     1     -40.847  53.483 -51.781  1.00  0.00     0.015 A 
HETATM   13  C   UNL     1     -40.254  52.376 -51.164  1.00  0.00     0.024 A 
HETATM   14  C   UNL     1     -39.735  51.342 -51.941  1.00  0.00     0.034 A 
HETATM   15 CL   UNL     1     -39.006  49.983 -51.180  1.00  0.00    -0.084 Cl
HETATM   16  C   UNL     1     -39.802  51.406 -53.329  1.00  0.00     0.024 A 
HETATM   17  C   UNL     1     -40.392  52.515 -53.944  1.00  0.00     0.015 A 
ENDBRANCH   9  11
ENDBRANCH   2   5
BRANCH   1  18
HETATM   18  C   UNL     1     -42.169  57.982 -58.602  1.00  0.00     0.201 C 
BRANCH  18  19
HETATM   19  C   UNL     1     -43.510  57.847 -59.234  1.00  0.00     0.123 A 
HETATM   20  N   UNL     1     -44.350  58.818 -59.543  1.00  0.00    -0.232 NA
HETATM   21  C   UNL     1     -45.447  58.197 -60.089  1.00  0.00     0.085 A 
HETATM   22  C   UNL     1     -45.274  56.818 -60.118  1.00  0.00     0.062 A 
HETATM   23  C   UNL     1     -46.639  58.747 -60.584  1.00  0.00     0.034 A 
HETATM   24  C   UNL     1     -46.231  55.933 -60.620  1.00  0.00     0.032 A 
HETATM   25  N   UNL     1     -44.033  56.621 -59.570  1.00  0.00    -0.341 N 
HETATM   26  C   UNL     1     -47.413  56.500 -61.110  1.00  0.00     0.002 A 
HETATM   27  C   UNL     1     -47.617  57.882 -61.093  1.00  0.00     0.002 A 
HETATM   28  H   UNL     1     -43.584  55.727 -59.434  1.00  0.00     0.167 HD
ENDBRANCH  18  19
ENDBRANCH   1  18
TORSDOF 4
ENDMDL
MODEL 4
REMARK VINA RESULT:      -7.8     18.709     20.720
REMARK  4 active torsions:
REMARK  status: ('A' for Active; 'I' for Inactive)
REMARK    1  A    between atoms: C_6  and  C_7 
REMARK    2  A    between atoms: C_7  and  N_8 
REMARK       I    between atoms: N_8  and  C_9 
REMARK    3  A    between atoms: C_9  and  C_10 
REMARK    4  A    between atoms: C_14  and  C_15 
ROOT
HETATM    1  N   UNL     1     -34.757  41.692 -54.575  1.00  0.00    -0.349 N 
HETATM    2  C   UNL     1     -35.319  41.819 -53.336  1.00  0.00     0.270 C 
HETATM    3  O   UNL     1     -36.182  42.661 -53.094  1.00  0.00    -0.266 OA
HETATM    4  H   UNL     1     -34.022  41.022 -54.765  1.00  0.00     0.163 HD
ENDROOT
BRANCH   2   5
HETATM    5  C   UNL     1     -34.833  40.913 -52.334  1.00  0.00     0.120 A 
HETATM    6  N   UNL     1     -35.068  39.570 -52.413  1.00  0.00    -0.272 N 
HETATM    7  H   UNL     1     -35.581  39.086 -53.144  1.00  0.00     0.189 HD
HETATM    8  N   UNL     1     -34.561  38.859 -51.397  1.00  0.00    -0.174 NA
HETATM    9  C   UNL     1     -33.943  39.766 -50.622  1.00  0.00     0.089 A 
HETATM   10  C   UNL     1     -34.098  41.070 -51.175  1.00  0.00     0.071 A 
BRANCH   9  11
HETATM   11  C   UNL     1     -33.241  39.371 -49.396  1.00  0.00    -0.006 A 
HETATM   12  C   UNL     1     -33.778  38.408 -48.527  1.00  0.00     0.015 A 
HETATM   13  C   UNL     1     -33.099  38.044 -47.359  1.00  0.00     0.024 A 
HETATM   14  C   UNL     1     -31.877  38.638 -47.051  1.00  0.00     0.034 A 
HETATM   15 CL   UNL     1     -31.045  38.188 -45.614  1.00  0.00    -0.084 Cl
HETATM   16  C   UNL     1     -31.328  39.594 -47.899  1.00  0.00     0.024 A 
HETATM   17  C   UNL     1     -32.010  39.960 -49.064  1.00  0.00     0.015 A 
ENDBRANCH   9  11
ENDBRANCH   2   5
BRANCH   1  18
HETATM   18  C   UNL     1     -35.143  42.553 -55.663  1.00  0.00     0.201 C 
BRANCH  18  19
HETATM   19  C   UNL     1     -35.931  41.760 -56.646  1.00  0.00     0.123 A 
HETATM   20  N   UNL     1     -36.652  40.679 -56.406  1.00  0.00    -0.232 NA
HETATM   21  C   UNL     1     -37.174  40.308 -57.622  1.00  0.00     0.085 A 
HETATM   22  C   UNL     1     -36.768  41.181 -58.624  1.00  0.00     0.062 A 
HETATM   23  C   UNL     1     -38.008  39.229 -57.951  1.00  0.00     0.034 A 
HETATM   24  C   UNL     1     -37.148  41.046 -59.961  1.00  0.00     0.032 A 
HETATM   25  N   UNL     1     -35.979  42.096 -57.977  1.00  0.00    -0.341 N 
HETATM   26  C   UNL     1     -37.980  39.964 -60.271  1.00  0.00     0.002 A 
HETATM   27  C   UNL     1     -38.404  39.069 -59.285  1.00  0.00     0.002 A 
HETATM   28  H   UNL     1     -35.512  42.881 -58.409  1.00  0.00     0.167 HD
ENDBRANCH  18  19
ENDBRANCH   1  18
TORSDOF 4
ENDMDL
MODEL 5
REMARK VINA RESULT:      -7.8      4.616      7.257
REMARK  4 active torsions:
REMARK  status: ('A' for Active; 'I' for Inactive)
REMARK    1  A    between atoms: C_6  and  C_7 
REMARK    2  A    between atoms: C_7  and  N_8 
REMARK       I    between atoms: N_8  and  C_9 
REMARK    3  A    between atoms: C_9  and  C_10 
REMARK    4  A    between atoms: C_14  and  C_15 
ROOT
HETATM    1  N   UNL     1     -41.713  58.876 -54.501  1.00  0.00    -0.349 N 
HETATM    2  C   UNL     1     -42.361  58.306 -53.441  1.00  0.00     0.270 C 
HETATM    3  O   UNL     1     -43.296  58.864 -52.872  1.00  0.00    -0.266 OA
HETATM    4  H   UNL     1     -40.920  58.431 -54.947  1.00  0.00     0.163 HD
ENDROOT
BRANCH   2   5
HETATM    5  C   UNL     1     -41.874  57.018 -53.030  1.00  0.00     0.120 A 
HETATM    6  N   UNL     1     -41.662  56.723 -51.714  1.00  0.00    -0.272 N 
HETATM    7  H   UNL     1     -41.815  57.341 -50.922  1.00  0.00     0.189 HD
HETATM    8  N   UNL     1     -41.196  55.487 -51.493  1.00  0.00    -0.174 NA
HETATM    9  C   UNL     1     -41.116  54.930 -52.713  1.00  0.00     0.089 A 
HETATM   10  C   UNL     1     -41.528  55.865 -53.706  1.00  0.00     0.071 A 
BRANCH   9  11
HETATM   11  C   UNL     1     -40.652  53.550 -52.893  1.00  0.00    -0.006 A 
HETATM   12  C   UNL     1     -40.011  52.856 -51.856  1.00  0.00     0.015 A 
HETATM   13  C   UNL     1     -39.570  51.541 -52.043  1.00  0.00     0.024 A 
HETATM   14  C   UNL     1     -39.768  50.910 -53.270  1.00  0.00     0.034 A 
HETATM   15 CL   UNL     1     -39.225  49.293 -53.497  1.00  0.00    -0.084 Cl
HETATM   16  C   UNL     1     -40.401  51.581 -54.311  1.00  0.00     0.024 A 
HETATM   17  C   UNL     1     -40.838  52.896 -54.123  1.00  0.00     0.015 A 
ENDBRANCH   9  11
ENDBRANCH   2   5
BRANCH   1  18
HETATM   18  C   UNL     1     -42.091  60.173 -54.998  1.00  0.00     0.201 C 
BRANCH  18  19
HETATM   19  C   UNL     1     -42.039  60.150 -56.486  1.00  0.00     0.123 A 
HETATM   20  N   UNL     1     -42.238  59.110 -57.276  1.00  0.00    -0.232 NA
HETATM   21  C   UNL     1     -42.073  59.584 -58.556  1.00  0.00     0.085 A 
HETATM   22  C   UNL     1     -41.770  60.939 -58.548  1.00  0.00     0.062 A 
HETATM   23  C   UNL     1     -42.165  58.910 -59.783  1.00  0.00     0.034 A 
HETATM   24  C   UNL     1     -41.548  61.685 -59.709  1.00  0.00     0.032 A 
HETATM   25  N   UNL     1     -41.755  61.276 -57.219  1.00  0.00    -0.341 N 
HETATM   26  C   UNL     1     -41.644  60.996 -60.924  1.00  0.00     0.002 A 
HETATM   27  C   UNL     1     -41.946  59.632 -60.963  1.00  0.00     0.002 A 
HETATM   28  H   UNL     1     -41.565  62.196 -56.846  1.00  0.00     0.167 HD
ENDBRANCH  18  19
ENDBRANCH   1  18
TORSDOF 4
ENDMDL
MODEL 6
REMARK VINA RESULT:      -7.7      6.451      9.772
REMARK  4 active torsions:
REMARK  status: ('A' for Active; 'I' for Inactive)
REMARK    1  A    between atoms: C_6  and  C_7 
REMARK    2  A    between atoms: C_7  and  N_8 
REMARK       I    between atoms: N_8  and  C_9 
REMARK    3  A    between atoms: C_9  and  C_10 
REMARK    4  A    between atoms: C_14  and  C_15 
ROOT
HETATM    1  N   UNL     1     -41.291  55.714 -53.446  1.00  0.00    -0.349 N 
HETATM    2  C   UNL     1     -42.526  55.672 -54.030  1.00  0.00     0.270 C 
HETATM    3  O   UNL     1     -43.506  55.209 -53.452  1.00  0.00    -0.266 OA
HETATM    4  H   UNL     1     -40.477  56.064 -53.935  1.00  0.00     0.163 HD
ENDROOT
BRANCH   2   5
HETATM    5  C   UNL     1     -42.603  56.197 -55.365  1.00  0.00     0.120 A 
HETATM    6  N   UNL     1     -43.222  55.507 -56.368  1.00  0.00    -0.272 N 
HETATM    7  H   UNL     1     -43.673  54.600 -56.291  1.00  0.00     0.189 HD
HETATM    8  N   UNL     1     -43.199  56.122 -57.558  1.00  0.00    -0.174 NA
HETATM    9  C   UNL     1     -42.557  57.279 -57.331  1.00  0.00     0.089 A 
HETATM   10  C   UNL     1     -42.160  57.360 -55.964  1.00  0.00     0.071 A 
BRANCH   9  11
HETATM   11  C   UNL     1     -42.339  58.255 -58.404  1.00  0.00    -0.006 A 
HETATM   12  C   UNL     1     -42.177  57.847 -59.737  1.00  0.00     0.015 A 
HETATM   13  C   UNL     1     -41.966  58.789 -60.751  1.00  0.00     0.024 A 
HETATM   14  C   UNL     1     -41.916  60.146 -60.439  1.00  0.00     0.034 A 
HETATM   15 CL   UNL     1     -41.656  61.301 -61.688  1.00  0.00    -0.084 Cl
HETATM   16  C   UNL     1     -42.073  60.570 -59.124  1.00  0.00     0.024 A 
HETATM   17  C   UNL     1     -42.281  59.628 -58.112  1.00  0.00     0.015 A 
ENDBRANCH   9  11
ENDBRANCH   2   5
BRANCH   1  18
HETATM   18  C   UNL     1     -41.076  55.202 -52.117  1.00  0.00     0.201 C 
BRANCH  18  19
HETATM   19  C   UNL     1     -40.664  53.775 -52.214  1.00  0.00     0.123 A 
HETATM   20  N   UNL     1     -40.412  53.088 -53.315  1.00  0.00    -0.232 NA
HETATM   21  C   UNL     1     -40.084  51.823 -52.892  1.00  0.00     0.085 A 
HETATM   22  C   UNL     1     -40.133  51.734 -51.507  1.00  0.00     0.062 A 
HETATM   23  C   UNL     1     -39.733  50.688 -53.639  1.00  0.00     0.034 A 
HETATM   24  C   UNL     1     -39.847  50.562 -50.801  1.00  0.00     0.032 A 
HETATM   25  N   UNL     1     -40.503  52.989 -51.099  1.00  0.00    -0.341 N 
HETATM   26  C   UNL     1     -39.498  49.441 -51.562  1.00  0.00     0.002 A 
HETATM   27  C   UNL     1     -39.442  49.500 -52.957  1.00  0.00     0.002 A 
HETATM   28  H   UNL     1     -40.636  53.282 -50.141  1.00  0.00     0.167 HD
ENDBRANCH  18  19
ENDBRANCH   1  18
TORSDOF 4
ENDMDL
MODEL 7
REMARK VINA RESULT:      -7.7      5.014      7.862
REMARK  4 active torsions:
REMARK  status: ('A' for Active; 'I' for Inactive)
REMARK    1  A    between atoms: C_6  and  C_7 
REMARK    2  A    between atoms: C_7  and  N_8 
REMARK       I    between atoms: N_8  and  C_9 
REMARK    3  A    between atoms: C_9  and  C_10 
REMARK    4  A    between atoms: C_14  and  C_15 
ROOT
HETATM    1  N   UNL     1     -42.717  57.809 -55.595  1.00  0.00    -0.349 N 
HETATM    2  C   UNL     1     -43.065  57.819 -54.274  1.00  0.00     0.270 C 
HETATM    3  O   UNL     1     -43.899  58.603 -53.826  1.00  0.00    -0.266 OA
HETATM    4  H   UNL     1     -42.004  57.186 -55.957  1.00  0.00     0.163 HD
ENDROOT
BRANCH   2   5
HETATM    5  C   UNL     1     -42.390  56.863 -53.442  1.00  0.00     0.120 A 
HETATM    6  N   UNL     1     -41.880  57.212 -52.224  1.00  0.00    -0.272 N 
HETATM    7  H   UNL     1     -41.918  58.130 -51.792  1.00  0.00     0.189 HD
HETATM    8  N   UNL     1     -41.269  56.212 -51.574  1.00  0.00    -0.174 NA
HETATM    9  C   UNL     1     -41.398  55.150 -52.385  1.00  0.00     0.089 A 
HETATM   10  C   UNL     1     -42.092  55.520 -53.573  1.00  0.00     0.071 A 
BRANCH   9  11
HETATM   11  C   UNL     1     -40.860  53.836 -52.014  1.00  0.00    -0.006 A 
HETATM   12  C   UNL     1     -40.862  53.399 -50.680  1.00  0.00     0.015 A 
HETATM   13  C   UNL     1     -40.343  52.144 -50.340  1.00  0.00     0.024 A 
HETATM   14  C   UNL     1     -39.819  51.317 -51.331  1.00  0.00     0.034 A 
HETATM   15 CL   UNL     1     -39.182  49.776 -50.909  1.00  0.00    -0.084 Cl
HETATM   16  C   UNL     1     -39.808  51.732 -52.658  1.00  0.00     0.024 A 
HETATM   17  C   UNL     1     -40.324  52.987 -52.996  1.00  0.00     0.015 A 
ENDBRANCH   9  11
ENDBRANCH   2   5
BRANCH   1  18
HETATM   18  C   UNL     1     -43.306  58.730 -56.532  1.00  0.00     0.201 C 
BRANCH  18  19
HETATM   19  C   UNL     1     -43.950  57.955 -57.627  1.00  0.00     0.123 A 
HETATM   20  N   UNL     1     -43.385  57.044 -58.400  1.00  0.00    -0.232 NA
HETATM   21  C   UNL     1     -44.374  56.626 -59.257  1.00  0.00     0.085 A 
HETATM   22  C   UNL     1     -45.567  57.291 -59.003  1.00  0.00     0.062 A 
HETATM   23  C   UNL     1     -44.327  55.676 -60.289  1.00  0.00     0.034 A 
HETATM   24  C   UNL     1     -46.742  57.066 -59.723  1.00  0.00     0.032 A 
HETATM   25  N   UNL     1     -45.271  58.130 -57.960  1.00  0.00    -0.341 N 
HETATM   26  C   UNL     1     -46.677  56.115 -60.749  1.00  0.00     0.002 A 
HETATM   27  C   UNL     1     -45.491  55.431 -61.029  1.00  0.00     0.002 A 
HETATM   28  H   UNL     1     -45.915  58.770 -57.516  1.00  0.00     0.167 HD
ENDBRANCH  18  19
ENDBRANCH   1  18
TORSDOF 4
ENDMDL
MODEL 8
REMARK VINA RESULT:      -7.7      1.029      1.610
REMARK  4 active torsions:
REMARK  status: ('A' for Active; 'I' for Inactive)
REMARK    1  A    between atoms: C_6  and  C_7 
REMARK    2  A    between atoms: C_7  and  N_8 
REMARK       I    between atoms: N_8  and  C_9 
REMARK    3  A    between atoms: C_9  and  C_10 
REMARK    4  A    between atoms: C_14  and  C_15 
ROOT
HETATM    1  N   UNL     1     -43.187  59.094 -52.289  1.00  0.00    -0.349 N 
HETATM    2  C   UNL     1     -41.864  58.810 -52.095  1.00  0.00     0.270 C 
HETATM    3  O   UNL     1     -41.012  59.692 -52.025  1.00  0.00    -0.266 OA
HETATM    4  H   UNL     1     -43.885  58.365 -52.381  1.00  0.00     0.163 HD
ENDROOT
BRANCH   2   5
HETATM    5  C   UNL     1     -41.534  57.416 -51.988  1.00  0.00     0.120 A 
HETATM    6  N   UNL     1     -41.515  56.779 -50.781  1.00  0.00    -0.272 N 
HETATM    7  H   UNL     1     -41.721  57.191 -49.875  1.00  0.00     0.189 HD
HETATM    8  N   UNL     1     -41.176  55.484 -50.844  1.00  0.00    -0.174 NA
HETATM    9  C   UNL     1     -40.983  55.247 -52.152  1.00  0.00     0.089 A 
HETATM   10  C   UNL     1     -41.192  56.440 -52.903  1.00  0.00     0.071 A 
BRANCH   9  11
HETATM   11  C   UNL     1     -40.606  53.915 -52.639  1.00  0.00    -0.006 A 
HETATM   12  C   UNL     1     -40.811  53.544 -53.976  1.00  0.00     0.015 A 
HETATM   13  C   UNL     1     -40.450  52.269 -54.426  1.00  0.00     0.024 A 
HETATM   14  C   UNL     1     -39.880  51.356 -53.542  1.00  0.00     0.034 A 
HETATM   15 CL   UNL     1     -39.437  49.789 -54.098  1.00  0.00    -0.084 Cl
HETATM   16  C   UNL     1     -39.668  51.704 -52.212  1.00  0.00     0.024 A 
HETATM   17  C   UNL     1     -40.033  52.978 -51.763  1.00  0.00     0.015 A 
ENDBRANCH   9  11
ENDBRANCH   2   5
BRANCH   1  18
HETATM   18  C   UNL     1     -43.648  60.450 -52.431  1.00  0.00     0.201 C 
BRANCH  18  19
HETATM   19  C   UNL     1     -44.060  60.960 -51.094  1.00  0.00     0.123 A 
HETATM   20  N   UNL     1     -44.683  60.290 -50.141  1.00  0.00    -0.232 NA
HETATM   21  C   UNL     1     -44.852  61.186 -49.112  1.00  0.00     0.085 A 
HETATM   22  C   UNL     1     -44.319  62.426 -49.442  1.00  0.00     0.062 A 
HETATM   23  C   UNL     1     -45.457  61.012 -47.859  1.00  0.00     0.034 A 
HETATM   24  C   UNL     1     -44.349  63.528 -48.583  1.00  0.00     0.032 A 
HETATM   25  N   UNL     1     -43.820  62.256 -50.707  1.00  0.00    -0.341 N 
HETATM   26  C   UNL     1     -44.957  63.336 -47.337  1.00  0.00     0.002 A 
HETATM   27  C   UNL     1     -45.502  62.101 -46.979  1.00  0.00     0.002 A 
HETATM   28  H   UNL     1     -43.358  62.965 -51.259  1.00  0.00     0.167 HD
ENDBRANCH  18  19
ENDBRANCH   1  18
TORSDOF 4
ENDMDL
MODEL 9
REMARK VINA RESULT:      -7.7      5.367      9.430
REMARK  4 active torsions:
REMARK  status: ('A' for Active; 'I' for Inactive)
REMARK    1  A    between atoms: C_6  and  C_7 
REMARK    2  A    between atoms: C_7  and  N_8 
REMARK       I    between atoms: N_8  and  C_9 
REMARK    3  A    between atoms: C_9  and  C_10 
REMARK    4  A    between atoms: C_14  and  C_15 
ROOT
HETATM    1  N   UNL     1     -41.197  56.350 -52.524  1.00  0.00    -0.349 N 
HETATM    2  C   UNL     1     -42.245  57.192 -52.774  1.00  0.00     0.270 C 
HETATM    3  O   UNL     1     -43.237  57.231 -52.050  1.00  0.00    -0.266 OA
HETATM    4  H   UNL     1     -40.396  56.294 -53.141  1.00  0.00     0.163 HD
ENDROOT
BRANCH   2   5
HETATM    5  C   UNL     1     -42.116  58.020 -53.941  1.00  0.00     0.120 A 
HETATM    6  N   UNL     1     -41.760  59.335 -53.845  1.00  0.00    -0.272 N 
HETATM    7  H   UNL     1     -41.556  59.847 -52.992  1.00  0.00     0.189 HD
HETATM    8  N   UNL     1     -41.695  59.976 -55.020  1.00  0.00    -0.174 NA
HETATM    9  C   UNL     1     -41.999  59.042 -55.935  1.00  0.00     0.089 A 
HETATM   10  C   UNL     1     -42.277  57.800 -55.295  1.00  0.00     0.071 A 
BRANCH   9  11
HETATM   11  C   UNL     1     -42.021  59.356 -57.368  1.00  0.00    -0.006 A 
HETATM   12  C   UNL     1     -42.308  58.370 -58.325  1.00  0.00     0.015 A 
HETATM   13  C   UNL     1     -42.323  58.683 -59.689  1.00  0.00     0.024 A 
HETATM   14  C   UNL     1     -42.051  59.984 -60.107  1.00  0.00     0.034 A 
HETATM   15 CL   UNL     1     -42.069  60.365 -61.784  1.00  0.00    -0.084 Cl
HETATM   16  C   UNL     1     -41.764  60.975 -59.174  1.00  0.00     0.024 A 
HETATM   17  C   UNL     1     -41.746  60.660 -57.812  1.00  0.00     0.015 A 
ENDBRANCH   9  11
ENDBRANCH   2   5
BRANCH   1  18
HETATM   18  C   UNL     1     -41.210  55.454 -51.397  1.00  0.00     0.201 C 
BRANCH  18  19
HETATM   19  C   UNL     1     -40.808  54.098 -51.859  1.00  0.00     0.123 A 
HETATM   20  N   UNL     1     -40.276  53.131 -51.132  1.00  0.00    -0.232 NA
HETATM   21  C   UNL     1     -40.073  52.086 -52.001  1.00  0.00     0.085 A 
HETATM   22  C   UNL     1     -40.491  52.419 -53.283  1.00  0.00     0.062 A 
HETATM   23  C   UNL     1     -39.531  50.814 -51.766  1.00  0.00     0.034 A 
HETATM   24  C   UNL     1     -40.403  51.547 -54.371  1.00  0.00     0.032 A 
HETATM   25  N   UNL     1     -40.956  53.703 -53.166  1.00  0.00    -0.341 N 
HETATM   26  C   UNL     1     -39.859  50.282 -54.118  1.00  0.00     0.002 A 
HETATM   27  C   UNL     1     -39.429  49.919 -52.839  1.00  0.00     0.002 A 
HETATM   28  H   UNL     1     -41.338  54.262 -53.916  1.00  0.00     0.167 HD
ENDBRANCH  18  19
ENDBRANCH   1  18
TORSDOF 4
ENDMDL
MODEL 10
REMARK VINA RESULT:      -7.6      5.787      9.325
REMARK  4 active torsions:
REMARK  status: ('A' for Active; 'I' for Inactive)
REMARK    1  A    between atoms: C_6  and  C_7 
REMARK    2  A    between atoms: C_7  and  N_8 
REMARK       I    between atoms: N_8  and  C_9 
REMARK    3  A    between atoms: C_9  and  C_10 
REMARK    4  A    between atoms: C_14  and  C_15 
ROOT
HETATM    1  N   UNL     1     -42.131  56.304 -53.253  1.00  0.00    -0.349 N 
HETATM    2  C   UNL     1     -41.669  57.332 -54.025  1.00  0.00     0.270 C 
HETATM    3  O   UNL     1     -40.680  57.990 -53.712  1.00  0.00    -0.266 OA
HETATM    4  H   UNL     1     -42.966  55.784 -53.494  1.00  0.00     0.163 HD
ENDROOT
BRANCH   2   5
HETATM    5  C   UNL     1     -42.418  57.600 -55.222  1.00  0.00     0.120 A 
HETATM    6  N   UNL     1     -42.230  58.746 -55.939  1.00  0.00    -0.272 N 
HETATM    7  H   UNL     1     -41.578  59.496 -55.724  1.00  0.00     0.189 HD
HETATM    8  N   UNL     1     -43.011  58.856 -57.022  1.00  0.00    -0.174 NA
HETATM    9  C   UNL     1     -43.733  57.723 -57.036  1.00  0.00     0.089 A 
HETATM   10  C   UNL     1     -43.393  56.911 -55.916  1.00  0.00     0.071 A 
BRANCH   9  11
HETATM   11  C   UNL     1     -44.713  57.456 -58.095  1.00  0.00    -0.006 A 
HETATM   12  C   UNL     1     -45.987  58.043 -58.072  1.00  0.00     0.015 A 
HETATM   13  C   UNL     1     -46.913  57.777 -59.087  1.00  0.00     0.024 A 
HETATM   14  C   UNL     1     -46.572  56.921 -60.132  1.00  0.00     0.034 A 
HETATM   15 CL   UNL     1     -47.713  56.594 -61.378  1.00  0.00    -0.084 Cl
HETATM   16  C   UNL     1     -45.314  56.328 -60.172  1.00  0.00     0.024 A 
HETATM   17  C   UNL     1     -44.391  56.593 -59.155  1.00  0.00     0.015 A 
ENDBRANCH   9  11
ENDBRANCH   2   5
BRANCH   1  18
HETATM   18  C   UNL     1     -41.482  55.946 -52.018  1.00  0.00     0.201 C 
BRANCH  18  19
HETATM   19  C   UNL     1     -41.000  54.541 -52.120  1.00  0.00     0.123 A 
HETATM   20  N   UNL     1     -40.611  53.756 -51.131  1.00  0.00    -0.232 NA
HETATM   21  C   UNL     1     -40.250  52.570 -51.723  1.00  0.00     0.085 A 
HETATM   22  C   UNL     1     -40.425  52.629 -53.100  1.00  0.00     0.062 A 
HETATM   23  C   UNL     1     -39.759  51.389 -51.145  1.00  0.00     0.034 A 
HETATM   24  C   UNL     1     -40.137  51.564 -53.958  1.00  0.00     0.032 A 
HETATM   25  N   UNL     1     -40.904  53.893 -53.327  1.00  0.00    -0.341 N 
HETATM   26  C   UNL     1     -39.648  50.395 -53.364  1.00  0.00     0.002 A 
HETATM   27  C   UNL     1     -39.461  50.306 -51.982  1.00  0.00     0.002 A 
HETATM   28  H   UNL     1     -41.142  54.280 -54.229  1.00  0.00     0.167 HD
ENDBRANCH  18  19
ENDBRANCH   1  18
TORSDOF 4
ENDMDL
