MODEL 1
REMARK VINA RESULT:      -7.6      0.000      0.000
REMARK  6 active torsions:
REMARK  status: ('A' for Active; 'I' for Inactive)
REMARK       I    between atoms: C_2  and  N_3 
REMARK    1  A    between atoms: N_3  and  C_4 
REMARK    2  A    between atoms: C_7  and  C_8 
REMARK    3  A    between atoms: C_8  and  N_9 
REMARK    4  A    between atoms: N_9  and  C_11 
REMARK    5  A    between atoms: C_11  and  C_12 
REMARK    6  A    between atoms: C_14  and  C_15 
ROOT
HETATM    1  N   UNL     1     -42.472  57.692 -53.983  1.00  0.00    -0.063 N 
HETATM    2  H   UNL     1     -42.752  56.990 -54.686  1.00  0.00     0.280 HD
HETATM    3  C   UNL     1     -43.624  57.962 -53.078  1.00  0.00     0.270 C 
ENDROOT
BRANCH   1   4
HETATM    4  C   UNL     1     -42.096  58.898 -54.827  1.00  0.00     0.294 C 
BRANCH   4   5
HETATM    5  C   UNL     1     -42.221  58.589 -56.286  1.00  0.00     0.069 A 
HETATM    6  C   UNL     1     -41.955  59.403 -57.370  1.00  0.00     0.082 A 
HETATM    7  S   UNL     1     -42.276  58.547 -58.830  1.00  0.00    -0.062 SA
HETATM    8  C   UNL     1     -42.703  57.178 -57.913  1.00  0.00     0.173 A 
HETATM    9  N   UNL     1     -42.669  57.318 -56.613  1.00  0.00    -0.227 NA
BRANCH   8  10
HETATM   10  N   UNL     1     -43.033  56.062 -58.626  1.00  0.00    -0.306 N 
HETATM   11  C   UNL     1     -44.268  55.948 -59.228  1.00  0.00     0.219 C 
HETATM   12  C   UNL     1     -44.402  54.667 -60.011  1.00  0.00     0.117 C 
HETATM   13  O   UNL     1     -45.196  56.750 -59.139  1.00  0.00    -0.274 OA
HETATM   14  H   UNL     1     -42.366  55.303 -58.646  1.00  0.00     0.171 HD
ENDBRANCH   8  10
ENDBRANCH   4   5
ENDBRANCH   1   4
BRANCH   1  15
HETATM   15  C   UNL     1     -41.302  57.033 -53.279  1.00  0.00     0.312 C 
BRANCH  15  16
HETATM   16  C   UNL     1     -40.956  55.663 -53.763  1.00  0.00     0.130 A 
HETATM   17  N   UNL     1     -40.869  54.566 -53.034  1.00  0.00    -0.232 NA
HETATM   18  C   UNL     1     -40.415  53.578 -53.882  1.00  0.00     0.084 A 
HETATM   19  C   UNL     1     -40.278  54.081 -55.155  1.00  0.00     0.122 A 
HETATM   20  N   UNL     1     -40.636  55.399 -55.073  1.00  0.00    -0.351 N 
HETATM   21  H   UNL     1     -40.633  56.060 -55.842  1.00  0.00     0.166 HD
BRANCH  18  22
HETATM   22  C   UNL     1     -40.120  52.225 -53.443  1.00  0.00    -0.006 A 
HETATM   23  C   UNL     1     -40.264  51.159 -54.343  1.00  0.00     0.014 A 
HETATM   24  C   UNL     1     -40.008  49.845 -53.939  1.00  0.00     0.001 A 
HETATM   25  C   UNL     1     -39.613  49.584 -52.630  1.00  0.00     0.000 A 
HETATM   26  C   UNL     1     -39.471  50.633 -51.723  1.00  0.00     0.001 A 
HETATM   27  C   UNL     1     -39.721  51.948 -52.128  1.00  0.00     0.014 A 
ENDBRANCH  18  22
ENDBRANCH  15  16
ENDBRANCH   1  15
TORSDOF 6
ENDMDL
MODEL 2
REMARK VINA RESULT:      -7.4      3.151      5.127
REMARK  6 active torsions:
REMARK  status: ('A' for Active; 'I' for Inactive)
REMARK       I    between atoms: C_2  and  N_3 
REMARK    1  A    between atoms: N_3  and  C_4 
REMARK    2  A    between atoms: C_7  and  C_8 
REMARK    3  A    between atoms: C_8  and  N_9 
REMARK    4  A    between atoms: N_9  and  C_11 
REMARK    5  A    between atoms: C_11  and  C_12 
REMARK    6  A    between atoms: C_14  and  C_15 
ROOT
HETATM    1  N   UNL     1     -42.923  57.299 -55.214  1.00  0.00    -0.063 N 
HETATM    2  H   UNL     1     -41.897  57.310 -55.101  1.00  0.00     0.280 HD
HETATM    3  C   UNL     1     -43.272  57.826 -56.562  1.00  0.00     0.270 C 
ENDROOT
BRANCH   1   4
HETATM    4  C   UNL     1     -43.404  58.202 -54.090  1.00  0.00     0.294 C 
BRANCH   4   5
HETATM    5  C   UNL     1     -42.431  58.206 -52.954  1.00  0.00     0.069 A 
HETATM    6  C   UNL     1     -41.367  59.059 -52.726  1.00  0.00     0.082 A 
HETATM    7  S   UNL     1     -40.568  58.612 -51.268  1.00  0.00    -0.062 SA
HETATM    8  C   UNL     1     -41.704  57.364 -51.048  1.00  0.00     0.173 A 
HETATM    9  N   UNL     1     -42.600  57.223 -51.989  1.00  0.00    -0.227 NA
BRANCH   8  10
HETATM   10  N   UNL     1     -41.573  56.633 -49.903  1.00  0.00    -0.306 N 
HETATM   11  C   UNL     1     -41.015  55.371 -49.929  1.00  0.00     0.219 C 
HETATM   12  C   UNL     1     -40.912  54.767 -48.553  1.00  0.00     0.117 C 
HETATM   13  O   UNL     1     -40.662  54.755 -50.933  1.00  0.00    -0.274 OA
HETATM   14  H   UNL     1     -41.950  57.022 -49.050  1.00  0.00     0.171 HD
ENDBRANCH   8  10
ENDBRANCH   4   5
ENDBRANCH   1   4
BRANCH   1  15
HETATM   15  C   UNL     1     -43.279  55.836 -55.035  1.00  0.00     0.312 C 
BRANCH  15  16
HETATM   16  C   UNL     1     -42.116  54.907 -54.911  1.00  0.00     0.130 A 
HETATM   17  N   UNL     1     -42.103  53.733 -54.308  1.00  0.00    -0.232 NA
HETATM   18  C   UNL     1     -40.795  53.297 -54.347  1.00  0.00     0.084 A 
HETATM   19  C   UNL     1     -40.020  54.203 -55.033  1.00  0.00     0.122 A 
HETATM   20  N   UNL     1     -40.868  55.214 -55.398  1.00  0.00    -0.351 N 
HETATM   21  H   UNL     1     -40.604  56.048 -55.910  1.00  0.00     0.166 HD
BRANCH  18  22
HETATM   22  C   UNL     1     -40.348  52.064 -53.724  1.00  0.00    -0.006 A 
HETATM   23  C   UNL     1     -39.964  52.070 -52.375  1.00  0.00     0.014 A 
HETATM   24  C   UNL     1     -39.508  50.901 -51.758  1.00  0.00     0.001 A 
HETATM   25  C   UNL     1     -39.425  49.717 -52.485  1.00  0.00     0.000 A 
HETATM   26  C   UNL     1     -39.800  49.697 -53.827  1.00  0.00     0.001 A 
HETATM   27  C   UNL     1     -40.260  50.864 -54.444  1.00  0.00     0.014 A 
ENDBRANCH  18  22
ENDBRANCH  15  16
ENDBRANCH   1  15
TORSDOF 6
ENDMDL
MODEL 3
REMARK VINA RESULT:      -7.4      1.608      2.017
REMARK  6 active torsions:
REMARK  status: ('A' for Active; 'I' for Inactive)
REMARK       I    between atoms: C_2  and  N_3 
REMARK    1  A    between atoms: N_3  and  C_4 
REMARK    2  A    between atoms: C_7  and  C_8 
REMARK    3  A    between atoms: C_8  and  N_9 
REMARK    4  A    between atoms: N_9  and  C_11 
REMARK    5  A    between atoms: C_11  and  C_12 
REMARK    6  A    between atoms: C_14  and  C_15 
ROOT
HETATM    1  N   UNL     1     -43.061  58.816 -53.981  1.00  0.00    -0.063 N 
HETATM    2  H   UNL     1     -43.749  59.418 -54.462  1.00  0.00     0.280 HD
HETATM    3  C   UNL     1     -42.237  59.653 -53.065  1.00  0.00     0.270 C 
ENDROOT
BRANCH   1   4
HETATM    4  C   UNL     1     -42.252  58.232 -55.127  1.00  0.00     0.294 C 
BRANCH   4   5
HETATM    5  C   UNL     1     -43.009  58.317 -56.414  1.00  0.00     0.069 A 
HETATM    6  C   UNL     1     -43.275  59.427 -57.193  1.00  0.00     0.082 A 
HETATM    7  S   UNL     1     -44.195  58.962 -58.572  1.00  0.00    -0.062 SA
HETATM    8  C   UNL     1     -44.135  57.344 -58.044  1.00  0.00     0.173 A 
HETATM    9  N   UNL     1     -43.527  57.128 -56.907  1.00  0.00    -0.227 NA
BRANCH   8  10
HETATM   10  N   UNL     1     -44.723  56.427 -58.866  1.00  0.00    -0.306 N 
HETATM   11  C   UNL     1     -43.994  55.782 -59.843  1.00  0.00     0.219 C 
HETATM   12  C   UNL     1     -44.820  54.771 -60.594  1.00  0.00     0.117 C 
HETATM   13  O   UNL     1     -42.818  55.996 -60.130  1.00  0.00    -0.274 OA
HETATM   14  H   UNL     1     -45.719  56.282 -58.773  1.00  0.00     0.171 HD
ENDBRANCH   8  10
ENDBRANCH   4   5
ENDBRANCH   1   4
BRANCH   1  15
HETATM   15  C   UNL     1     -43.928  57.809 -53.252  1.00  0.00     0.312 C 
BRANCH  15  16
HETATM   16  C   UNL     1     -43.548  56.378 -53.450  1.00  0.00     0.130 A 
HETATM   17  N   UNL     1     -42.516  55.754 -52.914  1.00  0.00    -0.232 NA
HETATM   18  C   UNL     1     -42.503  54.491 -53.468  1.00  0.00     0.084 A 
HETATM   19  C   UNL     1     -43.579  54.339 -54.313  1.00  0.00     0.122 A 
HETATM   20  N   UNL     1     -44.242  55.536 -54.284  1.00  0.00    -0.351 N 
HETATM   21  H   UNL     1     -45.079  55.758 -54.812  1.00  0.00     0.166 HD
BRANCH  18  22
HETATM   22  C   UNL     1     -41.472  53.507 -53.185  1.00  0.00    -0.006 A 
HETATM   23  C   UNL     1     -41.082  52.606 -54.186  1.00  0.00     0.014 A 
HETATM   24  C   UNL     1     -40.108  51.636 -53.932  1.00  0.00     0.001 A 
HETATM   25  C   UNL     1     -39.520  51.552 -52.673  1.00  0.00     0.000 A 
HETATM   26  C   UNL     1     -39.901  52.439 -51.667  1.00  0.00     0.001 A 
HETATM   27  C   UNL     1     -40.871  53.413 -51.922  1.00  0.00     0.014 A 
ENDBRANCH  18  22
ENDBRANCH  15  16
ENDBRANCH   1  15
TORSDOF 6
ENDMDL
MODEL 4
REMARK VINA RESULT:      -6.8      2.004      2.864
REMARK  6 active torsions:
REMARK  status: ('A' for Active; 'I' for Inactive)
REMARK       I    between atoms: C_2  and  N_3 
REMARK    1  A    between atoms: N_3  and  C_4 
REMARK    2  A    between atoms: C_7  and  C_8 
REMARK    3  A    between atoms: C_8  and  N_9 
REMARK    4  A    between atoms: N_9  and  C_11 
REMARK    5  A    between atoms: C_11  and  C_12 
REMARK    6  A    between atoms: C_14  and  C_15 
ROOT
HETATM    1  N   UNL     1     -42.641  56.792 -51.693  1.00  0.00    -0.063 N 
HETATM    2  H   UNL     1     -42.501  56.199 -52.527  1.00  0.00     0.280 HD
HETATM    3  C   UNL     1     -43.839  56.312 -50.950  1.00  0.00     0.270 C 
ENDROOT
BRANCH   1   4
HETATM    4  C   UNL     1     -42.836  58.178 -52.284  1.00  0.00     0.294 C 
BRANCH   4   5
HETATM    5  C   UNL     1     -43.535  58.104 -53.605  1.00  0.00     0.069 A 
HETATM    6  C   UNL     1     -44.882  58.234 -53.881  1.00  0.00     0.082 A 
HETATM    7  S   UNL     1     -45.146  58.055 -55.574  1.00  0.00    -0.062 SA
HETATM    8  C   UNL     1     -43.470  57.858 -55.797  1.00  0.00     0.173 A 
HETATM    9  N   UNL     1     -42.736  57.868 -54.714  1.00  0.00    -0.227 NA
BRANCH   8  10
HETATM   10  N   UNL     1     -43.053  57.713 -57.088  1.00  0.00    -0.306 N 
HETATM   11  C   UNL     1     -42.987  56.466 -57.674  1.00  0.00     0.219 C 
HETATM   12  C   UNL     1     -42.560  56.539 -59.117  1.00  0.00     0.117 C 
HETATM   13  O   UNL     1     -43.204  55.391 -57.119  1.00  0.00    -0.274 OA
HETATM   14  H   UNL     1     -42.741  58.540 -57.577  1.00  0.00     0.171 HD
ENDBRANCH   8  10
ENDBRANCH   4   5
ENDBRANCH   1   4
BRANCH   1  15
HETATM   15  C   UNL     1     -41.349  56.619 -50.919  1.00  0.00     0.312 C 
BRANCH  15  16
HETATM   16  C   UNL     1     -40.830  55.220 -50.849  1.00  0.00     0.130 A 
HETATM   17  N   UNL     1     -40.644  54.394 -51.862  1.00  0.00    -0.232 NA
HETATM   18  C   UNL     1     -40.265  53.190 -51.309  1.00  0.00     0.084 A 
HETATM   19  C   UNL     1     -40.172  53.310 -49.941  1.00  0.00     0.122 A 
HETATM   20  N   UNL     1     -40.519  54.604 -49.660  1.00  0.00    -0.351 N 
HETATM   21  H   UNL     1     -40.564  55.014 -48.734  1.00  0.00     0.166 HD
BRANCH  18  22
HETATM   22  C   UNL     1     -40.029  51.991 -52.095  1.00  0.00    -0.006 A 
HETATM   23  C   UNL     1     -40.197  52.032 -53.487  1.00  0.00     0.014 A 
HETATM   24  C   UNL     1     -39.997  50.887 -54.263  1.00  0.00     0.001 A 
HETATM   25  C   UNL     1     -39.635  49.688 -53.656  1.00  0.00     0.000 A 
HETATM   26  C   UNL     1     -39.469  49.632 -52.273  1.00  0.00     0.001 A 
HETATM   27  C   UNL     1     -39.663  50.778 -51.496  1.00  0.00     0.014 A 
ENDBRANCH  18  22
ENDBRANCH  15  16
ENDBRANCH   1  15
TORSDOF 6
ENDMDL
MODEL 5
REMARK VINA RESULT:      -6.8      2.077      2.827
REMARK  6 active torsions:
REMARK  status: ('A' for Active; 'I' for Inactive)
REMARK       I    between atoms: C_2  and  N_3 
REMARK    1  A    between atoms: N_3  and  C_4 
REMARK    2  A    between atoms: C_7  and  C_8 
REMARK    3  A    between atoms: C_8  and  N_9 
REMARK    4  A    between atoms: N_9  and  C_11 
REMARK    5  A    between atoms: C_11  and  C_12 
REMARK    6  A    between atoms: C_14  and  C_15 
ROOT
HETATM    1  N   UNL     1     -43.312  58.919 -52.015  1.00  0.00    -0.063 N 
HETATM    2  H   UNL     1     -44.203  59.323 -52.345  1.00  0.00     0.280 HD
HETATM    3  C   UNL     1     -42.718  59.820 -50.990  1.00  0.00     0.270 C 
ENDROOT
BRANCH   1   4
HETATM    4  C   UNL     1     -42.477  58.844 -53.283  1.00  0.00     0.294 C 
BRANCH   4   5
HETATM    5  C   UNL     1     -43.345  58.643 -54.484  1.00  0.00     0.069 A 
HETATM    6  C   UNL     1     -44.348  59.457 -54.976  1.00  0.00     0.082 A 
HETATM    7  S   UNL     1     -45.033  58.744 -56.386  1.00  0.00    -0.062 SA
HETATM    8  C   UNL     1     -43.934  57.452 -56.246  1.00  0.00     0.173 A 
HETATM    9  N   UNL     1     -43.132  57.483 -55.215  1.00  0.00    -0.227 NA
BRANCH   8  10
HETATM   10  N   UNL     1     -43.994  56.509 -57.231  1.00  0.00    -0.306 N 
HETATM   11  C   UNL     1     -43.220  56.623 -58.367  1.00  0.00     0.219 C 
HETATM   12  C   UNL     1     -43.396  55.449 -59.294  1.00  0.00     0.117 C 
HETATM   13  O   UNL     1     -42.485  57.566 -58.652  1.00  0.00    -0.274 OA
HETATM   14  H   UNL     1     -44.666  55.761 -57.126  1.00  0.00     0.171 HD
ENDBRANCH   8  10
ENDBRANCH   4   5
ENDBRANCH   1   4
BRANCH   1  15
HETATM   15  C   UNL     1     -43.725  57.571 -51.459  1.00  0.00     0.312 C 
BRANCH  15  16
HETATM   16  C   UNL     1     -42.626  56.565 -51.344  1.00  0.00     0.130 A 
HETATM   17  N   UNL     1     -42.313  55.634 -52.225  1.00  0.00    -0.232 NA
HETATM   18  C   UNL     1     -41.318  54.877 -51.644  1.00  0.00     0.084 A 
HETATM   19  C   UNL     1     -40.992  55.396 -50.413  1.00  0.00     0.122 A 
HETATM   20  N   UNL     1     -41.818  56.474 -50.237  1.00  0.00    -0.351 N 
HETATM   21  H   UNL     1     -41.839  57.072 -49.418  1.00  0.00     0.166 HD
BRANCH  18  22
HETATM   22  C   UNL     1     -40.742  53.700 -52.273  1.00  0.00    -0.006 A 
HETATM   23  C   UNL     1     -40.034  52.775 -51.492  1.00  0.00     0.014 A 
HETATM   24  C   UNL     1     -39.453  51.646 -52.076  1.00  0.00     0.001 A 
HETATM   25  C   UNL     1     -39.566  51.435 -53.447  1.00  0.00     0.000 A 
HETATM   26  C   UNL     1     -40.263  52.348 -54.236  1.00  0.00     0.001 A 
HETATM   27  C   UNL     1     -40.850  53.474 -53.652  1.00  0.00     0.014 A 
ENDBRANCH  18  22
ENDBRANCH  15  16
ENDBRANCH   1  15
TORSDOF 6
ENDMDL
MODEL 6
REMARK VINA RESULT:      -6.6      5.297      7.285
REMARK  6 active torsions:
REMARK  status: ('A' for Active; 'I' for Inactive)
REMARK       I    between atoms: C_2  and  N_3 
REMARK    1  A    between atoms: N_3  and  C_4 
REMARK    2  A    between atoms: C_7  and  C_8 
REMARK    3  A    between atoms: C_8  and  N_9 
REMARK    4  A    between atoms: N_9  and  C_11 
REMARK    5  A    between atoms: C_11  and  C_12 
REMARK    6  A    between atoms: C_14  and  C_15 
ROOT
HETATM    1  N   UNL     1     -41.906  59.210 -50.762  1.00  0.00    -0.063 N 
HETATM    2  H   UNL     1     -42.309  59.344 -49.820  1.00  0.00     0.280 HD
HETATM    3  C   UNL     1     -40.441  58.976 -50.636  1.00  0.00     0.270 C 
ENDROOT
BRANCH   1   4
HETATM    4  C   UNL     1     -42.232  60.516 -51.466  1.00  0.00     0.294 C 
BRANCH   4   5
HETATM    5  C   UNL     1     -43.033  61.417 -50.580  1.00  0.00     0.069 A 
HETATM    6  C   UNL     1     -42.919  62.783 -50.402  1.00  0.00     0.082 A 
HETATM    7  S   UNL     1     -44.089  63.317 -49.257  1.00  0.00    -0.062 SA
HETATM    8  C   UNL     1     -44.661  61.719 -49.122  1.00  0.00     0.173 A 
HETATM    9  N   UNL     1     -44.026  60.816 -49.823  1.00  0.00    -0.227 NA
BRANCH   8  10
HETATM   10  N   UNL     1     -45.734  61.538 -48.299  1.00  0.00    -0.306 N 
HETATM   11  C   UNL     1     -45.558  61.212 -46.970  1.00  0.00     0.219 C 
HETATM   12  C   UNL     1     -46.867  61.116 -46.230  1.00  0.00     0.117 C 
HETATM   13  O   UNL     1     -44.485  60.981 -46.416  1.00  0.00    -0.274 OA
HETATM   14  H   UNL     1     -46.656  61.592 -48.708  1.00  0.00     0.171 HD
ENDBRANCH   8  10
ENDBRANCH   4   5
ENDBRANCH   1   4
BRANCH   1  15
HETATM   15  C   UNL     1     -42.659  58.007 -51.296  1.00  0.00     0.312 C 
BRANCH  15  16
HETATM   16  C   UNL     1     -41.982  56.691 -51.096  1.00  0.00     0.130 A 
HETATM   17  N   UNL     1     -41.490  55.905 -52.035  1.00  0.00    -0.232 NA
HETATM   18  C   UNL     1     -41.071  54.759 -51.394  1.00  0.00     0.084 A 
HETATM   19  C   UNL     1     -41.268  54.882 -50.038  1.00  0.00     0.122 A 
HETATM   20  N   UNL     1     -41.834  56.115 -49.857  1.00  0.00    -0.351 N 
HETATM   21  H   UNL     1     -42.116  56.509 -48.967  1.00  0.00     0.166 HD
BRANCH  18  22
HETATM   22  C   UNL     1     -40.525  53.608 -52.094  1.00  0.00    -0.006 A 
HETATM   23  C   UNL     1     -40.723  53.482 -53.477  1.00  0.00     0.014 A 
HETATM   24  C   UNL     1     -40.227  52.374 -54.170  1.00  0.00     0.001 A 
HETATM   25  C   UNL     1     -39.536  51.378 -53.486  1.00  0.00     0.000 A 
HETATM   26  C   UNL     1     -39.335  51.488 -52.111  1.00  0.00     0.001 A 
HETATM   27  C   UNL     1     -39.826  52.599 -51.418  1.00  0.00     0.014 A 
ENDBRANCH  18  22
ENDBRANCH  15  16
ENDBRANCH   1  15
TORSDOF 6
ENDMDL
MODEL 7
REMARK VINA RESULT:      -6.6      2.647      3.915
REMARK  6 active torsions:
REMARK  status: ('A' for Active; 'I' for Inactive)
REMARK       I    between atoms: C_2  and  N_3 
REMARK    1  A    between atoms: N_3  and  C_4 
REMARK    2  A    between atoms: C_7  and  C_8 
REMARK    3  A    between atoms: C_8  and  N_9 
REMARK    4  A    between atoms: N_9  and  C_11 
REMARK    5  A    between atoms: C_11  and  C_12 
REMARK    6  A    between atoms: C_14  and  C_15 
ROOT
HETATM    1  N   UNL     1     -42.297  56.977 -58.551  1.00  0.00    -0.063 N 
HETATM    2  H   UNL     1     -41.500  56.974 -57.895  1.00  0.00     0.280 HD
HETATM    3  C   UNL     1     -41.805  56.654 -59.918  1.00  0.00     0.270 C 
ENDROOT
BRANCH   1   4
HETATM    4  C   UNL     1     -42.829  58.397 -58.441  1.00  0.00     0.294 C 
BRANCH   4   5
HETATM    5  C   UNL     1     -44.314  58.427 -58.618  1.00  0.00     0.069 A 
HETATM    6  C   UNL     1     -45.293  58.711 -57.685  1.00  0.00     0.082 A 
HETATM    7  S   UNL     1     -46.845  58.598 -58.421  1.00  0.00    -0.062 SA
HETATM    8  C   UNL     1     -46.096  58.220 -59.902  1.00  0.00     0.173 A 
HETATM    9  N   UNL     1     -44.792  58.127 -59.885  1.00  0.00    -0.227 NA
BRANCH   8  10
HETATM   10  N   UNL     1     -46.932  58.056 -60.969  1.00  0.00    -0.306 N 
HETATM   11  C   UNL     1     -47.567  56.853 -61.191  1.00  0.00     0.219 C 
HETATM   12  C   UNL     1     -48.486  56.907 -62.384  1.00  0.00     0.117 C 
HETATM   13  O   UNL     1     -47.410  55.819 -60.544  1.00  0.00    -0.274 OA
HETATM   14  H   UNL     1     -47.021  58.825 -61.619  1.00  0.00     0.171 HD
ENDBRANCH   8  10
ENDBRANCH   4   5
ENDBRANCH   1   4
BRANCH   1  15
HETATM   15  C   UNL     1     -43.222  55.918 -57.983  1.00  0.00     0.312 C 
BRANCH  15  16
HETATM   16  C   UNL     1     -42.971  55.550 -56.558  1.00  0.00     0.130 A 
HETATM   17  N   UNL     1     -42.009  54.770 -56.101  1.00  0.00    -0.232 NA
HETATM   18  C   UNL     1     -42.241  54.628 -54.749  1.00  0.00     0.084 A 
HETATM   19  C   UNL     1     -43.333  55.380 -54.380  1.00  0.00     0.122 A 
HETATM   20  N   UNL     1     -43.780  55.971 -55.531  1.00  0.00    -0.351 N 
HETATM   21  H   UNL     1     -44.585  56.584 -55.603  1.00  0.00     0.166 HD
BRANCH  18  22
HETATM   22  C   UNL     1     -41.435  53.782 -53.887  1.00  0.00    -0.006 A 
HETATM   23  C   UNL     1     -41.326  54.088 -52.522  1.00  0.00     0.014 A 
HETATM   24  C   UNL     1     -40.539  53.302 -51.676  1.00  0.00     0.001 A 
HETATM   25  C   UNL     1     -39.846  52.207 -52.186  1.00  0.00     0.000 A 
HETATM   26  C   UNL     1     -39.942  51.894 -53.541  1.00  0.00     0.001 A 
HETATM   27  C   UNL     1     -40.733  52.676 -54.387  1.00  0.00     0.014 A 
ENDBRANCH  18  22
ENDBRANCH  15  16
ENDBRANCH   1  15
TORSDOF 6
ENDMDL
MODEL 8
REMARK VINA RESULT:      -6.5      4.021      5.974
REMARK  6 active torsions:
REMARK  status: ('A' for Active; 'I' for Inactive)
REMARK       I    between atoms: C_2  and  N_3 
REMARK    1  A    between atoms: N_3  and  C_4 
REMARK    2  A    between atoms: C_7  and  C_8 
REMARK    3  A    between atoms: C_8  and  N_9 
REMARK    4  A    between atoms: N_9  and  C_11 
REMARK    5  A    between atoms: C_11  and  C_12 
REMARK    6  A    between atoms: C_14  and  C_15 
ROOT
HETATM    1  N   UNL     1     -41.357  58.368 -53.090  1.00  0.00    -0.063 N 
HETATM    2  H   UNL     1     -41.730  58.012 -52.195  1.00  0.00     0.280 HD
HETATM    3  C   UNL     1     -39.971  58.867 -52.876  1.00  0.00     0.270 C 
ENDROOT
BRANCH   1   4
HETATM    4  C   UNL     1     -42.330  59.478 -53.452  1.00  0.00     0.294 C 
BRANCH   4   5
HETATM    5  C   UNL     1     -43.452  59.549 -52.465  1.00  0.00     0.069 A 
HETATM    6  C   UNL     1     -44.724  59.016 -52.559  1.00  0.00     0.082 A 
HETATM    7  S   UNL     1     -45.619  59.400 -51.140  1.00  0.00    -0.062 SA
HETATM    8  C   UNL     1     -44.253  60.201 -50.515  1.00  0.00     0.173 A 
HETATM    9  N   UNL     1     -43.202  60.245 -51.292  1.00  0.00    -0.227 NA
BRANCH   8  10
HETATM   10  N   UNL     1     -44.386  60.715 -49.259  1.00  0.00    -0.306 N 
HETATM   11  C   UNL     1     -44.804  62.016 -49.067  1.00  0.00     0.219 C 
HETATM   12  C   UNL     1     -44.939  62.360 -47.607  1.00  0.00     0.117 C 
HETATM   13  O   UNL     1     -45.019  62.846 -49.948  1.00  0.00    -0.274 OA
HETATM   14  H   UNL     1     -44.112  60.133 -48.480  1.00  0.00     0.171 HD
ENDBRANCH   8  10
ENDBRANCH   4   5
ENDBRANCH   1   4
BRANCH   1  15
HETATM   15  C   UNL     1     -41.423  57.158 -54.002  1.00  0.00     0.312 C 
BRANCH  15  16
HETATM   16  C   UNL     1     -41.314  55.836 -53.316  1.00  0.00     0.130 A 
HETATM   17  N   UNL     1     -40.642  54.781 -53.736  1.00  0.00    -0.232 NA
HETATM   18  C   UNL     1     -40.923  53.768 -52.844  1.00  0.00     0.084 A 
HETATM   19  C   UNL     1     -41.738  54.240 -51.841  1.00  0.00     0.122 A 
HETATM   20  N   UNL     1     -41.969  55.555 -52.141  1.00  0.00    -0.351 N 
HETATM   21  H   UNL     1     -42.546  56.190 -51.601  1.00  0.00     0.166 HD
BRANCH  18  22
HETATM   22  C   UNL     1     -40.425  52.411 -52.996  1.00  0.00    -0.006 A 
HETATM   23  C   UNL     1     -40.574  51.753 -54.225  1.00  0.00     0.014 A 
HETATM   24  C   UNL     1     -40.122  50.440 -54.389  1.00  0.00     0.001 A 
HETATM   25  C   UNL     1     -39.524  49.771 -53.325  1.00  0.00     0.000 A 
HETATM   26  C   UNL     1     -39.373  50.412 -52.097  1.00  0.00     0.001 A 
HETATM   27  C   UNL     1     -39.820  51.727 -51.933  1.00  0.00     0.014 A 
ENDBRANCH  18  22
ENDBRANCH  15  16
ENDBRANCH   1  15
TORSDOF 6
ENDMDL
MODEL 9
REMARK VINA RESULT:      -6.4      4.313      6.125
REMARK  6 active torsions:
REMARK  status: ('A' for Active; 'I' for Inactive)
REMARK       I    between atoms: C_2  and  N_3 
REMARK    1  A    between atoms: N_3  and  C_4 
REMARK    2  A    between atoms: C_7  and  C_8 
REMARK    3  A    between atoms: C_8  and  N_9 
REMARK    4  A    between atoms: N_9  and  C_11 
REMARK    5  A    between atoms: C_11  and  C_12 
REMARK    6  A    between atoms: C_14  and  C_15 
ROOT
HETATM    1  N   UNL     1     -40.996  57.558 -51.982  1.00  0.00    -0.063 N 
HETATM    2  H   UNL     1     -40.098  57.086 -52.173  1.00  0.00     0.280 HD
HETATM    3  C   UNL     1     -41.837  57.524 -53.210  1.00  0.00     0.270 C 
ENDROOT
BRANCH   1   4
HETATM    4  C   UNL     1     -40.572  58.967 -51.602  1.00  0.00     0.294 C 
BRANCH   4   5
HETATM    5  C   UNL     1     -41.755  59.880 -51.525  1.00  0.00     0.069 A 
HETATM    6  C   UNL     1     -42.466  60.466 -52.555  1.00  0.00     0.082 A 
HETATM    7  S   UNL     1     -43.735  61.433 -51.906  1.00  0.00    -0.062 SA
HETATM    8  C   UNL     1     -43.260  60.972 -50.337  1.00  0.00     0.173 A 
HETATM    9  N   UNL     1     -42.211  60.196 -50.254  1.00  0.00    -0.227 NA
BRANCH   8  10
HETATM   10  N   UNL     1     -44.027  61.454 -49.317  1.00  0.00    -0.306 N 
HETATM   11  C   UNL     1     -45.209  60.835 -48.967  1.00  0.00     0.219 C 
HETATM   12  C   UNL     1     -45.866  61.493 -47.781  1.00  0.00     0.117 C 
HETATM   13  O   UNL     1     -45.727  59.881 -49.545  1.00  0.00    -0.274 OA
HETATM   14  H   UNL     1     -43.730  62.310 -48.868  1.00  0.00     0.171 HD
ENDBRANCH   8  10
ENDBRANCH   4   5
ENDBRANCH   1   4
BRANCH   1  15
HETATM   15  C   UNL     1     -41.579  56.752 -50.837  1.00  0.00     0.312 C 
BRANCH  15  16
HETATM   16  C   UNL     1     -40.975  55.400 -50.638  1.00  0.00     0.130 A 
HETATM   17  N   UNL     1     -40.782  54.477 -51.562  1.00  0.00    -0.232 NA
HETATM   18  C   UNL     1     -40.309  53.365 -50.898  1.00  0.00     0.084 A 
HETATM   19  C   UNL     1     -40.167  53.644 -49.558  1.00  0.00     0.122 A 
HETATM   20  N   UNL     1     -40.578  54.941 -49.406  1.00  0.00    -0.351 N 
HETATM   21  H   UNL     1     -40.609  55.449 -48.529  1.00  0.00     0.166 HD
BRANCH  18  22
HETATM   22  C   UNL     1     -40.035  52.099 -51.558  1.00  0.00    -0.006 A 
HETATM   23  C   UNL     1     -39.950  52.053 -52.957  1.00  0.00     0.014 A 
HETATM   24  C   UNL     1     -39.709  50.845 -53.617  1.00  0.00     0.001 A 
HETATM   25  C   UNL     1     -39.559  49.670 -52.885  1.00  0.00     0.000 A 
HETATM   26  C   UNL     1     -39.646  49.700 -51.495  1.00  0.00     0.001 A 
HETATM   27  C   UNL     1     -39.881  50.909 -50.833  1.00  0.00     0.014 A 
ENDBRANCH  18  22
ENDBRANCH  15  16
ENDBRANCH   1  15
TORSDOF 6
ENDMDL
MODEL 10
REMARK VINA RESULT:      -6.4      3.440      4.329
REMARK  6 active torsions:
REMARK  status: ('A' for Active; 'I' for Inactive)
REMARK       I    between atoms: C_2  and  N_3 
REMARK    1  A    between atoms: N_3  and  C_4 
REMARK    2  A    between atoms: C_7  and  C_8 
REMARK    3  A    between atoms: C_8  and  N_9 
REMARK    4  A    between atoms: N_9  and  C_11 
REMARK    5  A    between atoms: C_11  and  C_12 
REMARK    6  A    between atoms: C_14  and  C_15 
ROOT
HETATM    1  N   UNL     1     -43.866  56.258 -51.362  1.00  0.00    -0.063 N 
HETATM    2  H   UNL     1     -44.059  56.049 -52.355  1.00  0.00     0.280 HD
HETATM    3  C   UNL     1     -44.209  55.066 -50.538  1.00  0.00     0.270 C 
ENDROOT
BRANCH   1   4
HETATM    4  C   UNL     1     -44.769  57.446 -51.077  1.00  0.00     0.294 C 
BRANCH   4   5
HETATM    5  C   UNL     1     -44.200  58.702 -51.657  1.00  0.00     0.069 A 
HETATM    6  C   UNL     1     -43.687  59.805 -51.001  1.00  0.00     0.082 A 
HETATM    7  S   UNL     1     -43.171  60.976 -52.153  1.00  0.00    -0.062 SA
HETATM    8  C   UNL     1     -43.634  59.922 -53.406  1.00  0.00     0.173 A 
HETATM    9  N   UNL     1     -44.181  58.792 -53.040  1.00  0.00    -0.227 NA
BRANCH   8  10
HETATM   10  N   UNL     1     -43.383  60.357 -54.675  1.00  0.00    -0.306 N 
HETATM   11  C   UNL     1     -42.185  60.072 -55.296  1.00  0.00     0.219 C 
HETATM   12  C   UNL     1     -42.139  60.594 -56.709  1.00  0.00     0.117 C 
HETATM   13  O   UNL     1     -41.225  59.495 -54.790  1.00  0.00    -0.274 OA
HETATM   14  H   UNL     1     -44.077  60.943 -55.118  1.00  0.00     0.171 HD
ENDBRANCH   8  10
ENDBRANCH   4   5
ENDBRANCH   1   4
BRANCH   1  15
HETATM   15  C   UNL     1     -42.385  56.583 -51.355  1.00  0.00     0.312 C 
BRANCH  15  16
HETATM   16  C   UNL     1     -41.473  55.401 -51.304  1.00  0.00     0.130 A 
HETATM   17  N   UNL     1     -41.361  54.450 -52.211  1.00  0.00    -0.232 NA
HETATM   18  C   UNL     1     -40.488  53.521 -51.686  1.00  0.00     0.084 A 
HETATM   19  C   UNL     1     -40.027  53.950 -50.462  1.00  0.00     0.122 A 
HETATM   20  N   UNL     1     -40.647  55.150 -50.235  1.00  0.00    -0.351 N 
HETATM   21  H   UNL     1     -40.531  55.725 -49.408  1.00  0.00     0.166 HD
BRANCH  18  22
HETATM   22  C   UNL     1     -40.151  52.276 -52.355  1.00  0.00    -0.006 A 
HETATM   23  C   UNL     1     -40.314  52.172 -53.744  1.00  0.00     0.014 A 
HETATM   24  C   UNL     1     -40.018  50.978 -54.409  1.00  0.00     0.001 A 
HETATM   25  C   UNL     1     -39.562  49.876 -53.691  1.00  0.00     0.000 A 
HETATM   26  C   UNL     1     -39.399  49.964 -52.310  1.00  0.00     0.001 A 
HETATM   27  C   UNL     1     -39.690  51.159 -51.645  1.00  0.00     0.014 A 
ENDBRANCH  18  22
ENDBRANCH  15  16
ENDBRANCH   1  15
TORSDOF 6
ENDMDL
