MODEL 1
REMARK VINA RESULT:      -7.9      0.000      0.000
REMARK  6 active torsions:
REMARK  status: ('A' for Active; 'I' for Inactive)
REMARK    1  A    between atoms: C_6  and  O_7 
REMARK    2  A    between atoms: C_8  and  C_9 
REMARK    3  A    between atoms: C_9  and  N_10 
REMARK    4  A    between atoms: N_10  and  C_12 
REMARK    5  A    between atoms: C_12  and  C_13 
REMARK    6  A    between atoms: C_12  and  C_16 
REMARK       I    between atoms: C_13  and  N_14 
ROOT
HETATM    1  N   UNL     1     -42.754  54.951 -53.029  1.00  0.00    -0.054 N 
HETATM    2  H   UNL     1     -42.953  54.202 -52.352  1.00  0.00     0.281 HD
HETATM    3  C   UNL     1     -43.432  54.634 -54.332  1.00  0.00     0.271 C 
ENDROOT
BRANCH   1   4
HETATM    4  C   UNL     1     -41.239  54.872 -53.160  1.00  0.00     0.277 C 
BRANCH   4   5
HETATM    5  C   UNL     1     -40.695  53.570 -52.638  1.00  0.00     0.001 A 
HETATM    6  C   UNL     1     -40.593  53.337 -51.266  1.00  0.00     0.074 A 
HETATM    7  C   UNL     1     -40.135  52.119 -50.771  1.00  0.00     0.044 A 
HETATM    8  C   UNL     1     -39.780  51.090 -51.656  1.00  0.00    -0.053 A 
HETATM    9  C   UNL     1     -39.851  51.314 -53.046  1.00  0.00    -0.055 A 
HETATM   10  C   UNL     1     -39.311  49.770 -51.100  1.00  0.00     0.049 C 
HETATM   11  C   UNL     1     -39.496  50.236 -54.038  1.00  0.00     0.049 C 
HETATM   12  C   UNL     1     -40.311  52.553 -53.522  1.00  0.00     0.019 A 
BRANCH   6  13
HETATM   13  O   UNL     1     -41.008  54.324 -50.410  1.00  0.00    -0.360 OA
HETATM   14  H   UNL     1     -40.831  54.014 -49.497  1.00  0.00     0.217 HD
ENDBRANCH   6  13
ENDBRANCH   4   5
ENDBRANCH   1   4
BRANCH   1  15
HETATM   15  C   UNL     1     -43.201  56.274 -52.386  1.00  0.00     0.312 C 
BRANCH  15  16
HETATM   16  C   UNL     1     -44.053  55.982 -51.112  1.00  0.00     0.251 C 
HETATM   17  N   UNL     1     -44.052  54.712 -50.603  1.00  0.00    -0.368 N 
HETATM   18  H   UNL     1     -43.285  54.063 -50.743  1.00  0.00     0.159 HD
HETATM   19  H   UNL     1     -44.589  54.574 -49.751  1.00  0.00     0.159 HD
HETATM   20  O   UNL     1     -44.837  56.816 -50.665  1.00  0.00    -0.271 OA
ENDBRANCH  15  16
BRANCH  15  21
HETATM   21  C   UNL     1     -42.100  57.319 -52.180  1.00  0.00    -0.016 A 
HETATM   22  C   UNL     1     -41.686  57.762 -50.912  1.00  0.00     0.052 A 
HETATM   23  C   UNL     1     -40.666  58.707 -50.787  1.00  0.00     0.117 A 
HETATM   24  F   UNL     1     -40.313  59.120 -49.565  1.00  0.00    -0.206 F 
HETATM   25  C   UNL     1     -40.021  59.223 -51.900  1.00  0.00     0.042 A 
HETATM   26  C   UNL     1     -40.385  58.771 -53.163  1.00  0.00     0.004 A 
HETATM   27  C   UNL     1     -41.402  57.819 -53.301  1.00  0.00     0.010 A 
ENDBRANCH  15  21
ENDBRANCH   1  15
TORSDOF 6
ENDMDL
MODEL 2
REMARK VINA RESULT:      -7.5      1.770      2.202
REMARK  6 active torsions:
REMARK  status: ('A' for Active; 'I' for Inactive)
REMARK    1  A    between atoms: C_6  and  O_7 
REMARK    2  A    between atoms: C_8  and  C_9 
REMARK    3  A    between atoms: C_9  and  N_10 
REMARK    4  A    between atoms: N_10  and  C_12 
REMARK    5  A    between atoms: C_12  and  C_13 
REMARK    6  A    between atoms: C_12  and  C_16 
REMARK       I    between atoms: C_13  and  N_14 
ROOT
HETATM    1  N   UNL     1     -42.258  55.053 -54.466  1.00  0.00    -0.054 N 
HETATM    2  H   UNL     1     -42.466  54.792 -53.492  1.00  0.00     0.281 HD
HETATM    3  C   UNL     1     -43.089  54.212 -55.392  1.00  0.00     0.271 C 
ENDROOT
BRANCH   1   4
HETATM    4  C   UNL     1     -40.779  54.710 -54.582  1.00  0.00     0.277 C 
BRANCH   4   5
HETATM    5  C   UNL     1     -40.407  53.522 -53.736  1.00  0.00     0.001 A 
HETATM    6  C   UNL     1     -40.418  53.605 -52.343  1.00  0.00     0.074 A 
HETATM    7  C   UNL     1     -40.123  52.500 -51.551  1.00  0.00     0.044 A 
HETATM    8  C   UNL     1     -39.819  51.267 -52.149  1.00  0.00    -0.053 A 
HETATM    9  C   UNL     1     -39.777  51.169 -53.554  1.00  0.00    -0.055 A 
HETATM   10  C   UNL     1     -39.526  50.077 -51.272  1.00  0.00     0.049 C 
HETATM   11  C   UNL     1     -39.472  49.865 -54.244  1.00  0.00     0.049 C 
HETATM   12  C   UNL     1     -40.074  52.299 -54.334  1.00  0.00     0.019 A 
BRANCH   6  13
HETATM   13  O   UNL     1     -40.783  54.795 -51.770  1.00  0.00    -0.360 OA
HETATM   14  H   UNL     1     -40.409  54.811 -50.864  1.00  0.00     0.217 HD
ENDBRANCH   6  13
ENDBRANCH   4   5
ENDBRANCH   1   4
BRANCH   1  15
HETATM   15  C   UNL     1     -42.502  56.566 -54.590  1.00  0.00     0.312 C 
BRANCH  15  16
HETATM   16  C   UNL     1     -44.003  56.835 -54.913  1.00  0.00     0.251 C 
HETATM   17  N   UNL     1     -44.957  56.211 -54.156  1.00  0.00    -0.368 N 
HETATM   18  H   UNL     1     -44.789  55.904 -53.203  1.00  0.00     0.159 HD
HETATM   19  H   UNL     1     -45.922  56.444 -54.374  1.00  0.00     0.159 HD
HETATM   20  O   UNL     1     -44.338  57.457 -55.920  1.00  0.00    -0.271 OA
ENDBRANCH  15  16
BRANCH  15  21
HETATM   21  C   UNL     1     -41.938  57.427 -53.455  1.00  0.00    -0.016 A 
HETATM   22  C   UNL     1     -40.647  57.981 -53.477  1.00  0.00     0.052 A 
HETATM   23  C   UNL     1     -40.194  58.770 -52.419  1.00  0.00     0.117 A 
HETATM   24  F   UNL     1     -38.952  59.263 -52.465  1.00  0.00    -0.206 F 
HETATM   25  C   UNL     1     -41.003  59.046 -51.328  1.00  0.00     0.042 A 
HETATM   26  C   UNL     1     -42.299  58.544 -51.302  1.00  0.00     0.004 A 
HETATM   27  C   UNL     1     -42.766  57.756 -52.360  1.00  0.00     0.010 A 
ENDBRANCH  15  21
ENDBRANCH   1  15
TORSDOF 6
ENDMDL
MODEL 3
REMARK VINA RESULT:      -7.5      2.458      3.140
REMARK  6 active torsions:
REMARK  status: ('A' for Active; 'I' for Inactive)
REMARK    1  A    between atoms: C_6  and  O_7 
REMARK    2  A    between atoms: C_8  and  C_9 
REMARK    3  A    between atoms: C_9  and  N_10 
REMARK    4  A    between atoms: N_10  and  C_12 
REMARK    5  A    between atoms: C_12  and  C_13 
REMARK    6  A    between atoms: C_12  and  C_16 
REMARK       I    between atoms: C_13  and  N_14 
ROOT
HETATM    1  N   UNL     1     -42.203  55.109 -54.670  1.00  0.00    -0.054 N 
HETATM    2  H   UNL     1     -42.306  54.972 -53.655  1.00  0.00     0.281 HD
HETATM    3  C   UNL     1     -43.234  54.286 -55.388  1.00  0.00     0.271 C 
ENDROOT
BRANCH   1   4
HETATM    4  C   UNL     1     -40.798  54.581 -54.924  1.00  0.00     0.277 C 
BRANCH   4   5
HETATM    5  C   UNL     1     -40.433  53.468 -53.978  1.00  0.00     0.001 A 
HETATM    6  C   UNL     1     -40.461  53.667 -52.597  1.00  0.00     0.074 A 
HETATM    7  C   UNL     1     -40.172  52.632 -51.712  1.00  0.00     0.044 A 
HETATM    8  C   UNL     1     -39.858  51.355 -52.202  1.00  0.00    -0.053 A 
HETATM    9  C   UNL     1     -39.800  51.140 -53.594  1.00  0.00    -0.055 A 
HETATM   10  C   UNL     1     -39.574  50.242 -51.226  1.00  0.00     0.049 C 
HETATM   11  C   UNL     1     -39.484  49.784 -54.169  1.00  0.00     0.049 C 
HETATM   12  C   UNL     1     -40.091  52.200 -54.468  1.00  0.00     0.019 A 
BRANCH   6  13
HETATM   13  O   UNL     1     -40.835  54.899 -52.129  1.00  0.00    -0.360 OA
HETATM   14  H   UNL     1     -40.068  55.276 -51.649  1.00  0.00     0.217 HD
ENDBRANCH   6  13
ENDBRANCH   4   5
ENDBRANCH   1   4
BRANCH   1  15
HETATM   15  C   UNL     1     -42.298  56.620 -54.935  1.00  0.00     0.312 C 
BRANCH  15  16
HETATM   16  C   UNL     1     -42.926  56.872 -56.340  1.00  0.00     0.251 C 
HETATM   17  N   UNL     1     -42.109  56.830 -57.437  1.00  0.00    -0.368 N 
HETATM   18  H   UNL     1     -41.247  56.296 -57.462  1.00  0.00     0.159 HD
HETATM   19  H   UNL     1     -42.565  56.962 -58.336  1.00  0.00     0.159 HD
HETATM   20  O   UNL     1     -44.086  57.263 -56.459  1.00  0.00    -0.271 OA
ENDBRANCH  15  16
BRANCH  15  21
HETATM   21  C   UNL     1     -42.918  57.455 -53.810  1.00  0.00    -0.016 A 
HETATM   22  C   UNL     1     -43.768  56.917 -52.830  1.00  0.00     0.052 A 
HETATM   23  C   UNL     1     -44.291  57.726 -51.820  1.00  0.00     0.117 A 
HETATM   24  F   UNL     1     -45.114  57.182 -50.916  1.00  0.00    -0.206 F 
HETATM   25  C   UNL     1     -43.977  59.073 -51.741  1.00  0.00     0.042 A 
HETATM   26  C   UNL     1     -43.106  59.621 -52.676  1.00  0.00     0.004 A 
HETATM   27  C   UNL     1     -42.571  58.819 -53.689  1.00  0.00     0.010 A 
ENDBRANCH  15  21
ENDBRANCH   1  15
TORSDOF 6
ENDMDL
MODEL 4
REMARK VINA RESULT:      -7.4      3.947      4.949
REMARK  6 active torsions:
REMARK  status: ('A' for Active; 'I' for Inactive)
REMARK    1  A    between atoms: C_6  and  O_7 
REMARK    2  A    between atoms: C_8  and  C_9 
REMARK    3  A    between atoms: C_9  and  N_10 
REMARK    4  A    between atoms: N_10  and  C_12 
REMARK    5  A    between atoms: C_12  and  C_13 
REMARK    6  A    between atoms: C_12  and  C_16 
REMARK       I    between atoms: C_13  and  N_14 
ROOT
HETATM    1  N   UNL     1     -42.826  55.822 -54.760  1.00  0.00    -0.054 N 
HETATM    2  H   UNL     1     -42.567  56.202 -53.839  1.00  0.00     0.281 HD
HETATM    3  C   UNL     1     -43.860  54.748 -54.580  1.00  0.00     0.271 C 
ENDROOT
BRANCH   1   4
HETATM    4  C   UNL     1     -41.506  55.242 -55.251  1.00  0.00     0.277 C 
BRANCH   4   5
HETATM    5  C   UNL     1     -40.955  54.211 -54.303  1.00  0.00     0.001 A 
HETATM    6  C   UNL     1     -40.779  54.505 -52.950  1.00  0.00     0.074 A 
HETATM    7  C   UNL     1     -40.316  53.545 -52.056  1.00  0.00     0.044 A 
HETATM    8  C   UNL     1     -40.028  52.247 -52.504  1.00  0.00    -0.053 A 
HETATM    9  C   UNL     1     -40.174  51.937 -53.871  1.00  0.00    -0.055 A 
HETATM   10  C   UNL     1     -39.552  51.215 -51.515  1.00  0.00     0.049 C 
HETATM   11  C   UNL     1     -39.894  50.554 -54.400  1.00  0.00     0.049 C 
HETATM   12  C   UNL     1     -40.639  52.923 -54.757  1.00  0.00     0.019 A 
BRANCH   6  13
HETATM   13  O   UNL     1     -41.128  55.755 -52.510  1.00  0.00    -0.360 OA
HETATM   14  H   UNL     1     -41.573  56.214 -53.253  1.00  0.00     0.217 HD
ENDBRANCH   6  13
ENDBRANCH   4   5
ENDBRANCH   1   4
BRANCH   1  15
HETATM   15  C   UNL     1     -43.283  57.006 -55.626  1.00  0.00     0.312 C 
BRANCH  15  16
HETATM   16  C   UNL     1     -42.860  58.348 -54.954  1.00  0.00     0.251 C 
HETATM   17  N   UNL     1     -41.739  58.361 -54.168  1.00  0.00    -0.368 N 
HETATM   18  H   UNL     1     -40.977  57.701 -54.286  1.00  0.00     0.159 HD
HETATM   19  H   UNL     1     -41.478  59.263 -53.781  1.00  0.00     0.159 HD
HETATM   20  O   UNL     1     -43.593  59.335 -54.983  1.00  0.00    -0.271 OA
ENDBRANCH  15  16
BRANCH  15  21
HETATM   21  C   UNL     1     -42.939  56.914 -57.116  1.00  0.00    -0.016 A 
HETATM   22  C   UNL     1     -43.404  55.885 -57.952  1.00  0.00     0.052 A 
HETATM   23  C   UNL     1     -43.068  55.862 -59.306  1.00  0.00     0.117 A 
HETATM   24  F   UNL     1     -43.513  54.855 -60.066  1.00  0.00    -0.206 F 
HETATM   25  C   UNL     1     -42.286  56.856 -59.872  1.00  0.00     0.042 A 
HETATM   26  C   UNL     1     -41.847  57.907 -59.075  1.00  0.00     0.004 A 
HETATM   27  C   UNL     1     -42.182  57.943 -57.716  1.00  0.00     0.010 A 
ENDBRANCH  15  21
ENDBRANCH   1  15
TORSDOF 6
ENDMDL
MODEL 5
REMARK VINA RESULT:      -7.2      2.325      3.603
REMARK  6 active torsions:
REMARK  status: ('A' for Active; 'I' for Inactive)
REMARK    1  A    between atoms: C_6  and  O_7 
REMARK    2  A    between atoms: C_8  and  C_9 
REMARK    3  A    between atoms: C_9  and  N_10 
REMARK    4  A    between atoms: N_10  and  C_12 
REMARK    5  A    between atoms: C_12  and  C_13 
REMARK    6  A    between atoms: C_12  and  C_16 
REMARK       I    between atoms: C_13  and  N_14 
ROOT
HETATM    1  N   UNL     1     -41.527  56.556 -51.646  1.00  0.00    -0.054 N 
HETATM    2  H   UNL     1     -40.821  56.110 -52.248  1.00  0.00     0.281 HD
HETATM    3  C   UNL     1     -41.189  58.010 -51.479  1.00  0.00     0.271 C 
ENDROOT
BRANCH   1   4
HETATM    4  C   UNL     1     -41.362  55.796 -50.338  1.00  0.00     0.277 C 
BRANCH   4   5
HETATM    5  C   UNL     1     -40.872  54.390 -50.560  1.00  0.00     0.001 A 
HETATM    6  C   UNL     1     -40.748  53.499 -49.494  1.00  0.00     0.074 A 
HETATM    7  C   UNL     1     -40.341  52.183 -49.694  1.00  0.00     0.044 A 
HETATM    8  C   UNL     1     -40.058  51.725 -50.990  1.00  0.00    -0.053 A 
HETATM    9  C   UNL     1     -40.152  52.616 -52.078  1.00  0.00    -0.055 A 
HETATM   10  C   UNL     1     -39.643  50.290 -51.188  1.00  0.00     0.049 C 
HETATM   11  C   UNL     1     -39.875  52.168 -53.490  1.00  0.00     0.049 C 
HETATM   12  C   UNL     1     -40.560  53.941 -51.851  1.00  0.00     0.019 A 
BRANCH   6  13
HETATM   13  O   UNL     1     -41.092  53.938 -48.242  1.00  0.00    -0.360 OA
HETATM   14  H   UNL     1     -41.446  53.169 -47.749  1.00  0.00     0.217 HD
ENDBRANCH   6  13
ENDBRANCH   4   5
ENDBRANCH   1   4
BRANCH   1  15
HETATM   15  C   UNL     1     -42.899  56.293 -52.288  1.00  0.00     0.312 C 
BRANCH  15  16
HETATM   16  C   UNL     1     -43.885  57.445 -51.923  1.00  0.00     0.251 C 
HETATM   17  N   UNL     1     -44.504  57.412 -50.703  1.00  0.00    -0.368 N 
HETATM   18  H   UNL     1     -44.111  56.937 -49.898  1.00  0.00     0.159 HD
HETATM   19  H   UNL     1     -45.108  58.202 -50.490  1.00  0.00     0.159 HD
HETATM   20  O   UNL     1     -44.232  58.276 -52.759  1.00  0.00    -0.271 OA
ENDBRANCH  15  16
BRANCH  15  21
HETATM   21  C   UNL     1     -42.880  55.930 -53.776  1.00  0.00    -0.016 A 
HETATM   22  C   UNL     1     -42.425  56.806 -54.776  1.00  0.00     0.052 A 
HETATM   23  C   UNL     1     -42.418  56.413 -56.116  1.00  0.00     0.117 A 
HETATM   24  F   UNL     1     -41.997  57.282 -57.042  1.00  0.00    -0.206 F 
HETATM   25  C   UNL     1     -42.838  55.150 -56.499  1.00  0.00     0.042 A 
HETATM   26  C   UNL     1     -43.254  54.251 -55.524  1.00  0.00     0.004 A 
HETATM   27  C   UNL     1     -43.261  54.631 -54.177  1.00  0.00     0.010 A 
ENDBRANCH  15  21
ENDBRANCH   1  15
TORSDOF 6
ENDMDL
MODEL 6
REMARK VINA RESULT:      -7.0      3.091      3.972
REMARK  6 active torsions:
REMARK  status: ('A' for Active; 'I' for Inactive)
REMARK    1  A    between atoms: C_6  and  O_7 
REMARK    2  A    between atoms: C_8  and  C_9 
REMARK    3  A    between atoms: C_9  and  N_10 
REMARK    4  A    between atoms: N_10  and  C_12 
REMARK    5  A    between atoms: C_12  and  C_13 
REMARK    6  A    between atoms: C_12  and  C_16 
REMARK       I    between atoms: C_13  and  N_14 
ROOT
HETATM    1  N   UNL     1     -42.492  55.349 -53.479  1.00  0.00    -0.054 N 
HETATM    2  H   UNL     1     -42.389  55.239 -52.460  1.00  0.00     0.281 HD
HETATM    3  C   UNL     1     -43.542  54.398 -53.976  1.00  0.00     0.271 C 
ENDROOT
BRANCH   1   4
HETATM    4  C   UNL     1     -41.109  54.962 -53.985  1.00  0.00     0.277 C 
BRANCH   4   5
HETATM    5  C   UNL     1     -40.604  53.702 -53.335  1.00  0.00     0.001 A 
HETATM    6  C   UNL     1     -40.430  53.631 -51.952  1.00  0.00     0.074 A 
HETATM    7  C   UNL     1     -40.008  52.456 -51.336  1.00  0.00     0.044 A 
HETATM    8  C   UNL     1     -39.762  51.308 -52.104  1.00  0.00    -0.053 A 
HETATM    9  C   UNL     1     -39.906  51.367 -53.505  1.00  0.00    -0.055 A 
HETATM   10  C   UNL     1     -39.331  50.040 -51.414  1.00  0.00     0.049 C 
HETATM   11  C   UNL     1     -39.670  50.157 -54.373  1.00  0.00     0.049 C 
HETATM   12  C   UNL     1     -40.328  52.564 -54.106  1.00  0.00     0.019 A 
BRANCH   6  13
HETATM   13  O   UNL     1     -40.739  54.737 -51.204  1.00  0.00    -0.360 OA
HETATM   14  H   UNL     1     -41.700  54.901 -51.308  1.00  0.00     0.217 HD
ENDBRANCH   6  13
ENDBRANCH   4   5
ENDBRANCH   1   4
BRANCH   1  15
HETATM   15  C   UNL     1     -42.799  56.832 -53.745  1.00  0.00     0.312 C 
BRANCH  15  16
HETATM   16  C   UNL     1     -41.630  57.718 -53.216  1.00  0.00     0.251 C 
HETATM   17  N   UNL     1     -41.095  58.660 -54.052  1.00  0.00    -0.368 N 
HETATM   18  H   UNL     1     -41.615  59.079 -54.815  1.00  0.00     0.159 HD
HETATM   19  H   UNL     1     -40.362  59.242 -53.655  1.00  0.00     0.159 HD
HETATM   20  O   UNL     1     -41.084  57.478 -52.141  1.00  0.00    -0.271 OA
ENDBRANCH  15  16
BRANCH  15  21
HETATM   21  C   UNL     1     -43.253  57.173 -55.168  1.00  0.00    -0.016 A 
HETATM   22  C   UNL     1     -42.588  56.716 -56.319  1.00  0.00     0.052 A 
HETATM   23  C   UNL     1     -43.058  57.048 -57.590  1.00  0.00     0.117 A 
HETATM   24  F   UNL     1     -42.387  56.611 -58.662  1.00  0.00    -0.206 F 
HETATM   25  C   UNL     1     -44.197  57.818 -57.759  1.00  0.00     0.042 A 
HETATM   26  C   UNL     1     -44.895  58.249 -56.637  1.00  0.00     0.004 A 
HETATM   27  C   UNL     1     -44.437  57.918 -55.357  1.00  0.00     0.010 A 
ENDBRANCH  15  21
ENDBRANCH   1  15
TORSDOF 6
ENDMDL
MODEL 7
REMARK VINA RESULT:      -7.0      3.568      6.672
REMARK  6 active torsions:
REMARK  status: ('A' for Active; 'I' for Inactive)
REMARK    1  A    between atoms: C_6  and  O_7 
REMARK    2  A    between atoms: C_8  and  C_9 
REMARK    3  A    between atoms: C_9  and  N_10 
REMARK    4  A    between atoms: N_10  and  C_12 
REMARK    5  A    between atoms: C_12  and  C_13 
REMARK    6  A    between atoms: C_12  and  C_16 
REMARK       I    between atoms: C_13  and  N_14 
ROOT
HETATM    1  N   UNL     1     -41.832  55.615 -53.939  1.00  0.00    -0.054 N 
HETATM    2  H   UNL     1     -42.279  56.525 -53.755  1.00  0.00     0.281 HD
HETATM    3  C   UNL     1     -40.498  55.842 -54.591  1.00  0.00     0.271 C 
ENDROOT
BRANCH   1   4
HETATM    4  C   UNL     1     -42.815  54.963 -54.901  1.00  0.00     0.277 C 
BRANCH   4   5
HETATM    5  C   UNL     1     -43.205  55.888 -56.022  1.00  0.00     0.001 A 
HETATM    6  C   UNL     1     -43.832  57.106 -55.758  1.00  0.00     0.074 A 
HETATM    7  C   UNL     1     -44.155  57.991 -56.783  1.00  0.00     0.044 A 
HETATM    8  C   UNL     1     -43.838  57.672 -58.113  1.00  0.00    -0.053 A 
HETATM    9  C   UNL     1     -43.229  56.435 -58.403  1.00  0.00    -0.055 A 
HETATM   10  C   UNL     1     -44.174  58.654 -59.205  1.00  0.00     0.049 C 
HETATM   11  C   UNL     1     -42.854  56.053 -59.812  1.00  0.00     0.049 C 
HETATM   12  C   UNL     1     -42.916  55.556 -57.353  1.00  0.00     0.019 A 
BRANCH   6  13
HETATM   13  O   UNL     1     -44.075  57.438 -54.451  1.00  0.00    -0.360 OA
HETATM   14  H   UNL     1     -44.019  58.414 -54.380  1.00  0.00     0.217 HD
ENDBRANCH   6  13
ENDBRANCH   4   5
ENDBRANCH   1   4
BRANCH   1  15
HETATM   15  C   UNL     1     -41.765  54.865 -52.599  1.00  0.00     0.312 C 
BRANCH  15  16
HETATM   16  C   UNL     1     -43.193  54.754 -51.983  1.00  0.00     0.251 C 
HETATM   17  N   UNL     1     -43.906  55.904 -51.775  1.00  0.00    -0.368 N 
HETATM   18  H   UNL     1     -43.755  56.750 -52.313  1.00  0.00     0.159 HD
HETATM   19  H   UNL     1     -44.847  55.784 -51.408  1.00  0.00     0.159 HD
HETATM   20  O   UNL     1     -43.615  53.689 -51.538  1.00  0.00    -0.271 OA
ENDBRANCH  15  16
BRANCH  15  21
HETATM   21  C   UNL     1     -40.982  53.549 -52.611  1.00  0.00    -0.016 A 
HETATM   22  C   UNL     1     -40.880  52.723 -53.744  1.00  0.00     0.052 A 
HETATM   23  C   UNL     1     -40.139  51.541 -53.698  1.00  0.00     0.117 A 
HETATM   24  F   UNL     1     -40.082  50.771 -54.790  1.00  0.00    -0.206 F 
HETATM   25  C   UNL     1     -39.470  51.155 -52.548  1.00  0.00     0.042 A 
HETATM   26  C   UNL     1     -39.522  51.974 -51.427  1.00  0.00     0.004 A 
HETATM   27  C   UNL     1     -40.257  53.165 -51.462  1.00  0.00     0.010 A 
ENDBRANCH  15  21
ENDBRANCH   1  15
TORSDOF 6
ENDMDL
MODEL 8
REMARK VINA RESULT:      -6.9      2.835      5.669
REMARK  6 active torsions:
REMARK  status: ('A' for Active; 'I' for Inactive)
REMARK    1  A    between atoms: C_6  and  O_7 
REMARK    2  A    between atoms: C_8  and  C_9 
REMARK    3  A    between atoms: C_9  and  N_10 
REMARK    4  A    between atoms: N_10  and  C_12 
REMARK    5  A    between atoms: C_12  and  C_13 
REMARK    6  A    between atoms: C_12  and  C_16 
REMARK       I    between atoms: C_13  and  N_14 
ROOT
HETATM    1  N   UNL     1     -42.170  58.354 -51.842  1.00  0.00    -0.054 N 
HETATM    2  H   UNL     1     -42.927  58.696 -52.451  1.00  0.00     0.281 HD
HETATM    3  C   UNL     1     -41.632  59.499 -51.032  1.00  0.00     0.271 C 
ENDROOT
BRANCH   1   4
HETATM    4  C   UNL     1     -41.144  57.861 -52.853  1.00  0.00     0.277 C 
BRANCH   4   5
HETATM    5  C   UNL     1     -41.678  57.890 -54.260  1.00  0.00     0.001 A 
HETATM    6  C   UNL     1     -41.801  59.095 -54.953  1.00  0.00     0.074 A 
HETATM    7  C   UNL     1     -42.248  59.129 -56.270  1.00  0.00     0.044 A 
HETATM    8  C   UNL     1     -42.574  57.936 -56.933  1.00  0.00    -0.053 A 
HETATM    9  C   UNL     1     -42.483  56.711 -56.243  1.00  0.00    -0.055 A 
HETATM   10  C   UNL     1     -43.033  57.993 -58.367  1.00  0.00     0.049 C 
HETATM   11  C   UNL     1     -42.805  55.401 -56.914  1.00  0.00     0.049 C 
HETATM   12  C   UNL     1     -42.032  56.701 -54.912  1.00  0.00     0.019 A 
BRANCH   6  13
HETATM   13  O   UNL     1     -41.414  60.247 -54.319  1.00  0.00    -0.360 OA
HETATM   14  H   UNL     1     -42.138  60.899 -54.428  1.00  0.00     0.217 HD
ENDBRANCH   6  13
ENDBRANCH   4   5
ENDBRANCH   1   4
BRANCH   1  15
HETATM   15  C   UNL     1     -42.746  57.200 -51.007  1.00  0.00     0.312 C 
BRANCH  15  16
HETATM   16  C   UNL     1     -44.253  56.996 -51.353  1.00  0.00     0.251 C 
HETATM   17  N   UNL     1     -44.688  57.337 -52.605  1.00  0.00    -0.368 N 
HETATM   18  H   UNL     1     -44.078  57.348 -53.415  1.00  0.00     0.159 HD
HETATM   19  H   UNL     1     -45.668  57.152 -52.801  1.00  0.00     0.159 HD
HETATM   20  O   UNL     1     -45.071  56.696 -50.486  1.00  0.00    -0.271 OA
ENDBRANCH  15  16
BRANCH  15  21
HETATM   21  C   UNL     1     -41.922  55.908 -51.000  1.00  0.00    -0.016 A 
HETATM   22  C   UNL     1     -40.830  55.695 -50.142  1.00  0.00     0.052 A 
HETATM   23  C   UNL     1     -40.127  54.490 -50.172  1.00  0.00     0.117 A 
HETATM   24  F   UNL     1     -39.079  54.332 -49.355  1.00  0.00    -0.206 F 
HETATM   25  C   UNL     1     -40.491  53.464 -51.029  1.00  0.00     0.042 A 
HETATM   26  C   UNL     1     -41.593  53.635 -51.859  1.00  0.00     0.004 A 
HETATM   27  C   UNL     1     -42.309  54.836 -51.834  1.00  0.00     0.010 A 
ENDBRANCH  15  21
ENDBRANCH   1  15
TORSDOF 6
ENDMDL
MODEL 9
REMARK VINA RESULT:      -6.9     15.235     17.102
REMARK  6 active torsions:
REMARK  status: ('A' for Active; 'I' for Inactive)
REMARK    1  A    between atoms: C_6  and  O_7 
REMARK    2  A    between atoms: C_8  and  C_9 
REMARK    3  A    between atoms: C_9  and  N_10 
REMARK    4  A    between atoms: N_10  and  C_12 
REMARK    5  A    between atoms: C_12  and  C_13 
REMARK    6  A    between atoms: C_12  and  C_16 
REMARK       I    between atoms: C_13  and  N_14 
ROOT
HETATM    1  N   UNL     1     -34.470  41.212 -54.656  1.00  0.00    -0.054 N 
HETATM    2  H   UNL     1     -33.570  41.579 -54.317  1.00  0.00     0.281 HD
HETATM    3  C   UNL     1     -35.583  42.081 -54.143  1.00  0.00     0.271 C 
ENDROOT
BRANCH   1   4
HETATM    4  C   UNL     1     -34.511  39.828 -54.023  1.00  0.00     0.277 C 
BRANCH   4   5
HETATM    5  C   UNL     1     -33.833  39.802 -52.680  1.00  0.00     0.001 A 
HETATM    6  C   UNL     1     -32.549  40.325 -52.517  1.00  0.00     0.074 A 
HETATM    7  C   UNL     1     -31.931  40.349 -51.270  1.00  0.00     0.044 A 
HETATM    8  C   UNL     1     -32.603  39.853 -50.143  1.00  0.00    -0.053 A 
HETATM    9  C   UNL     1     -33.890  39.296 -50.290  1.00  0.00    -0.055 A 
HETATM   10  C   UNL     1     -31.926  39.911 -48.798  1.00  0.00     0.049 C 
HETATM   11  C   UNL     1     -34.659  38.765 -49.109  1.00  0.00     0.049 C 
HETATM   12  C   UNL     1     -34.492  39.278 -51.559  1.00  0.00     0.019 A 
BRANCH   6  13
HETATM   13  O   UNL     1     -31.930  40.869 -53.611  1.00  0.00    -0.360 OA
HETATM   14  H   UNL     1     -32.474  40.650 -54.396  1.00  0.00     0.217 HD
ENDBRANCH   6  13
ENDBRANCH   4   5
ENDBRANCH   1   4
BRANCH   1  15
HETATM   15  C   UNL     1     -34.379  41.134 -56.188  1.00  0.00     0.312 C 
BRANCH  15  16
HETATM   16  C   UNL     1     -33.353  40.035 -56.602  1.00  0.00     0.251 C 
HETATM   17  N   UNL     1     -32.019  40.297 -56.455  1.00  0.00    -0.368 N 
HETATM   18  H   UNL     1     -31.660  40.960 -55.775  1.00  0.00     0.159 HD
HETATM   19  H   UNL     1     -31.386  39.540 -56.700  1.00  0.00     0.159 HD
HETATM   20  O   UNL     1     -33.711  39.021 -57.200  1.00  0.00    -0.271 OA
ENDBRANCH  15  16
BRANCH  15  21
HETATM   21  C   UNL     1     -35.716  41.058 -56.932  1.00  0.00    -0.016 A 
HETATM   22  C   UNL     1     -36.042  41.887 -58.018  1.00  0.00     0.052 A 
HETATM   23  C   UNL     1     -37.272  41.761 -58.666  1.00  0.00     0.117 A 
HETATM   24  F   UNL     1     -37.554  42.582 -59.684  1.00  0.00    -0.206 F 
HETATM   25  C   UNL     1     -38.199  40.809 -58.273  1.00  0.00     0.042 A 
HETATM   26  C   UNL     1     -37.884  39.950 -57.226  1.00  0.00     0.004 A 
HETATM   27  C   UNL     1     -36.652  40.063 -56.573  1.00  0.00     0.010 A 
ENDBRANCH  15  21
ENDBRANCH   1  15
TORSDOF 6
ENDMDL
MODEL 10
REMARK VINA RESULT:      -6.8      2.486      3.597
REMARK  6 active torsions:
REMARK  status: ('A' for Active; 'I' for Inactive)
REMARK    1  A    between atoms: C_6  and  O_7 
REMARK    2  A    between atoms: C_8  and  C_9 
REMARK    3  A    between atoms: C_9  and  N_10 
REMARK    4  A    between atoms: N_10  and  C_12 
REMARK    5  A    between atoms: C_12  and  C_13 
REMARK    6  A    between atoms: C_12  and  C_16 
REMARK       I    between atoms: C_13  and  N_14 
ROOT
HETATM    1  N   UNL     1     -43.724  57.789 -53.890  1.00  0.00    -0.054 N 
HETATM    2  H   UNL     1     -43.965  57.732 -52.890  1.00  0.00     0.281 HD
HETATM    3  C   UNL     1     -44.709  58.684 -54.587  1.00  0.00     0.271 C 
ENDROOT
BRANCH   1   4
HETATM    4  C   UNL     1     -43.876  56.342 -54.339  1.00  0.00     0.277 C 
BRANCH   4   5
HETATM    5  C   UNL     1     -42.961  55.417 -53.583  1.00  0.00     0.001 A 
HETATM    6  C   UNL     1     -43.052  55.298 -52.196  1.00  0.00     0.074 A 
HETATM    7  C   UNL     1     -42.243  54.411 -51.491  1.00  0.00     0.044 A 
HETATM    8  C   UNL     1     -41.322  53.603 -52.176  1.00  0.00    -0.053 A 
HETATM    9  C   UNL     1     -41.196  53.727 -53.575  1.00  0.00    -0.055 A 
HETATM   10  C   UNL     1     -40.474  52.632 -51.397  1.00  0.00     0.049 C 
HETATM   11  C   UNL     1     -40.234  52.872 -54.358  1.00  0.00     0.049 C 
HETATM   12  C   UNL     1     -42.020  54.633 -54.264  1.00  0.00     0.019 A 
BRANCH   6  13
HETATM   13  O   UNL     1     -44.002  56.041 -51.545  1.00  0.00    -0.360 OA
HETATM   14  H   UNL     1     -44.299  55.522 -50.769  1.00  0.00     0.217 HD
ENDBRANCH   6  13
ENDBRANCH   4   5
ENDBRANCH   1   4
BRANCH   1  15
HETATM   15  C   UNL     1     -42.264  58.261 -53.977  1.00  0.00     0.312 C 
BRANCH  15  16
HETATM   16  C   UNL     1     -42.095  59.242 -55.177  1.00  0.00     0.251 C 
HETATM   17  N   UNL     1     -42.112  60.588 -54.928  1.00  0.00    -0.368 N 
HETATM   18  H   UNL     1     -41.850  60.985 -54.032  1.00  0.00     0.159 HD
HETATM   19  H   UNL     1     -41.960  61.191 -55.732  1.00  0.00     0.159 HD
HETATM   20  O   UNL     1     -42.113  58.839 -56.338  1.00  0.00    -0.271 OA
ENDBRANCH  15  16
BRANCH  15  21
HETATM   21  C   UNL     1     -41.645  58.758 -52.667  1.00  0.00    -0.016 A 
HETATM   22  C   UNL     1     -40.264  58.734 -52.409  1.00  0.00     0.052 A 
HETATM   23  C   UNL     1     -39.758  59.214 -51.201  1.00  0.00     0.117 A 
HETATM   24  F   UNL     1     -38.439  59.156 -50.983  1.00  0.00    -0.206 F 
HETATM   25  C   UNL     1     -40.592  59.744 -50.229  1.00  0.00     0.042 A 
HETATM   26  C   UNL     1     -41.958  59.816 -50.477  1.00  0.00     0.004 A 
HETATM   27  C   UNL     1     -42.477  59.342 -51.687  1.00  0.00     0.010 A 
ENDBRANCH  15  21
ENDBRANCH   1  15
TORSDOF 6
ENDMDL
