MODEL 1
REMARK VINA RESULT:      -8.8      0.000      0.000
REMARK  5 active torsions:
REMARK  status: ('A' for Active; 'I' for Inactive)
REMARK    1  A    between atoms: C_2  and  C_3 
REMARK    2  A    between atoms: C_8  and  N_9 
REMARK       I    between atoms: N_9  and  C_10 
REMARK       I    between atoms: C_10  and  N_11 
REMARK    3  A    between atoms: N_11  and  C_12 
REMARK    4  A    between atoms: C_12  and  C_13 
REMARK    5  A    between atoms: C_13  and  C_14 
ROOT
HETATM    1  N   UNL     1     -42.299  55.843 -57.820  1.00  0.00    -0.305 N 
HETATM    2  C   UNL     1     -42.654  56.296 -56.573  1.00  0.00     0.320 C 
HETATM    3  N   UNL     1     -41.738  55.901 -55.618  1.00  0.00    -0.343 N 
HETATM    4  O   UNL     1     -43.620  56.991 -56.293  1.00  0.00    -0.247 OA
HETATM    5  H   UNL     1     -41.392  55.411 -57.889  1.00  0.00     0.171 HD
HETATM    6  H   UNL     1     -41.216  55.053 -55.786  1.00  0.00     0.164 HD
ENDROOT
BRANCH   3   7
HETATM    7  C   UNL     1     -41.909  56.284 -54.225  1.00  0.00     0.129 C 
BRANCH   7   8
HETATM    8  C   UNL     1     -42.590  55.197 -53.385  1.00  0.00     0.059 C 
BRANCH   8   9
HETATM    9  C   UNL     1     -41.623  54.507 -52.438  1.00  0.00    -0.045 A 
HETATM   10  C   UNL     1     -40.940  53.304 -52.785  1.00  0.00    -0.020 A 
HETATM   11  C   UNL     1     -40.075  52.713 -51.829  1.00  0.00    -0.025 A 
HETATM   12  C   UNL     1     -41.066  52.656 -54.037  1.00  0.00     0.013 A 
HETATM   13  C   UNL     1     -39.385  51.528 -52.139  1.00  0.00     0.012 A 
HETATM   14  C   UNL     1     -39.904  53.313 -50.573  1.00  0.00     0.012 A 
HETATM   15  C   UNL     1     -39.535  50.914 -53.381  1.00  0.00     0.001 A 
HETATM   16  C   UNL     1     -40.375  51.477 -54.330  1.00  0.00     0.001 A 
HETATM   17  C   UNL     1     -40.573  54.490 -50.245  1.00  0.00     0.001 A 
HETATM   18  C   UNL     1     -41.426  55.082 -51.169  1.00  0.00     0.008 A 
ENDBRANCH   8   9
ENDBRANCH   7   8
ENDBRANCH   3   7
BRANCH   1  19
HETATM   19  C   UNL     1     -42.969  56.073 -59.014  1.00  0.00     0.095 A 
HETATM   20  C   UNL     1     -42.781  57.220 -59.765  1.00  0.00     0.107 A 
HETATM   21  O   UNL     1     -43.573  57.179 -60.867  1.00  0.00    -0.215 OA
HETATM   22  N   UNL     1     -44.287  56.005 -60.879  1.00  0.00    -0.131 NA
HETATM   23  C   UNL     1     -43.928  55.336 -59.773  1.00  0.00     0.087 A 
HETATM   24  C   UNL     1     -44.549  54.011 -59.540  1.00  0.00     0.075 C 
BRANCH  20  25
HETATM   25  C   UNL     1     -41.948  58.439 -59.635  1.00  0.00     0.065 C 
HETATM   26  C   UNL     1     -41.987  59.282 -60.898  1.00  0.00     0.012 C 
ENDBRANCH  20  25
ENDBRANCH   1  19
TORSDOF 5
ENDMDL
MODEL 2
REMARK VINA RESULT:      -8.8      1.642      2.462
REMARK  5 active torsions:
REMARK  status: ('A' for Active; 'I' for Inactive)
REMARK    1  A    between atoms: C_2  and  C_3 
REMARK    2  A    between atoms: C_8  and  N_9 
REMARK       I    between atoms: N_9  and  C_10 
REMARK       I    between atoms: C_10  and  N_11 
REMARK    3  A    between atoms: N_11  and  C_12 
REMARK    4  A    between atoms: C_12  and  C_13 
REMARK    5  A    between atoms: C_13  and  C_14 
ROOT
HETATM    1  N   UNL     1     -43.840  55.831 -58.174  1.00  0.00    -0.305 N 
HETATM    2  C   UNL     1     -43.228  55.945 -56.950  1.00  0.00     0.320 C 
HETATM    3  N   UNL     1     -43.240  54.742 -56.273  1.00  0.00    -0.343 N 
HETATM    4  O   UNL     1     -42.695  56.943 -56.486  1.00  0.00    -0.247 OA
HETATM    5  H   UNL     1     -44.091  54.898 -58.456  1.00  0.00     0.171 HD
HETATM    6  H   UNL     1     -43.985  54.091 -56.476  1.00  0.00     0.164 HD
ENDROOT
BRANCH   3   7
HETATM    7  C   UNL     1     -42.630  54.628 -54.957  1.00  0.00     0.129 C 
BRANCH   7   8
HETATM    8  C   UNL     1     -41.224  54.018 -54.999  1.00  0.00     0.059 C 
BRANCH   8   9
HETATM    9  C   UNL     1     -40.767  53.522 -53.637  1.00  0.00    -0.045 A 
HETATM   10  C   UNL     1     -40.338  52.181 -53.417  1.00  0.00    -0.020 A 
HETATM   11  C   UNL     1     -39.953  51.796 -52.107  1.00  0.00    -0.025 A 
HETATM   12  C   UNL     1     -40.265  51.197 -54.432  1.00  0.00     0.013 A 
HETATM   13  C   UNL     1     -39.524  50.481 -51.856  1.00  0.00     0.012 A 
HETATM   14  C   UNL     1     -39.998  52.729 -51.062  1.00  0.00     0.012 A 
HETATM   15  C   UNL     1     -39.467  49.537 -52.878  1.00  0.00     0.001 A 
HETATM   16  C   UNL     1     -39.837  49.893 -54.166  1.00  0.00     0.001 A 
HETATM   17  C   UNL     1     -40.415  54.038 -51.288  1.00  0.00     0.001 A 
HETATM   18  C   UNL     1     -40.798  54.432 -52.565  1.00  0.00     0.008 A 
ENDBRANCH   8   9
ENDBRANCH   7   8
ENDBRANCH   3   7
BRANCH   1  19
HETATM   19  C   UNL     1     -43.987  56.827 -59.131  1.00  0.00     0.095 A 
HETATM   20  C   UNL     1     -45.223  57.242 -59.593  1.00  0.00     0.107 A 
HETATM   21  O   UNL     1     -45.060  58.212 -60.528  1.00  0.00    -0.215 OA
HETATM   22  N   UNL     1     -43.722  58.471 -60.696  1.00  0.00    -0.131 NA
HETATM   23  C   UNL     1     -43.072  57.647 -59.860  1.00  0.00     0.087 A 
HETATM   24  C   UNL     1     -41.592  57.727 -59.828  1.00  0.00     0.075 C 
BRANCH  20  25
HETATM   25  C   UNL     1     -46.631  56.870 -59.310  1.00  0.00     0.065 C 
HETATM   26  C   UNL     1     -47.340  56.375 -60.560  1.00  0.00     0.012 C 
ENDBRANCH  20  25
ENDBRANCH   1  19
TORSDOF 5
ENDMDL
MODEL 3
REMARK VINA RESULT:      -8.8      1.290      2.288
REMARK  5 active torsions:
REMARK  status: ('A' for Active; 'I' for Inactive)
REMARK    1  A    between atoms: C_2  and  C_3 
REMARK    2  A    between atoms: C_8  and  N_9 
REMARK       I    between atoms: N_9  and  C_10 
REMARK       I    between atoms: C_10  and  N_11 
REMARK    3  A    between atoms: N_11  and  C_12 
REMARK    4  A    between atoms: C_12  and  C_13 
REMARK    5  A    between atoms: C_13  and  C_14 
ROOT
HETATM    1  N   UNL     1     -43.735  56.601 -57.147  1.00  0.00    -0.305 N 
HETATM    2  C   UNL     1     -43.057  56.402 -55.969  1.00  0.00     0.320 C 
HETATM    3  N   UNL     1     -43.931  56.195 -54.920  1.00  0.00    -0.343 N 
HETATM    4  O   UNL     1     -41.845  56.365 -55.818  1.00  0.00    -0.247 OA
HETATM    5  H   UNL     1     -44.730  56.450 -57.114  1.00  0.00     0.171 HD
HETATM    6  H   UNL     1     -44.852  56.606 -54.983  1.00  0.00     0.164 HD
ENDROOT
BRANCH   3   7
HETATM    7  C   UNL     1     -43.429  55.947 -53.577  1.00  0.00     0.129 C 
BRANCH   7   8
HETATM    8  C   UNL     1     -43.543  54.477 -53.157  1.00  0.00     0.059 C 
BRANCH   8   9
HETATM    9  C   UNL     1     -42.403  54.045 -52.251  1.00  0.00    -0.045 A 
HETATM   10  C   UNL     1     -41.378  53.153 -52.684  1.00  0.00    -0.020 A 
HETATM   11  C   UNL     1     -40.365  52.782 -51.763  1.00  0.00    -0.025 A 
HETATM   12  C   UNL     1     -41.300  52.612 -53.990  1.00  0.00     0.013 A 
HETATM   13  C   UNL     1     -39.340  51.905 -52.158  1.00  0.00     0.012 A 
HETATM   14  C   UNL     1     -40.385  53.292 -50.457  1.00  0.00     0.012 A 
HETATM   15  C   UNL     1     -39.295  51.388 -53.451  1.00  0.00     0.001 A 
HETATM   16  C   UNL     1     -40.274  51.741 -54.367  1.00  0.00     0.001 A 
HETATM   17  C   UNL     1     -41.389  54.165 -50.045  1.00  0.00     0.001 A 
HETATM   18  C   UNL     1     -42.390  54.537 -50.934  1.00  0.00     0.008 A 
ENDBRANCH   8   9
ENDBRANCH   7   8
ENDBRANCH   3   7
BRANCH   1  19
HETATM   19  C   UNL     1     -43.182  56.811 -58.404  1.00  0.00     0.095 A 
HETATM   20  C   UNL     1     -43.407  55.959 -59.470  1.00  0.00     0.107 A 
HETATM   21  O   UNL     1     -42.733  56.402 -60.561  1.00  0.00    -0.215 OA
HETATM   22  N   UNL     1     -42.060  57.559 -60.249  1.00  0.00    -0.131 NA
HETATM   23  C   UNL     1     -42.326  57.811 -58.958  1.00  0.00     0.087 A 
HETATM   24  C   UNL     1     -41.727  59.027 -58.358  1.00  0.00     0.075 C 
BRANCH  20  25
HETATM   25  C   UNL     1     -44.185  54.713 -59.675  1.00  0.00     0.065 C 
HETATM   26  C   UNL     1     -45.016  54.774 -60.946  1.00  0.00     0.012 C 
ENDBRANCH  20  25
ENDBRANCH   1  19
TORSDOF 5
ENDMDL
MODEL 4
REMARK VINA RESULT:      -8.6      1.416      3.183
REMARK  5 active torsions:
REMARK  status: ('A' for Active; 'I' for Inactive)
REMARK    1  A    between atoms: C_2  and  C_3 
REMARK    2  A    between atoms: C_8  and  N_9 
REMARK       I    between atoms: N_9  and  C_10 
REMARK       I    between atoms: C_10  and  N_11 
REMARK    3  A    between atoms: N_11  and  C_12 
REMARK    4  A    between atoms: C_12  and  C_13 
REMARK    5  A    between atoms: C_13  and  C_14 
ROOT
HETATM    1  N   UNL     1     -43.822  56.693 -57.262  1.00  0.00    -0.305 N 
HETATM    2  C   UNL     1     -43.174  56.459 -56.074  1.00  0.00     0.320 C 
HETATM    3  N   UNL     1     -44.074  56.275 -55.043  1.00  0.00    -0.343 N 
HETATM    4  O   UNL     1     -41.966  56.376 -55.902  1.00  0.00    -0.247 OA
HETATM    5  H   UNL     1     -44.822  56.579 -57.248  1.00  0.00     0.171 HD
HETATM    6  H   UNL     1     -44.977  56.720 -55.119  1.00  0.00     0.164 HD
ENDROOT
BRANCH   3   7
HETATM    7  C   UNL     1     -43.606  55.997 -53.694  1.00  0.00     0.129 C 
BRANCH   7   8
HETATM    8  C   UNL     1     -43.729  54.518 -53.310  1.00  0.00     0.059 C 
BRANCH   8   9
HETATM    9  C   UNL     1     -42.375  53.859 -53.108  1.00  0.00    -0.045 A 
HETATM   10  C   UNL     1     -41.688  53.891 -51.860  1.00  0.00    -0.020 A 
HETATM   11  C   UNL     1     -40.415  53.271 -51.767  1.00  0.00    -0.025 A 
HETATM   12  C   UNL     1     -42.199  54.503 -50.691  1.00  0.00     0.013 A 
HETATM   13  C   UNL     1     -39.711  53.283 -50.550  1.00  0.00     0.012 A 
HETATM   14  C   UNL     1     -39.859  52.642 -52.890  1.00  0.00     0.012 A 
HETATM   15  C   UNL     1     -40.243  53.898 -49.419  1.00  0.00     0.001 A 
HETATM   16  C   UNL     1     -41.487  54.508 -49.488  1.00  0.00     0.001 A 
HETATM   17  C   UNL     1     -40.540  52.613 -54.104  1.00  0.00     0.001 A 
HETATM   18  C   UNL     1     -41.787  53.217 -54.214  1.00  0.00     0.008 A 
ENDBRANCH   8   9
ENDBRANCH   7   8
ENDBRANCH   3   7
BRANCH   1  19
HETATM   19  C   UNL     1     -43.239  56.893 -58.507  1.00  0.00     0.095 A 
HETATM   20  C   UNL     1     -43.437  56.032 -59.571  1.00  0.00     0.107 A 
HETATM   21  O   UNL     1     -42.737  56.467 -60.649  1.00  0.00    -0.215 OA
HETATM   22  N   UNL     1     -42.074  57.628 -60.330  1.00  0.00    -0.131 NA
HETATM   23  C   UNL     1     -42.372  57.891 -59.048  1.00  0.00     0.087 A 
HETATM   24  C   UNL     1     -41.789  59.112 -58.445  1.00  0.00     0.075 C 
BRANCH  20  25
HETATM   25  C   UNL     1     -44.208  54.783 -59.784  1.00  0.00     0.065 C 
HETATM   26  C   UNL     1     -45.026  54.842 -61.063  1.00  0.00     0.012 C 
ENDBRANCH  20  25
ENDBRANCH   1  19
TORSDOF 5
ENDMDL
MODEL 5
REMARK VINA RESULT:      -8.1      1.714      3.354
REMARK  5 active torsions:
REMARK  status: ('A' for Active; 'I' for Inactive)
REMARK    1  A    between atoms: C_2  and  C_3 
REMARK    2  A    between atoms: C_8  and  N_9 
REMARK       I    between atoms: N_9  and  C_10 
REMARK       I    between atoms: C_10  and  N_11 
REMARK    3  A    between atoms: N_11  and  C_12 
REMARK    4  A    between atoms: C_12  and  C_13 
REMARK    5  A    between atoms: C_13  and  C_14 
ROOT
HETATM    1  N   UNL     1     -43.828  56.187 -58.024  1.00  0.00    -0.305 N 
HETATM    2  C   UNL     1     -43.332  56.034 -56.752  1.00  0.00     0.320 C 
HETATM    3  N   UNL     1     -43.217  54.699 -56.419  1.00  0.00    -0.343 N 
HETATM    4  O   UNL     1     -42.987  56.924 -55.988  1.00  0.00    -0.247 OA
HETATM    5  H   UNL     1     -43.918  55.343 -58.565  1.00  0.00     0.171 HD
HETATM    6  H   UNL     1     -43.842  54.044 -56.866  1.00  0.00     0.164 HD
ENDROOT
BRANCH   3   7
HETATM    7  C   UNL     1     -42.696  54.304 -55.119  1.00  0.00     0.129 C 
BRANCH   7   8
HETATM    8  C   UNL     1     -41.165  54.262 -55.075  1.00  0.00     0.059 C 
BRANCH   8   9
HETATM    9  C   UNL     1     -40.642  53.371 -53.961  1.00  0.00    -0.045 A 
HETATM   10  C   UNL     1     -40.601  53.793 -52.600  1.00  0.00    -0.020 A 
HETATM   11  C   UNL     1     -40.072  52.906 -51.628  1.00  0.00    -0.025 A 
HETATM   12  C   UNL     1     -41.063  55.052 -52.148  1.00  0.00     0.013 A 
HETATM   13  C   UNL     1     -40.018  53.290 -50.277  1.00  0.00     0.012 A 
HETATM   14  C   UNL     1     -39.605  51.641 -52.014  1.00  0.00     0.012 A 
HETATM   15  C   UNL     1     -40.479  54.539 -49.866  1.00  0.00     0.001 A 
HETATM   16  C   UNL     1     -41.002  55.420 -50.801  1.00  0.00     0.001 A 
HETATM   17  C   UNL     1     -39.653  51.237 -53.346  1.00  0.00     0.001 A 
HETATM   18  C   UNL     1     -40.166  52.095 -54.312  1.00  0.00     0.008 A 
ENDBRANCH   8   9
ENDBRANCH   7   8
ENDBRANCH   3   7
BRANCH   1  19
HETATM   19  C   UNL     1     -44.048  57.381 -58.697  1.00  0.00     0.095 A 
HETATM   20  C   UNL     1     -45.287  57.738 -59.199  1.00  0.00     0.107 A 
HETATM   21  O   UNL     1     -45.201  58.943 -59.817  1.00  0.00    -0.215 OA
HETATM   22  N   UNL     1     -43.914  59.417 -59.726  1.00  0.00    -0.131 NA
HETATM   23  C   UNL     1     -43.218  58.487 -59.055  1.00  0.00     0.087 A 
HETATM   24  C   UNL     1     -41.782  58.754 -58.802  1.00  0.00     0.075 C 
BRANCH  20  25
HETATM   25  C   UNL     1     -46.633  57.116 -59.219  1.00  0.00     0.065 C 
HETATM   26  C   UNL     1     -46.769  56.111 -60.350  1.00  0.00     0.012 C 
ENDBRANCH  20  25
ENDBRANCH   1  19
TORSDOF 5
ENDMDL
MODEL 6
REMARK VINA RESULT:      -8.1      4.727      6.017
REMARK  5 active torsions:
REMARK  status: ('A' for Active; 'I' for Inactive)
REMARK    1  A    between atoms: C_2  and  C_3 
REMARK    2  A    between atoms: C_8  and  N_9 
REMARK       I    between atoms: N_9  and  C_10 
REMARK       I    between atoms: C_10  and  N_11 
REMARK    3  A    between atoms: N_11  and  C_12 
REMARK    4  A    between atoms: C_12  and  C_13 
REMARK    5  A    between atoms: C_13  and  C_14 
ROOT
HETATM    1  N   UNL     1     -42.686  58.616 -50.873  1.00  0.00    -0.305 N 
HETATM    2  C   UNL     1     -42.876  57.276 -51.108  1.00  0.00     0.320 C 
HETATM    3  N   UNL     1     -42.042  56.508 -50.319  1.00  0.00    -0.343 N 
HETATM    4  O   UNL     1     -43.686  56.773 -51.873  1.00  0.00    -0.247 OA
HETATM    5  H   UNL     1     -42.082  58.846 -50.100  1.00  0.00     0.171 HD
HETATM    6  H   UNL     1     -41.166  56.914 -50.022  1.00  0.00     0.164 HD
ENDROOT
BRANCH   3   7
HETATM    7  C   UNL     1     -42.084  55.056 -50.393  1.00  0.00     0.129 C 
BRANCH   7   8
HETATM    8  C   UNL     1     -40.696  54.425 -50.558  1.00  0.00     0.059 C 
BRANCH   8   9
HETATM    9  C   UNL     1     -40.533  53.728 -51.899  1.00  0.00    -0.045 A 
HETATM   10  C   UNL     1     -40.183  52.351 -52.007  1.00  0.00    -0.020 A 
HETATM   11  C   UNL     1     -40.026  51.787 -53.299  1.00  0.00    -0.025 A 
HETATM   12  C   UNL     1     -39.983  51.496 -50.897  1.00  0.00     0.013 A 
HETATM   13  C   UNL     1     -39.682  50.432 -53.441  1.00  0.00     0.012 A 
HETATM   14  C   UNL     1     -40.218  52.583 -54.438  1.00  0.00     0.012 A 
HETATM   15  C   UNL     1     -39.490  49.619 -52.326  1.00  0.00     0.001 A 
HETATM   16  C   UNL     1     -39.641  50.150 -51.054  1.00  0.00     0.001 A 
HETATM   17  C   UNL     1     -40.563  53.927 -54.322  1.00  0.00     0.001 A 
HETATM   18  C   UNL     1     -40.719  54.496 -53.063  1.00  0.00     0.008 A 
ENDBRANCH   8   9
ENDBRANCH   7   8
ENDBRANCH   3   7
BRANCH   1  19
HETATM   19  C   UNL     1     -43.368  59.672 -51.462  1.00  0.00     0.095 A 
HETATM   20  C   UNL     1     -42.963  60.252 -52.651  1.00  0.00     0.107 A 
HETATM   21  O   UNL     1     -43.805  61.264 -52.977  1.00  0.00    -0.215 OA
HETATM   22  N   UNL     1     -44.791  61.369 -52.026  1.00  0.00    -0.131 NA
HETATM   23  C   UNL     1     -44.537  60.417 -51.116  1.00  0.00     0.087 A 
HETATM   24  C   UNL     1     -45.468  60.297 -49.969  1.00  0.00     0.075 C 
BRANCH  20  25
HETATM   25  C   UNL     1     -41.850  60.027 -53.605  1.00  0.00     0.065 C 
HETATM   26  C   UNL     1     -42.079  58.784 -54.449  1.00  0.00     0.012 C 
ENDBRANCH  20  25
ENDBRANCH   1  19
TORSDOF 5
ENDMDL
MODEL 7
REMARK VINA RESULT:      -8.0      4.624      6.237
REMARK  5 active torsions:
REMARK  status: ('A' for Active; 'I' for Inactive)
REMARK    1  A    between atoms: C_2  and  C_3 
REMARK    2  A    between atoms: C_8  and  N_9 
REMARK       I    between atoms: N_9  and  C_10 
REMARK       I    between atoms: C_10  and  N_11 
REMARK    3  A    between atoms: N_11  and  C_12 
REMARK    4  A    between atoms: C_12  and  C_13 
REMARK    5  A    between atoms: C_13  and  C_14 
ROOT
HETATM    1  N   UNL     1     -43.074  58.127 -50.967  1.00  0.00    -0.305 N 
HETATM    2  C   UNL     1     -42.993  56.773 -51.178  1.00  0.00     0.320 C 
HETATM    3  N   UNL     1     -42.219  56.163 -50.210  1.00  0.00    -0.343 N 
HETATM    4  O   UNL     1     -43.541  56.134 -52.064  1.00  0.00    -0.247 OA
HETATM    5  H   UNL     1     -42.681  58.463 -50.102  1.00  0.00     0.171 HD
HETATM    6  H   UNL     1     -41.497  56.712 -49.765  1.00  0.00     0.164 HD
ENDROOT
BRANCH   3   7
HETATM    7  C   UNL     1     -42.009  54.723 -50.229  1.00  0.00     0.129 C 
BRANCH   7   8
HETATM    8  C   UNL     1     -40.565  54.334 -50.567  1.00  0.00     0.059 C 
BRANCH   8   9
HETATM    9  C   UNL     1     -40.453  53.639 -51.913  1.00  0.00    -0.045 A 
HETATM   10  C   UNL     1     -40.135  52.255 -52.036  1.00  0.00    -0.020 A 
HETATM   11  C   UNL     1     -40.025  51.694 -53.334  1.00  0.00    -0.025 A 
HETATM   12  C   UNL     1     -39.926  51.391 -50.934  1.00  0.00     0.013 A 
HETATM   13  C   UNL     1     -39.715  50.332 -53.490  1.00  0.00     0.012 A 
HETATM   14  C   UNL     1     -40.229  52.499 -54.464  1.00  0.00     0.012 A 
HETATM   15  C   UNL     1     -39.512  49.510 -52.384  1.00  0.00     0.001 A 
HETATM   16  C   UNL     1     -39.617  50.039 -51.106  1.00  0.00     0.001 A 
HETATM   17  C   UNL     1     -40.541  53.850 -54.334  1.00  0.00     0.001 A 
HETATM   18  C   UNL     1     -40.651  54.416 -53.069  1.00  0.00     0.008 A 
ENDBRANCH   8   9
ENDBRANCH   7   8
ENDBRANCH   3   7
BRANCH   1  19
HETATM   19  C   UNL     1     -43.787  59.049 -51.722  1.00  0.00     0.095 A 
HETATM   20  C   UNL     1     -44.834  59.788 -51.202  1.00  0.00     0.107 A 
HETATM   21  O   UNL     1     -45.350  60.592 -52.167  1.00  0.00    -0.215 OA
HETATM   22  N   UNL     1     -44.651  60.416 -53.337  1.00  0.00    -0.131 NA
HETATM   23  C   UNL     1     -43.711  59.494 -53.077  1.00  0.00     0.087 A 
HETATM   24  C   UNL     1     -42.795  59.118 -54.179  1.00  0.00     0.075 C 
BRANCH  20  25
HETATM   25  C   UNL     1     -45.498  59.888 -49.880  1.00  0.00     0.065 C 
HETATM   26  C   UNL     1     -45.258  61.241 -49.233  1.00  0.00     0.012 C 
ENDBRANCH  20  25
ENDBRANCH   1  19
TORSDOF 5
ENDMDL
MODEL 8
REMARK VINA RESULT:      -7.9      1.848      2.508
REMARK  5 active torsions:
REMARK  status: ('A' for Active; 'I' for Inactive)
REMARK    1  A    between atoms: C_2  and  C_3 
REMARK    2  A    between atoms: C_8  and  N_9 
REMARK       I    between atoms: N_9  and  C_10 
REMARK       I    between atoms: C_10  and  N_11 
REMARK    3  A    between atoms: N_11  and  C_12 
REMARK    4  A    between atoms: C_12  and  C_13 
REMARK    5  A    between atoms: C_13  and  C_14 
ROOT
HETATM    1  N   UNL     1     -43.083  57.449 -56.797  1.00  0.00    -0.305 N 
HETATM    2  C   UNL     1     -42.981  56.576 -55.742  1.00  0.00     0.320 C 
HETATM    3  N   UNL     1     -41.774  56.725 -55.087  1.00  0.00    -0.343 N 
HETATM    4  O   UNL     1     -43.827  55.778 -55.366  1.00  0.00    -0.247 OA
HETATM    5  H   UNL     1     -42.352  58.138 -56.871  1.00  0.00     0.171 HD
HETATM    6  H   UNL     1     -40.987  57.069 -55.618  1.00  0.00     0.164 HD
ENDROOT
BRANCH   3   7
HETATM    7  C   UNL     1     -41.458  55.908 -53.925  1.00  0.00     0.129 C 
BRANCH   7   8
HETATM    8  C   UNL     1     -40.838  54.556 -54.295  1.00  0.00     0.059 C 
BRANCH   8   9
HETATM    9  C   UNL     1     -40.487  53.726 -53.072  1.00  0.00    -0.045 A 
HETATM   10  C   UNL     1     -40.211  52.329 -53.149  1.00  0.00    -0.020 A 
HETATM   11  C   UNL     1     -39.918  51.627 -51.952  1.00  0.00    -0.025 A 
HETATM   12  C   UNL     1     -40.205  51.589 -54.356  1.00  0.00     0.013 A 
HETATM   13  C   UNL     1     -39.640  50.249 -51.993  1.00  0.00     0.012 A 
HETATM   14  C   UNL     1     -39.902  52.307 -50.727  1.00  0.00     0.012 A 
HETATM   15  C   UNL     1     -39.646  49.551 -53.198  1.00  0.00     0.001 A 
HETATM   16  C   UNL     1     -39.928  50.220 -54.379  1.00  0.00     0.001 A 
HETATM   17  C   UNL     1     -40.170  53.673 -50.662  1.00  0.00     0.001 A 
HETATM   18  C   UNL     1     -40.461  54.376 -51.825  1.00  0.00     0.008 A 
ENDBRANCH   8   9
ENDBRANCH   7   8
ENDBRANCH   3   7
BRANCH   1  19
HETATM   19  C   UNL     1     -44.164  57.599 -57.657  1.00  0.00     0.095 A 
HETATM   20  C   UNL     1     -44.296  56.868 -58.823  1.00  0.00     0.107 A 
HETATM   21  O   UNL     1     -45.435  57.231 -59.465  1.00  0.00    -0.215 OA
HETATM   22  N   UNL     1     -46.088  58.196 -58.736  1.00  0.00    -0.131 NA
HETATM   23  C   UNL     1     -45.333  58.419 -57.649  1.00  0.00     0.087 A 
HETATM   24  C   UNL     1     -45.818  59.421 -56.671  1.00  0.00     0.075 C 
BRANCH  20  25
HETATM   25  C   UNL     1     -43.496  55.822 -59.506  1.00  0.00     0.065 C 
HETATM   26  C   UNL     1     -44.209  54.480 -59.502  1.00  0.00     0.012 C 
ENDBRANCH  20  25
ENDBRANCH   1  19
TORSDOF 5
ENDMDL
MODEL 9
REMARK VINA RESULT:      -7.6      3.587      4.648
REMARK  5 active torsions:
REMARK  status: ('A' for Active; 'I' for Inactive)
REMARK    1  A    between atoms: C_2  and  C_3 
REMARK    2  A    between atoms: C_8  and  N_9 
REMARK       I    between atoms: N_9  and  C_10 
REMARK       I    between atoms: C_10  and  N_11 
REMARK    3  A    between atoms: N_11  and  C_12 
REMARK    4  A    between atoms: C_12  and  C_13 
REMARK    5  A    between atoms: C_13  and  C_14 
ROOT
HETATM    1  N   UNL     1     -44.030  57.396 -54.262  1.00  0.00    -0.305 N 
HETATM    2  C   UNL     1     -42.692  57.106 -54.163  1.00  0.00     0.320 C 
HETATM    3  N   UNL     1     -42.370  55.982 -54.898  1.00  0.00    -0.343 N 
HETATM    4  O   UNL     1     -41.846  57.742 -53.551  1.00  0.00    -0.247 OA
HETATM    5  H   UNL     1     -44.551  56.851 -54.929  1.00  0.00     0.171 HD
HETATM    6  H   UNL     1     -43.091  55.291 -55.047  1.00  0.00     0.164 HD
ENDROOT
BRANCH   3   7
HETATM    7  C   UNL     1     -40.998  55.499 -54.949  1.00  0.00     0.129 C 
BRANCH   7   8
HETATM    8  C   UNL     1     -40.902  53.969 -54.932  1.00  0.00     0.059 C 
BRANCH   8   9
HETATM    9  C   UNL     1     -40.567  53.426 -53.553  1.00  0.00    -0.045 A 
HETATM   10  C   UNL     1     -40.190  52.068 -53.337  1.00  0.00    -0.020 A 
HETATM   11  C   UNL     1     -39.920  51.640 -52.012  1.00  0.00    -0.025 A 
HETATM   12  C   UNL     1     -40.061  51.109 -54.369  1.00  0.00     0.013 A 
HETATM   13  C   UNL     1     -39.545  50.308 -51.764  1.00  0.00     0.012 A 
HETATM   14  C   UNL     1     -40.025  52.547 -50.947  1.00  0.00     0.012 A 
HETATM   15  C   UNL     1     -39.430  49.388 -52.804  1.00  0.00     0.001 A 
HETATM   16  C   UNL     1     -39.688  49.788 -54.106  1.00  0.00     0.001 A 
HETATM   17  C   UNL     1     -40.390  53.872 -51.170  1.00  0.00     0.001 A 
HETATM   18  C   UNL     1     -40.661  54.308 -52.461  1.00  0.00     0.008 A 
ENDBRANCH   8   9
ENDBRANCH   7   8
ENDBRANCH   3   7
BRANCH   1  19
HETATM   19  C   UNL     1     -44.698  58.466 -53.681  1.00  0.00     0.095 A 
HETATM   20  C   UNL     1     -45.125  59.563 -54.407  1.00  0.00     0.107 A 
HETATM   21  O   UNL     1     -45.730  60.452 -53.580  1.00  0.00    -0.215 OA
HETATM   22  N   UNL     1     -45.732  59.962 -52.297  1.00  0.00    -0.131 NA
HETATM   23  C   UNL     1     -45.117  58.770 -52.350  1.00  0.00     0.087 A 
HETATM   24  C   UNL     1     -44.990  58.006 -51.086  1.00  0.00     0.075 C 
BRANCH  20  25
HETATM   25  C   UNL     1     -45.062  59.971 -55.832  1.00  0.00     0.065 C 
HETATM   26  C   UNL     1     -44.028  61.062 -56.057  1.00  0.00     0.012 C 
ENDBRANCH  20  25
ENDBRANCH   1  19
TORSDOF 5
ENDMDL
MODEL 10
REMARK VINA RESULT:      -7.6      4.390      6.126
REMARK  5 active torsions:
REMARK  status: ('A' for Active; 'I' for Inactive)
REMARK    1  A    between atoms: C_2  and  C_3 
REMARK    2  A    between atoms: C_8  and  N_9 
REMARK       I    between atoms: N_9  and  C_10 
REMARK       I    between atoms: C_10  and  N_11 
REMARK    3  A    between atoms: N_11  and  C_12 
REMARK    4  A    between atoms: C_12  and  C_13 
REMARK    5  A    between atoms: C_13  and  C_14 
ROOT
HETATM    1  N   UNL     1     -43.146  58.209 -50.870  1.00  0.00    -0.305 N 
HETATM    2  C   UNL     1     -42.023  57.422 -50.949  1.00  0.00     0.320 C 
HETATM    3  N   UNL     1     -42.058  56.408 -50.012  1.00  0.00    -0.343 N 
HETATM    4  O   UNL     1     -41.103  57.534 -51.746  1.00  0.00    -0.247 OA
HETATM    5  H   UNL     1     -43.871  57.881 -50.252  1.00  0.00     0.171 HD
HETATM    6  H   UNL     1     -42.582  56.566 -49.163  1.00  0.00     0.164 HD
ENDROOT
BRANCH   3   7
HETATM    7  C   UNL     1     -40.974  55.442 -49.927  1.00  0.00     0.129 C 
BRANCH   7   8
HETATM    8  C   UNL     1     -41.448  53.993 -50.089  1.00  0.00     0.059 C 
BRANCH   8   9
HETATM    9  C   UNL     1     -40.998  53.380 -51.404  1.00  0.00    -0.045 A 
HETATM   10  C   UNL     1     -41.674  53.629 -52.634  1.00  0.00    -0.020 A 
HETATM   11  C   UNL     1     -41.201  52.994 -53.811  1.00  0.00    -0.025 A 
HETATM   12  C   UNL     1     -42.797  54.482 -52.762  1.00  0.00     0.013 A 
HETATM   13  C   UNL     1     -41.844  53.219 -55.041  1.00  0.00     0.012 A 
HETATM   14  C   UNL     1     -40.088  52.144 -53.749  1.00  0.00     0.012 A 
HETATM   15  C   UNL     1     -42.949  54.062 -55.130  1.00  0.00     0.001 A 
HETATM   16  C   UNL     1     -43.426  54.694 -53.992  1.00  0.00     0.001 A 
HETATM   17  C   UNL     1     -39.433  51.910 -52.543  1.00  0.00     0.001 A 
HETATM   18  C   UNL     1     -39.884  52.522 -51.379  1.00  0.00     0.008 A 
ENDBRANCH   8   9
ENDBRANCH   7   8
ENDBRANCH   3   7
BRANCH   1  19
HETATM   19  C   UNL     1     -43.460  59.299 -51.671  1.00  0.00     0.095 A 
HETATM   20  C   UNL     1     -44.124  59.170 -52.878  1.00  0.00     0.107 A 
HETATM   21  O   UNL     1     -44.282  60.392 -53.446  1.00  0.00    -0.215 OA
HETATM   22  N   UNL     1     -43.742  61.355 -52.627  1.00  0.00    -0.131 NA
HETATM   23  C   UNL     1     -43.250  60.707 -51.560  1.00  0.00     0.087 A 
HETATM   24  C   UNL     1     -42.612  61.519 -50.498  1.00  0.00     0.075 C 
BRANCH  20  25
HETATM   25  C   UNL     1     -44.673  58.037 -53.661  1.00  0.00     0.065 C 
HETATM   26  C   UNL     1     -45.204  58.493 -55.010  1.00  0.00     0.012 C 
ENDBRANCH  20  25
ENDBRANCH   1  19
TORSDOF 5
ENDMDL
