MODEL 1
REMARK VINA RESULT:      -8.2      0.000      0.000
REMARK  4 active torsions:
REMARK  status: ('A' for Active; 'I' for Inactive)
REMARK    1  A    between atoms: C_9  and  C_10 
REMARK       I    between atoms: C_10  and  N_11 
REMARK    2  A    between atoms: N_11  and  C_12 
REMARK    3  A    between atoms: C_15  and  N_16 
REMARK       I    between atoms: N_16  and  C_17 
REMARK       I    between atoms: C_17  and  N_18 
REMARK    4  A    between atoms: N_18  and  C_19 
ROOT
HETATM    1  C   UNL     1     -42.770  56.253 -56.124  1.00  0.00     0.035 A 
HETATM    2  C   UNL     1     -43.220  57.560 -56.304  1.00  0.00     0.032 A 
HETATM    3  C   UNL     1     -43.881  57.931 -57.481  1.00  0.00     0.032 A 
HETATM    4  C   UNL     1     -44.103  57.002 -58.498  1.00  0.00     0.036 A 
HETATM    5  C   UNL     1     -43.588  55.710 -58.348  1.00  0.00     0.032 A 
HETATM    6  C   UNL     1     -42.932  55.337 -57.168  1.00  0.00     0.032 A 
ENDROOT
BRANCH   1   7
HETATM    7  N   UNL     1     -42.210  55.777 -54.927  1.00  0.00    -0.322 N 
HETATM    8  C   UNL     1     -42.806  54.981 -53.966  1.00  0.00     0.277 C 
HETATM    9  O   UNL     1     -43.995  54.693 -53.896  1.00  0.00    -0.266 OA
HETATM   10  H   UNL     1     -41.214  55.914 -54.773  1.00  0.00     0.169 HD
BRANCH   8  11
HETATM   11  C   UNL     1     -41.818  54.453 -53.006  1.00  0.00     0.157 A 
HETATM   12  C   UNL     1     -41.074  53.242 -53.117  1.00  0.00     0.029 A 
HETATM   13  C   UNL     1     -40.999  52.178 -54.038  1.00  0.00     0.023 A 
HETATM   14  C   UNL     1     -40.235  53.230 -52.010  1.00  0.00     0.063 A 
HETATM   15  C   UNL     1     -40.085  51.135 -53.821  1.00  0.00    -0.061 A 
HETATM   16  C   UNL     1     -39.979  50.003 -54.800  1.00  0.00     0.048 C 
HETATM   17  C   UNL     1     -39.253  51.165 -52.695  1.00  0.00     0.009 A 
HETATM   18  C   UNL     1     -39.312  52.210 -51.764  1.00  0.00     0.032 A 
HETATM   19  N   UNL     1     -40.531  54.373 -51.321  1.00  0.00    -0.277 N 
HETATM   20  H   UNL     1     -40.110  54.691 -50.457  1.00  0.00     0.189 HD
HETATM   21  N   UNL     1     -41.474  55.144 -51.894  1.00  0.00    -0.168 NA
ENDBRANCH   8  11
ENDBRANCH   1   7
BRANCH   4  22
HETATM   22  N   UNL     1     -44.834  57.286 -59.669  1.00  0.00    -0.309 N 
HETATM   23  C   UNL     1     -46.211  57.351 -59.782  1.00  0.00     0.321 C 
HETATM   24  N   UNL     1     -46.584  57.631 -61.089  1.00  0.00    -0.338 N 
HETATM   25  O   UNL     1     -47.026  57.148 -58.891  1.00  0.00    -0.247 OA
HETATM   26  H   UNL     1     -45.920  58.155 -61.640  1.00  0.00     0.164 HD
HETATM   27  H   UNL     1     -44.336  57.195 -60.542  1.00  0.00     0.170 HD
BRANCH  24  28
HETATM   28  C   UNL     1     -47.956  57.672 -61.497  1.00  0.00     0.086 A 
HETATM   29  C   UNL     1     -48.358  58.293 -62.805  1.00  0.00     0.027 A 
HETATM   30  C   UNL     1     -48.424  56.803 -62.633  1.00  0.00     0.027 A 
ENDBRANCH  24  28
ENDBRANCH   4  22
TORSDOF 4
ENDMDL
MODEL 2
REMARK VINA RESULT:      -8.0      2.588      2.855
REMARK  4 active torsions:
REMARK  status: ('A' for Active; 'I' for Inactive)
REMARK    1  A    between atoms: C_9  and  C_10 
REMARK       I    between atoms: C_10  and  N_11 
REMARK    2  A    between atoms: N_11  and  C_12 
REMARK    3  A    between atoms: C_15  and  N_16 
REMARK       I    between atoms: N_16  and  C_17 
REMARK       I    between atoms: C_17  and  N_18 
REMARK    4  A    between atoms: N_18  and  C_19 
ROOT
HETATM    1  C   UNL     1     -43.283  56.390 -56.877  1.00  0.00     0.035 A 
HETATM    2  C   UNL     1     -42.888  55.877 -58.111  1.00  0.00     0.032 A 
HETATM    3  C   UNL     1     -43.242  56.525 -59.301  1.00  0.00     0.032 A 
HETATM    4  C   UNL     1     -43.997  57.697 -59.276  1.00  0.00     0.036 A 
HETATM    5  C   UNL     1     -44.455  58.173 -58.043  1.00  0.00     0.032 A 
HETATM    6  C   UNL     1     -44.095  57.528 -56.853  1.00  0.00     0.032 A 
ENDROOT
BRANCH   1   7
HETATM    7  N   UNL     1     -42.866  55.867 -55.643  1.00  0.00    -0.322 N 
HETATM    8  C   UNL     1     -42.965  54.563 -55.193  1.00  0.00     0.277 C 
HETATM    9  O   UNL     1     -43.600  53.658 -55.722  1.00  0.00    -0.266 OA
HETATM   10  H   UNL     1     -42.314  56.461 -55.029  1.00  0.00     0.169 HD
BRANCH   8  11
HETATM   11  C   UNL     1     -42.160  54.343 -53.976  1.00  0.00     0.157 A 
HETATM   12  C   UNL     1     -41.305  53.236 -53.700  1.00  0.00     0.029 A 
HETATM   13  C   UNL     1     -40.943  52.044 -54.360  1.00  0.00     0.023 A 
HETATM   14  C   UNL     1     -40.722  53.526 -52.473  1.00  0.00     0.063 A 
HETATM   15  C   UNL     1     -40.007  51.180 -53.768  1.00  0.00    -0.061 A 
HETATM   16  C   UNL     1     -39.597  49.916 -54.464  1.00  0.00     0.048 C 
HETATM   17  C   UNL     1     -39.438  51.514 -52.532  1.00  0.00     0.009 A 
HETATM   18  C   UNL     1     -39.786  52.691 -51.857  1.00  0.00     0.032 A 
HETATM   19  N   UNL     1     -41.257  54.726 -52.095  1.00  0.00    -0.277 N 
HETATM   20  H   UNL     1     -41.058  55.243 -51.247  1.00  0.00     0.189 HD
HETATM   21  N   UNL     1     -42.121  55.258 -52.980  1.00  0.00    -0.168 NA
ENDBRANCH   8  11
ENDBRANCH   1   7
BRANCH   4  22
HETATM   22  N   UNL     1     -44.315  58.445 -60.428  1.00  0.00    -0.309 N 
HETATM   23  C   UNL     1     -43.689  59.602 -60.855  1.00  0.00     0.321 C 
HETATM   24  N   UNL     1     -44.280  60.080 -62.016  1.00  0.00    -0.338 N 
HETATM   25  O   UNL     1     -42.770  60.184 -60.293  1.00  0.00    -0.247 OA
HETATM   26  H   UNL     1     -44.720  59.392 -62.609  1.00  0.00     0.164 HD
HETATM   27  H   UNL     1     -45.219  58.269 -60.841  1.00  0.00     0.170 HD
BRANCH  24  28
HETATM   28  C   UNL     1     -43.875  61.312 -62.624  1.00  0.00     0.086 A 
HETATM   29  C   UNL     1     -42.742  61.354 -63.611  1.00  0.00     0.027 A 
HETATM   30  C   UNL     1     -44.152  61.551 -64.084  1.00  0.00     0.027 A 
ENDBRANCH  24  28
ENDBRANCH   4  22
TORSDOF 4
ENDMDL
MODEL 3
REMARK VINA RESULT:      -7.8      1.581      2.419
REMARK  4 active torsions:
REMARK  status: ('A' for Active; 'I' for Inactive)
REMARK    1  A    between atoms: C_9  and  C_10 
REMARK       I    between atoms: C_10  and  N_11 
REMARK    2  A    between atoms: N_11  and  C_12 
REMARK    3  A    between atoms: C_15  and  N_16 
REMARK       I    between atoms: N_16  and  C_17 
REMARK       I    between atoms: C_17  and  N_18 
REMARK    4  A    between atoms: N_18  and  C_19 
ROOT
HETATM    1  C   UNL     1     -42.988  55.915 -57.059  1.00  0.00     0.035 A 
HETATM    2  C   UNL     1     -43.607  57.153 -56.899  1.00  0.00     0.032 A 
HETATM    3  C   UNL     1     -44.413  57.684 -57.913  1.00  0.00     0.032 A 
HETATM    4  C   UNL     1     -44.613  56.987 -59.104  1.00  0.00     0.036 A 
HETATM    5  C   UNL     1     -43.934  55.779 -59.294  1.00  0.00     0.032 A 
HETATM    6  C   UNL     1     -43.134  55.244 -58.277  1.00  0.00     0.032 A 
ENDROOT
BRANCH   1   7
HETATM    7  N   UNL     1     -42.268  55.264 -56.044  1.00  0.00    -0.322 N 
HETATM    8  C   UNL     1     -42.764  54.635 -54.917  1.00  0.00     0.277 C 
HETATM    9  O   UNL     1     -43.917  54.688 -54.503  1.00  0.00    -0.266 OA
HETATM   10  H   UNL     1     -41.272  55.112 -56.181  1.00  0.00     0.169 HD
BRANCH   8  11
HETATM   11  C   UNL     1     -41.732  53.822 -54.246  1.00  0.00     0.157 A 
HETATM   12  C   UNL     1     -41.295  53.934 -52.893  1.00  0.00     0.029 A 
HETATM   13  C   UNL     1     -41.597  54.764 -51.795  1.00  0.00     0.023 A 
HETATM   14  C   UNL     1     -40.372  52.910 -52.725  1.00  0.00     0.063 A 
HETATM   15  C   UNL     1     -40.963  54.541 -50.562  1.00  0.00    -0.061 A 
HETATM   16  C   UNL     1     -41.285  55.404 -49.377  1.00  0.00     0.048 C 
HETATM   17  C   UNL     1     -40.043  53.493 -50.434  1.00  0.00     0.009 A 
HETATM   18  C   UNL     1     -39.725  52.658 -51.513  1.00  0.00     0.032 A 
HETATM   19  N   UNL     1     -40.298  52.288 -53.941  1.00  0.00    -0.277 N 
HETATM   20  H   UNL     1     -39.720  51.494 -54.186  1.00  0.00     0.189 HD
HETATM   21  N   UNL     1     -41.111  52.802 -54.883  1.00  0.00    -0.168 NA
ENDBRANCH   8  11
ENDBRANCH   1   7
BRANCH   4  22
HETATM   22  N   UNL     1     -45.477  57.423 -60.129  1.00  0.00    -0.309 N 
HETATM   23  C   UNL     1     -46.695  56.862 -60.471  1.00  0.00     0.321 C 
HETATM   24  N   UNL     1     -47.262  57.536 -61.543  1.00  0.00    -0.338 N 
HETATM   25  O   UNL     1     -47.214  55.879 -59.958  1.00  0.00    -0.247 OA
HETATM   26  H   UNL     1     -47.010  58.509 -61.642  1.00  0.00     0.164 HD
HETATM   27  H   UNL     1     -45.076  58.033 -60.825  1.00  0.00     0.170 HD
BRANCH  24  28
HETATM   28  C   UNL     1     -48.486  57.108 -62.150  1.00  0.00     0.086 A 
HETATM   29  C   UNL     1     -49.311  58.049 -62.982  1.00  0.00     0.027 A 
HETATM   30  C   UNL     1     -48.558  56.931 -63.643  1.00  0.00     0.027 A 
ENDBRANCH  24  28
ENDBRANCH   4  22
TORSDOF 4
ENDMDL
MODEL 4
REMARK VINA RESULT:      -7.7      5.824      7.826
REMARK  4 active torsions:
REMARK  status: ('A' for Active; 'I' for Inactive)
REMARK    1  A    between atoms: C_9  and  C_10 
REMARK       I    between atoms: C_10  and  N_11 
REMARK    2  A    between atoms: N_11  and  C_12 
REMARK    3  A    between atoms: C_15  and  N_16 
REMARK       I    between atoms: N_16  and  C_17 
REMARK       I    between atoms: C_17  and  N_18 
REMARK    4  A    between atoms: N_18  and  C_19 
ROOT
HETATM    1  C   UNL     1     -42.815  57.719 -52.025  1.00  0.00     0.035 A 
HETATM    2  C   UNL     1     -44.204  57.675 -51.931  1.00  0.00     0.032 A 
HETATM    3  C   UNL     1     -44.916  58.747 -51.379  1.00  0.00     0.032 A 
HETATM    4  C   UNL     1     -44.251  59.880 -50.912  1.00  0.00     0.036 A 
HETATM    5  C   UNL     1     -42.852  59.894 -50.939  1.00  0.00     0.032 A 
HETATM    6  C   UNL     1     -42.141  58.825 -51.498  1.00  0.00     0.032 A 
ENDROOT
BRANCH   1   7
HETATM    7  N   UNL     1     -42.044  56.741 -52.675  1.00  0.00    -0.322 N 
HETATM    8  C   UNL     1     -41.353  55.685 -52.107  1.00  0.00     0.277 C 
HETATM    9  O   UNL     1     -41.140  55.514 -50.912  1.00  0.00    -0.266 OA
HETATM   10  H   UNL     1     -42.071  56.702 -53.690  1.00  0.00     0.169 HD
BRANCH   8  11
HETATM   11  C   UNL     1     -40.908  54.715 -53.125  1.00  0.00     0.157 A 
HETATM   12  C   UNL     1     -40.478  53.373 -52.903  1.00  0.00     0.029 A 
HETATM   13  C   UNL     1     -40.293  52.540 -51.782  1.00  0.00     0.023 A 
HETATM   14  C   UNL     1     -40.239  52.856 -54.170  1.00  0.00     0.063 A 
HETATM   15  C   UNL     1     -39.873  51.213 -51.967  1.00  0.00    -0.061 A 
HETATM   16  C   UNL     1     -39.688  50.305 -50.786  1.00  0.00     0.048 C 
HETATM   17  C   UNL     1     -39.649  50.729 -53.262  1.00  0.00     0.009 A 
HETATM   18  C   UNL     1     -39.823  51.541 -54.390  1.00  0.00     0.032 A 
HETATM   19  N   UNL     1     -40.506  53.881 -55.034  1.00  0.00    -0.277 N 
HETATM   20  H   UNL     1     -40.437  53.861 -56.045  1.00  0.00     0.189 HD
HETATM   21  N   UNL     1     -40.923  55.017 -54.444  1.00  0.00    -0.168 NA
ENDBRANCH   8  11
ENDBRANCH   1   7
BRANCH   4  22
HETATM   22  N   UNL     1     -44.909  61.027 -50.424  1.00  0.00    -0.309 N 
HETATM   23  C   UNL     1     -45.657  61.113 -49.263  1.00  0.00     0.321 C 
HETATM   24  N   UNL     1     -46.178  62.389 -49.108  1.00  0.00    -0.338 N 
HETATM   25  O   UNL     1     -45.893  60.202 -48.478  1.00  0.00    -0.247 OA
HETATM   26  H   UNL     1     -45.651  63.140 -49.530  1.00  0.00     0.164 HD
HETATM   27  H   UNL     1     -45.056  61.775 -51.084  1.00  0.00     0.170 HD
BRANCH  24  28
HETATM   28  C   UNL     1     -47.059  62.726 -48.030  1.00  0.00     0.086 A 
HETATM   29  C   UNL     1     -47.111  64.124 -47.480  1.00  0.00     0.027 A 
HETATM   30  C   UNL     1     -48.259  63.597 -48.290  1.00  0.00     0.027 A 
ENDBRANCH  24  28
ENDBRANCH   4  22
TORSDOF 4
ENDMDL
MODEL 5
REMARK VINA RESULT:      -7.7      6.489      9.891
REMARK  4 active torsions:
REMARK  status: ('A' for Active; 'I' for Inactive)
REMARK    1  A    between atoms: C_9  and  C_10 
REMARK       I    between atoms: C_10  and  N_11 
REMARK    2  A    between atoms: N_11  and  C_12 
REMARK    3  A    between atoms: C_15  and  N_16 
REMARK       I    between atoms: N_16  and  C_17 
REMARK       I    between atoms: C_17  and  N_18 
REMARK    4  A    between atoms: N_18  and  C_19 
ROOT
HETATM    1  C   UNL     1     -44.195  58.269 -52.164  1.00  0.00     0.035 A 
HETATM    2  C   UNL     1     -44.402  57.809 -53.463  1.00  0.00     0.032 A 
HETATM    3  C   UNL     1     -43.927  56.554 -53.860  1.00  0.00     0.032 A 
HETATM    4  C   UNL     1     -43.238  55.737 -52.966  1.00  0.00     0.036 A 
HETATM    5  C   UNL     1     -42.966  56.227 -51.684  1.00  0.00     0.032 A 
HETATM    6  C   UNL     1     -43.447  57.480 -51.285  1.00  0.00     0.032 A 
ENDROOT
BRANCH   1   7
HETATM    7  N   UNL     1     -44.745  59.458 -51.658  1.00  0.00    -0.322 N 
HETATM    8  C   UNL     1     -45.766  59.600 -50.737  1.00  0.00     0.277 C 
HETATM    9  O   UNL     1     -46.504  58.711 -50.326  1.00  0.00    -0.266 OA
HETATM   10  H   UNL     1     -44.283  60.336 -51.882  1.00  0.00     0.169 HD
BRANCH   8  11
HETATM   11  C   UNL     1     -45.865  60.986 -50.240  1.00  0.00     0.157 A 
HETATM   12  C   UNL     1     -45.627  61.441 -48.910  1.00  0.00     0.029 A 
HETATM   13  C   UNL     1     -45.280  60.845 -47.681  1.00  0.00     0.023 A 
HETATM   14  C   UNL     1     -45.775  62.821 -48.968  1.00  0.00     0.063 A 
HETATM   15  C   UNL     1     -45.091  61.652 -46.548  1.00  0.00    -0.061 A 
HETATM   16  C   UNL     1     -44.704  61.038 -45.235  1.00  0.00     0.048 C 
HETATM   17  C   UNL     1     -45.244  63.041 -46.651  1.00  0.00     0.009 A 
HETATM   18  C   UNL     1     -45.593  63.654 -47.862  1.00  0.00     0.032 A 
HETATM   19  N   UNL     1     -46.101  63.094 -50.267  1.00  0.00    -0.277 N 
HETATM   20  H   UNL     1     -46.284  64.004 -50.672  1.00  0.00     0.189 HD
HETATM   21  N   UNL     1     -46.154  62.015 -51.070  1.00  0.00    -0.168 NA
ENDBRANCH   8  11
ENDBRANCH   1   7
BRANCH   4  22
HETATM   22  N   UNL     1     -42.808  54.430 -53.274  1.00  0.00    -0.309 N 
HETATM   23  C   UNL     1     -41.526  54.050 -53.630  1.00  0.00     0.321 C 
HETATM   24  N   UNL     1     -41.472  52.687 -53.885  1.00  0.00    -0.338 N 
HETATM   25  O   UNL     1     -40.557  54.787 -53.761  1.00  0.00    -0.247 OA
HETATM   26  H   UNL     1     -42.145  52.114 -53.397  1.00  0.00     0.164 HD
HETATM   27  H   UNL     1     -43.529  53.760 -53.492  1.00  0.00     0.170 HD
BRANCH  24  28
HETATM   28  C   UNL     1     -40.279  52.047 -54.353  1.00  0.00     0.086 A 
HETATM   29  C   UNL     1     -39.375  51.304 -53.409  1.00  0.00     0.027 A 
HETATM   30  C   UNL     1     -40.206  50.545 -54.402  1.00  0.00     0.027 A 
ENDBRANCH  24  28
ENDBRANCH   4  22
TORSDOF 4
ENDMDL
MODEL 6
REMARK VINA RESULT:      -7.6      3.409      4.348
REMARK  4 active torsions:
REMARK  status: ('A' for Active; 'I' for Inactive)
REMARK    1  A    between atoms: C_9  and  C_10 
REMARK       I    between atoms: C_10  and  N_11 
REMARK    2  A    between atoms: N_11  and  C_12 
REMARK    3  A    between atoms: C_15  and  N_16 
REMARK       I    between atoms: N_16  and  C_17 
REMARK       I    between atoms: C_17  and  N_18 
REMARK    4  A    between atoms: N_18  and  C_19 
ROOT
HETATM    1  C   UNL     1     -42.176  57.427 -55.232  1.00  0.00     0.035 A 
HETATM    2  C   UNL     1     -42.270  56.994 -56.554  1.00  0.00     0.032 A 
HETATM    3  C   UNL     1     -42.394  57.917 -57.599  1.00  0.00     0.032 A 
HETATM    4  C   UNL     1     -42.425  59.287 -57.341  1.00  0.00     0.036 A 
HETATM    5  C   UNL     1     -42.404  59.718 -56.011  1.00  0.00     0.032 A 
HETATM    6  C   UNL     1     -42.273  58.796 -54.966  1.00  0.00     0.032 A 
ENDROOT
BRANCH   1   7
HETATM    7  N   UNL     1     -41.928  56.572 -54.145  1.00  0.00    -0.322 N 
HETATM    8  C   UNL     1     -42.467  55.321 -53.905  1.00  0.00     0.277 C 
HETATM    9  O   UNL     1     -43.400  54.803 -54.508  1.00  0.00    -0.266 OA
HETATM   10  H   UNL     1     -41.180  56.816 -53.501  1.00  0.00     0.169 HD
BRANCH   8  11
HETATM   11  C   UNL     1     -41.750  54.617 -52.825  1.00  0.00     0.157 A 
HETATM   12  C   UNL     1     -41.078  53.363 -52.916  1.00  0.00     0.029 A 
HETATM   13  C   UNL     1     -40.869  52.393 -53.917  1.00  0.00     0.023 A 
HETATM   14  C   UNL     1     -40.506  53.168 -51.665  1.00  0.00     0.063 A 
HETATM   15  C   UNL     1     -40.093  51.258 -53.633  1.00  0.00    -0.061 A 
HETATM   16  C   UNL     1     -39.845  50.224 -54.692  1.00  0.00     0.048 C 
HETATM   17  C   UNL     1     -39.529  51.103 -52.360  1.00  0.00     0.009 A 
HETATM   18  C   UNL     1     -39.726  52.052 -51.348  1.00  0.00     0.032 A 
HETATM   19  N   UNL     1     -40.873  54.258 -50.927  1.00  0.00    -0.277 N 
HETATM   20  H   UNL     1     -40.634  54.451 -49.961  1.00  0.00     0.189 HD
HETATM   21  N   UNL     1     -41.616  55.161 -51.594  1.00  0.00    -0.168 NA
ENDBRANCH   8  11
ENDBRANCH   1   7
BRANCH   4  22
HETATM   22  N   UNL     1     -42.463  60.270 -58.351  1.00  0.00    -0.309 N 
HETATM   23  C   UNL     1     -41.466  61.184 -58.644  1.00  0.00     0.321 C 
HETATM   24  N   UNL     1     -41.855  62.016 -59.684  1.00  0.00    -0.338 N 
HETATM   25  O   UNL     1     -40.396  61.308 -58.062  1.00  0.00    -0.247 OA
HETATM   26  H   UNL     1     -42.516  61.630 -60.342  1.00  0.00     0.164 HD
HETATM   27  H   UNL     1     -43.372  60.492 -58.727  1.00  0.00     0.170 HD
BRANCH  24  28
HETATM   28  C   UNL     1     -41.040  63.106 -60.132  1.00  0.00     0.086 A 
HETATM   29  C   UNL     1     -40.079  62.937 -61.276  1.00  0.00     0.027 A 
HETATM   30  C   UNL     1     -41.323  63.755 -61.460  1.00  0.00     0.027 A 
ENDBRANCH  24  28
ENDBRANCH   4  22
TORSDOF 4
ENDMDL
MODEL 7
REMARK VINA RESULT:      -7.6      5.697      8.029
REMARK  4 active torsions:
REMARK  status: ('A' for Active; 'I' for Inactive)
REMARK    1  A    between atoms: C_9  and  C_10 
REMARK       I    between atoms: C_10  and  N_11 
REMARK    2  A    between atoms: N_11  and  C_12 
REMARK    3  A    between atoms: C_15  and  N_16 
REMARK       I    between atoms: N_16  and  C_17 
REMARK       I    between atoms: C_17  and  N_18 
REMARK    4  A    between atoms: N_18  and  C_19 
ROOT
HETATM    1  C   UNL     1     -43.712  58.135 -52.823  1.00  0.00     0.035 A 
HETATM    2  C   UNL     1     -43.841  59.474 -53.188  1.00  0.00     0.032 A 
HETATM    3  C   UNL     1     -44.616  60.352 -52.419  1.00  0.00     0.032 A 
HETATM    4  C   UNL     1     -45.273  59.905 -51.274  1.00  0.00     0.036 A 
HETATM    5  C   UNL     1     -45.203  58.547 -50.948  1.00  0.00     0.032 A 
HETATM    6  C   UNL     1     -44.423  57.671 -51.713  1.00  0.00     0.032 A 
ENDROOT
BRANCH   1   7
HETATM    7  N   UNL     1     -42.859  57.227 -53.471  1.00  0.00    -0.322 N 
HETATM    8  C   UNL     1     -41.628  56.763 -53.045  1.00  0.00     0.277 C 
HETATM    9  O   UNL     1     -40.972  57.198 -52.105  1.00  0.00    -0.266 OA
HETATM   10  H   UNL     1     -43.206  56.742 -54.295  1.00  0.00     0.169 HD
BRANCH   8  11
HETATM   11  C   UNL     1     -41.173  55.609 -53.845  1.00  0.00     0.157 A 
HETATM   12  C   UNL     1     -40.754  54.337 -53.357  1.00  0.00     0.029 A 
HETATM   13  C   UNL     1     -40.590  53.740 -52.091  1.00  0.00     0.023 A 
HETATM   14  C   UNL     1     -40.498  53.580 -54.493  1.00  0.00     0.063 A 
HETATM   15  C   UNL     1     -40.176  52.401 -52.004  1.00  0.00    -0.061 A 
HETATM   16  C   UNL     1     -40.013  51.743 -50.666  1.00  0.00     0.048 C 
HETATM   17  C   UNL     1     -39.934  51.671 -53.176  1.00  0.00     0.009 A 
HETATM   18  C   UNL     1     -40.086  52.246 -54.444  1.00  0.00     0.032 A 
HETATM   19  N   UNL     1     -40.746  54.415 -55.546  1.00  0.00    -0.277 N 
HETATM   20  H   UNL     1     -40.662  54.197 -56.532  1.00  0.00     0.189 HD
HETATM   21  N   UNL     1     -41.167  55.646 -55.198  1.00  0.00    -0.168 NA
ENDBRANCH   8  11
ENDBRANCH   1   7
BRANCH   4  22
HETATM   22  N   UNL     1     -45.998  60.751 -50.410  1.00  0.00    -0.309 N 
HETATM   23  C   UNL     1     -45.507  61.395 -49.289  1.00  0.00     0.321 C 
HETATM   24  N   UNL     1     -46.507  62.127 -48.665  1.00  0.00    -0.338 N 
HETATM   25  O   UNL     1     -44.368  61.319 -48.844  1.00  0.00    -0.247 OA
HETATM   26  H   UNL     1     -47.253  62.459 -49.259  1.00  0.00     0.164 HD
HETATM   27  H   UNL     1     -47.004  60.693 -50.465  1.00  0.00     0.170 HD
BRANCH  24  28
HETATM   28  C   UNL     1     -46.286  62.824 -47.434  1.00  0.00     0.086 A 
HETATM   29  C   UNL     1     -47.346  63.711 -46.843  1.00  0.00     0.027 A 
HETATM   30  C   UNL     1     -47.022  62.398 -46.192  1.00  0.00     0.027 A 
ENDBRANCH  24  28
ENDBRANCH   4  22
TORSDOF 4
ENDMDL
MODEL 8
REMARK VINA RESULT:      -7.4     15.998     20.437
REMARK  4 active torsions:
REMARK  status: ('A' for Active; 'I' for Inactive)
REMARK    1  A    between atoms: C_9  and  C_10 
REMARK       I    between atoms: C_10  and  N_11 
REMARK    2  A    between atoms: N_11  and  C_12 
REMARK    3  A    between atoms: C_15  and  N_16 
REMARK       I    between atoms: N_16  and  C_17 
REMARK       I    between atoms: C_17  and  N_18 
REMARK    4  A    between atoms: N_18  and  C_19 
ROOT
HETATM    1  C   UNL     1     -33.516  40.269 -52.787  1.00  0.00     0.035 A 
HETATM    2  C   UNL     1     -32.668  39.198 -52.510  1.00  0.00     0.032 A 
HETATM    3  C   UNL     1     -32.353  38.862 -51.188  1.00  0.00     0.032 A 
HETATM    4  C   UNL     1     -32.879  39.589 -50.122  1.00  0.00     0.036 A 
HETATM    5  C   UNL     1     -33.672  40.708 -50.401  1.00  0.00     0.032 A 
HETATM    6  C   UNL     1     -33.993  41.040 -51.723  1.00  0.00     0.032 A 
ENDROOT
BRANCH   1   7
HETATM    7  N   UNL     1     -33.975  40.590 -54.076  1.00  0.00    -0.322 N 
HETATM    8  C   UNL     1     -35.198  40.285 -54.645  1.00  0.00     0.277 C 
HETATM    9  O   UNL     1     -36.040  39.519 -54.191  1.00  0.00    -0.266 OA
HETATM   10  H   UNL     1     -33.417  41.224 -54.642  1.00  0.00     0.169 HD
BRANCH   8  11
HETATM   11  C   UNL     1     -35.420  41.036 -55.895  1.00  0.00     0.157 A 
HETATM   12  C   UNL     1     -36.237  40.647 -56.997  1.00  0.00     0.029 A 
HETATM   13  C   UNL     1     -37.035  39.533 -57.325  1.00  0.00     0.023 A 
HETATM   14  C   UNL     1     -36.177  41.713 -57.886  1.00  0.00     0.063 A 
HETATM   15  C   UNL     1     -37.748  39.523 -58.535  1.00  0.00    -0.061 A 
HETATM   16  C   UNL     1     -38.617  38.353 -58.893  1.00  0.00     0.048 C 
HETATM   17  C   UNL     1     -37.664  40.621 -59.400  1.00  0.00     0.009 A 
HETATM   18  C   UNL     1     -36.874  41.738 -59.096  1.00  0.00     0.032 A 
HETATM   19  N   UNL     1     -35.345  42.626 -57.299  1.00  0.00    -0.277 N 
HETATM   20  H   UNL     1     -35.071  43.528 -57.667  1.00  0.00     0.189 HD
HETATM   21  N   UNL     1     -34.876  42.260 -56.091  1.00  0.00    -0.168 NA
ENDBRANCH   8  11
ENDBRANCH   1   7
BRANCH   4  22
HETATM   22  N   UNL     1     -32.671  39.253 -48.769  1.00  0.00    -0.309 N 
HETATM   23  C   UNL     1     -31.490  39.388 -48.061  1.00  0.00     0.321 C 
HETATM   24  N   UNL     1     -31.644  38.937 -46.759  1.00  0.00    -0.338 N 
HETATM   25  O   UNL     1     -30.422  39.799 -48.497  1.00  0.00    -0.247 OA
HETATM   26  H   UNL     1     -32.575  38.996 -46.373  1.00  0.00     0.164 HD
HETATM   27  H   UNL     1     -33.356  38.643 -48.348  1.00  0.00     0.170 HD
BRANCH  24  28
HETATM   28  C   UNL     1     -30.550  38.889 -45.836  1.00  0.00     0.086 A 
HETATM   29  C   UNL     1     -30.133  40.109 -45.063  1.00  0.00     0.027 A 
HETATM   30  C   UNL     1     -30.816  38.974 -44.357  1.00  0.00     0.027 A 
ENDBRANCH  24  28
ENDBRANCH   4  22
TORSDOF 4
ENDMDL
MODEL 9
REMARK VINA RESULT:      -7.2      4.119      4.725
REMARK  4 active torsions:
REMARK  status: ('A' for Active; 'I' for Inactive)
REMARK    1  A    between atoms: C_9  and  C_10 
REMARK       I    between atoms: C_10  and  N_11 
REMARK    2  A    between atoms: N_11  and  C_12 
REMARK    3  A    between atoms: C_15  and  N_16 
REMARK       I    between atoms: N_16  and  C_17 
REMARK       I    between atoms: C_17  and  N_18 
REMARK    4  A    between atoms: N_18  and  C_19 
ROOT
HETATM    1  C   UNL     1     -43.612  56.220 -53.145  1.00  0.00     0.035 A 
HETATM    2  C   UNL     1     -44.040  56.328 -54.467  1.00  0.00     0.032 A 
HETATM    3  C   UNL     1     -44.735  57.464 -54.901  1.00  0.00     0.032 A 
HETATM    4  C   UNL     1     -45.014  58.509 -54.021  1.00  0.00     0.036 A 
HETATM    5  C   UNL     1     -44.649  58.369 -52.678  1.00  0.00     0.032 A 
HETATM    6  C   UNL     1     -43.948  57.236 -52.246  1.00  0.00     0.032 A 
ENDROOT
BRANCH   1   7
HETATM    7  N   UNL     1     -42.807  55.173 -52.667  1.00  0.00    -0.322 N 
HETATM    8  C   UNL     1     -41.441  55.015 -52.813  1.00  0.00     0.277 C 
HETATM    9  O   UNL     1     -40.706  55.672 -53.542  1.00  0.00    -0.266 OA
HETATM   10  H   UNL     1     -43.223  54.495 -52.034  1.00  0.00     0.169 HD
BRANCH   8  11
HETATM   11  C   UNL     1     -40.918  53.953 -51.932  1.00  0.00     0.157 A 
HETATM   12  C   UNL     1     -40.493  52.648 -52.319  1.00  0.00     0.029 A 
HETATM   13  C   UNL     1     -40.432  51.916 -53.521  1.00  0.00     0.023 A 
HETATM   14  C   UNL     1     -40.022  52.060 -51.152  1.00  0.00     0.063 A 
HETATM   15  C   UNL     1     -39.899  50.617 -53.517  1.00  0.00    -0.061 A 
HETATM   16  C   UNL     1     -39.809  49.829 -54.790  1.00  0.00     0.048 C 
HETATM   17  C   UNL     1     -39.429  50.064 -52.318  1.00  0.00     0.009 A 
HETATM   18  C   UNL     1     -39.484  50.772 -51.110  1.00  0.00     0.032 A 
HETATM   19  N   UNL     1     -40.206  52.999 -50.176  1.00  0.00    -0.277 N 
HETATM   20  H   UNL     1     -39.975  52.912 -49.193  1.00  0.00     0.189 HD
HETATM   21  N   UNL     1     -40.734  54.160 -50.607  1.00  0.00    -0.168 NA
ENDBRANCH   8  11
ENDBRANCH   1   7
BRANCH   4  22
HETATM   22  N   UNL     1     -45.634  59.713 -54.411  1.00  0.00    -0.309 N 
HETATM   23  C   UNL     1     -44.997  60.903 -54.718  1.00  0.00     0.321 C 
HETATM   24  N   UNL     1     -45.922  61.886 -55.038  1.00  0.00    -0.338 N 
HETATM   25  O   UNL     1     -43.792  61.116 -54.678  1.00  0.00    -0.247 OA
HETATM   26  H   UNL     1     -46.797  61.566 -55.426  1.00  0.00     0.164 HD
HETATM   27  H   UNL     1     -46.621  59.793 -54.219  1.00  0.00     0.170 HD
BRANCH  24  28
HETATM   28  C   UNL     1     -45.532  63.236 -55.315  1.00  0.00     0.086 A 
HETATM   29  C   UNL     1     -45.399  63.730 -56.729  1.00  0.00     0.027 A 
HETATM   30  C   UNL     1     -46.539  64.204 -55.876  1.00  0.00     0.027 A 
ENDBRANCH  24  28
ENDBRANCH   4  22
TORSDOF 4
ENDMDL
MODEL 10
REMARK VINA RESULT:      -7.2     15.918     20.971
REMARK  4 active torsions:
REMARK  status: ('A' for Active; 'I' for Inactive)
REMARK    1  A    between atoms: C_9  and  C_10 
REMARK       I    between atoms: C_10  and  N_11 
REMARK    2  A    between atoms: N_11  and  C_12 
REMARK    3  A    between atoms: C_15  and  N_16 
REMARK       I    between atoms: N_16  and  C_17 
REMARK       I    between atoms: C_17  and  N_18 
REMARK    4  A    between atoms: N_18  and  C_19 
ROOT
HETATM    1  C   UNL     1     -33.977  39.769 -50.474  1.00  0.00     0.035 A 
HETATM    2  C   UNL     1     -34.503  38.921 -49.500  1.00  0.00     0.032 A 
HETATM    3  C   UNL     1     -33.718  38.502 -48.420  1.00  0.00     0.032 A 
HETATM    4  C   UNL     1     -32.394  38.922 -48.295  1.00  0.00     0.036 A 
HETATM    5  C   UNL     1     -31.844  39.713 -49.309  1.00  0.00     0.032 A 
HETATM    6  C   UNL     1     -32.632  40.138 -50.386  1.00  0.00     0.032 A 
ENDROOT
BRANCH   1   7
HETATM    7  N   UNL     1     -34.735  40.328 -51.516  1.00  0.00    -0.322 N 
HETATM    8  C   UNL     1     -34.883  41.665 -51.838  1.00  0.00     0.277 C 
HETATM    9  O   UNL     1     -34.522  42.621 -51.161  1.00  0.00    -0.266 OA
HETATM   10  H   UNL     1     -35.140  39.702 -52.208  1.00  0.00     0.169 HD
BRANCH   8  11
HETATM   11  C   UNL     1     -35.514  41.840 -53.161  1.00  0.00     0.157 A 
HETATM   12  C   UNL     1     -34.958  41.501 -54.429  1.00  0.00     0.029 A 
HETATM   13  C   UNL     1     -33.741  40.964 -54.893  1.00  0.00     0.023 A 
HETATM   14  C   UNL     1     -35.958  41.786 -55.350  1.00  0.00     0.063 A 
HETATM   15  C   UNL     1     -33.564  40.729 -56.266  1.00  0.00    -0.061 A 
HETATM   16  C   UNL     1     -32.281  40.141 -56.776  1.00  0.00     0.048 C 
HETATM   17  C   UNL     1     -34.601  41.026 -57.160  1.00  0.00     0.009 A 
HETATM   18  C   UNL     1     -35.818  41.564 -56.722  1.00  0.00     0.032 A 
HETATM   19  N   UNL     1     -36.998  42.279 -54.612  1.00  0.00    -0.277 N 
HETATM   20  H   UNL     1     -37.898  42.592 -54.957  1.00  0.00     0.189 HD
HETATM   21  N   UNL     1     -36.774  42.318 -53.285  1.00  0.00    -0.168 NA
ENDBRANCH   8  11
ENDBRANCH   1   7
BRANCH   4  22
HETATM   22  N   UNL     1     -31.576  38.607 -47.191  1.00  0.00    -0.309 N 
HETATM   23  C   UNL     1     -30.668  39.448 -46.575  1.00  0.00     0.321 C 
HETATM   24  N   UNL     1     -30.021  38.796 -45.535  1.00  0.00    -0.338 N 
HETATM   25  O   UNL     1     -30.404  40.599 -46.900  1.00  0.00    -0.247 OA
HETATM   26  H   UNL     1     -30.535  38.051 -45.087  1.00  0.00     0.164 HD
HETATM   27  H   UNL     1     -31.460  37.626 -46.984  1.00  0.00     0.170 HD
BRANCH  24  28
HETATM   28  C   UNL     1     -28.971  39.416 -44.783  1.00  0.00     0.086 A 
HETATM   29  C   UNL     1     -29.247  40.067 -43.456  1.00  0.00     0.027 A 
HETATM   30  C   UNL     1     -28.484  38.776 -43.511  1.00  0.00     0.027 A 
ENDBRANCH  24  28
ENDBRANCH   4  22
TORSDOF 4
ENDMDL
