MODEL 1
REMARK VINA RESULT:      -7.9      0.000      0.000
REMARK  6 active torsions:
REMARK  status: ('A' for Active; 'I' for Inactive)
REMARK    1  A    between atoms: C_2  and  C_3 
REMARK    2  A    between atoms: C_2  and  C_18 
REMARK       I    between atoms: C_3  and  N_4 
REMARK    3  A    between atoms: N_4  and  C_5 
REMARK    4  A    between atoms: C_9  and  C_10 
REMARK    5  A    between atoms: C_18  and  C_19 
REMARK    6  A    between atoms: C_22  and  O_23 
ROOT
HETATM    1  C   UNL     1     -42.523  57.056 -54.393  1.00  0.00     0.227 C 
HETATM    2  N   UNL     1     -41.238  56.663 -54.067  1.00  0.00    -0.312 N 
HETATM    3  O   UNL     1     -43.370  56.294 -54.867  1.00  0.00    -0.273 OA
HETATM    4  H   UNL     1     -40.564  57.336 -53.727  1.00  0.00     0.170 HD
ENDROOT
BRANCH   2   5
HETATM    5  C   UNL     1     -40.815  55.357 -54.217  1.00  0.00     0.126 A 
HETATM    6  N   UNL     1     -40.462  54.787 -55.410  1.00  0.00    -0.262 N 
HETATM    7  H   UNL     1     -40.440  55.246 -56.317  1.00  0.00     0.191 HD
HETATM    8  N   UNL     1     -40.159  53.480 -55.313  1.00  0.00    -0.172 NA
HETATM    9  C   UNL     1     -40.263  53.206 -54.002  1.00  0.00     0.092 A 
HETATM   10  C   UNL     1     -40.673  54.364 -53.280  1.00  0.00     0.084 A 
BRANCH   9  11
HETATM   11  C   UNL     1     -40.001  51.869 -53.478  1.00  0.00     0.012 A 
HETATM   12  C   UNL     1     -39.957  50.752 -54.308  1.00  0.00     0.130 A 
HETATM   13  N   UNL     1     -39.697  49.488 -53.886  1.00  0.00    -0.272 NA
HETATM   14  C   UNL     1     -39.475  49.328 -52.564  1.00  0.00     0.116 A 
HETATM   15  C   UNL     1     -39.502  50.366 -51.648  1.00  0.00     0.020 A 
HETATM   16  C   UNL     1     -39.772  51.653 -52.115  1.00  0.00     0.017 A 
ENDBRANCH   9  11
ENDBRANCH   2   5
BRANCH   1  17
HETATM   17  C   UNL     1     -42.896  58.485 -54.000  1.00  0.00     0.078 C 
HETATM   18  C   UNL     1     -44.028  58.960 -54.913  1.00  0.00     0.020 C 
BRANCH  17  19
HETATM   19  C   UNL     1     -43.287  58.681 -52.526  1.00  0.00     0.052 C 
BRANCH  19  20
HETATM   20  C   UNL     1     -42.897  57.557 -51.598  1.00  0.00    -0.057 A 
HETATM   21  C   UNL     1     -43.754  56.473 -51.375  1.00  0.00     0.010 A 
HETATM   22  C   UNL     1     -43.360  55.419 -50.547  1.00  0.00     0.037 A 
HETATM   23  C   UNL     1     -42.105  55.420 -49.936  1.00  0.00     0.068 A 
HETATM   24  C   UNL     1     -41.247  56.496 -50.153  1.00  0.00     0.037 A 
HETATM   25  C   UNL     1     -41.639  57.554 -50.981  1.00  0.00     0.010 A 
BRANCH  23  26
HETATM   26  O   UNL     1     -41.842  54.322 -49.166  1.00  0.00    -0.356 OA
HETATM   27  C   UNL     1     -40.611  54.315 -48.455  1.00  0.00     0.210 C 
ENDBRANCH  23  26
ENDBRANCH  19  20
ENDBRANCH  17  19
ENDBRANCH   1  17
TORSDOF 6
ENDMDL
MODEL 2
REMARK VINA RESULT:      -7.6      3.753      6.561
REMARK  6 active torsions:
REMARK  status: ('A' for Active; 'I' for Inactive)
REMARK    1  A    between atoms: C_2  and  C_3 
REMARK    2  A    between atoms: C_2  and  C_18 
REMARK       I    between atoms: C_3  and  N_4 
REMARK    3  A    between atoms: N_4  and  C_5 
REMARK    4  A    between atoms: C_9  and  C_10 
REMARK    5  A    between atoms: C_18  and  C_19 
REMARK    6  A    between atoms: C_22  and  O_23 
ROOT
HETATM    1  C   UNL     1     -41.973  56.966 -53.449  1.00  0.00     0.227 C 
HETATM    2  N   UNL     1     -41.584  56.420 -54.658  1.00  0.00    -0.312 N 
HETATM    3  O   UNL     1     -42.907  57.763 -53.329  1.00  0.00    -0.273 OA
HETATM    4  H   UNL     1     -40.780  55.809 -54.713  1.00  0.00     0.170 HD
ENDROOT
BRANCH   2   5
HETATM    5  C   UNL     1     -42.249  56.706 -55.834  1.00  0.00     0.126 A 
HETATM    6  N   UNL     1     -42.405  57.962 -56.353  1.00  0.00    -0.262 N 
HETATM    7  H   UNL     1     -42.039  58.828 -55.964  1.00  0.00     0.191 HD
HETATM    8  N   UNL     1     -43.156  57.994 -57.468  1.00  0.00    -0.172 NA
HETATM    9  C   UNL     1     -43.450  56.706 -57.714  1.00  0.00     0.092 A 
HETATM   10  C   UNL     1     -42.894  55.865 -56.707  1.00  0.00     0.084 A 
BRANCH   9  11
HETATM   11  C   UNL     1     -44.259  56.313 -58.865  1.00  0.00     0.012 A 
HETATM   12  C   UNL     1     -45.339  57.077 -59.296  1.00  0.00     0.130 A 
HETATM   13  N   UNL     1     -46.115  56.779 -60.369  1.00  0.00    -0.272 NA
HETATM   14  C   UNL     1     -45.801  55.653 -61.045  1.00  0.00     0.116 A 
HETATM   15  C   UNL     1     -44.753  54.815 -60.699  1.00  0.00     0.020 A 
HETATM   16  C   UNL     1     -43.975  55.152 -59.591  1.00  0.00     0.017 A 
ENDBRANCH   9  11
ENDBRANCH   2   5
BRANCH   1  17
HETATM   17  C   UNL     1     -41.259  56.414 -52.215  1.00  0.00     0.078 C 
HETATM   18  C   UNL     1     -41.278  57.486 -51.124  1.00  0.00     0.020 C 
BRANCH  17  19
HETATM   19  C   UNL     1     -41.819  55.092 -51.668  1.00  0.00     0.052 C 
BRANCH  19  20
HETATM   20  C   UNL     1     -41.131  53.843 -52.163  1.00  0.00    -0.057 A 
HETATM   21  C   UNL     1     -41.353  53.361 -53.458  1.00  0.00     0.010 A 
HETATM   22  C   UNL     1     -40.675  52.228 -53.916  1.00  0.00     0.037 A 
HETATM   23  C   UNL     1     -39.759  51.564 -53.099  1.00  0.00     0.068 A 
HETATM   24  C   UNL     1     -39.533  52.038 -51.809  1.00  0.00     0.037 A 
HETATM   25  C   UNL     1     -40.211  53.172 -51.345  1.00  0.00     0.010 A 
BRANCH  23  26
HETATM   26  O   UNL     1     -39.156  50.482 -53.676  1.00  0.00    -0.356 OA
HETATM   27  C   UNL     1     -39.880  49.810 -54.698  1.00  0.00     0.210 C 
ENDBRANCH  23  26
ENDBRANCH  19  20
ENDBRANCH  17  19
ENDBRANCH   1  17
TORSDOF 6
ENDMDL
MODEL 3
REMARK VINA RESULT:      -7.6      3.592      6.224
REMARK  6 active torsions:
REMARK  status: ('A' for Active; 'I' for Inactive)
REMARK    1  A    between atoms: C_2  and  C_3 
REMARK    2  A    between atoms: C_2  and  C_18 
REMARK       I    between atoms: C_3  and  N_4 
REMARK    3  A    between atoms: N_4  and  C_5 
REMARK    4  A    between atoms: C_9  and  C_10 
REMARK    5  A    between atoms: C_18  and  C_19 
REMARK    6  A    between atoms: C_22  and  O_23 
ROOT
HETATM    1  C   UNL     1     -42.645  56.877 -55.433  1.00  0.00     0.227 C 
HETATM    2  N   UNL     1     -41.485  56.136 -55.562  1.00  0.00    -0.312 N 
HETATM    3  O   UNL     1     -43.474  56.698 -54.538  1.00  0.00    -0.273 OA
HETATM    4  H   UNL     1     -40.860  56.288 -56.342  1.00  0.00     0.170 HD
ENDROOT
BRANCH   2   5
HETATM    5  C   UNL     1     -41.150  55.147 -54.659  1.00  0.00     0.126 A 
HETATM    6  N   UNL     1     -40.971  55.347 -53.317  1.00  0.00    -0.262 N 
HETATM    7  H   UNL     1     -41.084  56.225 -52.816  1.00  0.00     0.191 HD
HETATM    8  N   UNL     1     -40.572  54.246 -52.656  1.00  0.00    -0.172 NA
HETATM    9  C   UNL     1     -40.547  53.282 -53.593  1.00  0.00     0.092 A 
HETATM   10  C   UNL     1     -40.906  53.812 -54.866  1.00  0.00     0.084 A 
BRANCH   9  11
HETATM   11  C   UNL     1     -40.165  51.911 -53.267  1.00  0.00     0.012 A 
HETATM   12  C   UNL     1     -40.165  50.903 -54.228  1.00  0.00     0.130 A 
HETATM   13  N   UNL     1     -39.800  49.617 -53.995  1.00  0.00    -0.272 NA
HETATM   14  C   UNL     1     -39.421  49.317 -52.734  1.00  0.00     0.116 A 
HETATM   15  C   UNL     1     -39.391  50.238 -51.701  1.00  0.00     0.020 A 
HETATM   16  C   UNL     1     -39.771  51.552 -51.974  1.00  0.00     0.017 A 
ENDBRANCH   9  11
ENDBRANCH   2   5
BRANCH   1  17
HETATM   17  C   UNL     1     -42.787  58.054 -56.400  1.00  0.00     0.078 C 
HETATM   18  C   UNL     1     -42.009  59.243 -55.833  1.00  0.00     0.020 C 
BRANCH  17  19
HETATM   19  C   UNL     1     -42.348  57.773 -57.846  1.00  0.00     0.052 C 
BRANCH  19  20
HETATM   20  C   UNL     1     -43.408  57.182 -58.742  1.00  0.00    -0.057 A 
HETATM   21  C   UNL     1     -44.345  57.997 -59.387  1.00  0.00     0.010 A 
HETATM   22  C   UNL     1     -45.293  57.439 -60.249  1.00  0.00     0.037 A 
HETATM   23  C   UNL     1     -45.319  56.064 -60.489  1.00  0.00     0.068 A 
HETATM   24  C   UNL     1     -44.390  55.247 -59.850  1.00  0.00     0.037 A 
HETATM   25  C   UNL     1     -43.439  55.802 -58.985  1.00  0.00     0.010 A 
BRANCH  23  26
HETATM   26  O   UNL     1     -46.286  55.653 -61.363  1.00  0.00    -0.356 OA
HETATM   27  C   UNL     1     -47.502  56.390 -61.371  1.00  0.00     0.210 C 
ENDBRANCH  23  26
ENDBRANCH  19  20
ENDBRANCH  17  19
ENDBRANCH   1  17
TORSDOF 6
ENDMDL
MODEL 4
REMARK VINA RESULT:      -7.5      3.029      5.590
REMARK  6 active torsions:
REMARK  status: ('A' for Active; 'I' for Inactive)
REMARK    1  A    between atoms: C_2  and  C_3 
REMARK    2  A    between atoms: C_2  and  C_18 
REMARK       I    between atoms: C_3  and  N_4 
REMARK    3  A    between atoms: N_4  and  C_5 
REMARK    4  A    between atoms: C_9  and  C_10 
REMARK    5  A    between atoms: C_18  and  C_19 
REMARK    6  A    between atoms: C_22  and  O_23 
ROOT
HETATM    1  C   UNL     1     -42.374  57.612 -54.618  1.00  0.00     0.227 C 
HETATM    2  N   UNL     1     -42.729  56.289 -54.813  1.00  0.00    -0.312 N 
HETATM    3  O   UNL     1     -41.248  57.972 -54.265  1.00  0.00    -0.273 OA
HETATM    4  H   UNL     1     -43.678  56.041 -55.056  1.00  0.00     0.170 HD
ENDROOT
BRANCH   2   5
HETATM    5  C   UNL     1     -41.820  55.261 -54.658  1.00  0.00     0.126 A 
HETATM    6  N   UNL     1     -40.667  55.127 -55.382  1.00  0.00    -0.262 N 
HETATM    7  H   UNL     1     -40.322  55.765 -56.095  1.00  0.00     0.191 HD
HETATM    8  N   UNL     1     -39.984  54.003 -55.102  1.00  0.00    -0.172 NA
HETATM    9  C   UNL     1     -40.689  53.415 -54.121  1.00  0.00     0.092 A 
HETATM   10  C   UNL     1     -41.851  54.179 -53.813  1.00  0.00     0.084 A 
BRANCH   9  11
HETATM   11  C   UNL     1     -40.264  52.151 -53.526  1.00  0.00     0.012 A 
HETATM   12  C   UNL     1     -39.928  52.051 -52.178  1.00  0.00     0.130 A 
HETATM   13  N   UNL     1     -39.548  50.904 -51.562  1.00  0.00    -0.272 NA
HETATM   14  C   UNL     1     -39.491  49.796 -52.332  1.00  0.00     0.116 A 
HETATM   15  C   UNL     1     -39.795  49.783 -53.683  1.00  0.00     0.020 A 
HETATM   16  C   UNL     1     -40.184  50.979 -54.285  1.00  0.00     0.017 A 
ENDBRANCH   9  11
ENDBRANCH   2   5
BRANCH   1  17
HETATM   17  C   UNL     1     -43.434  58.643 -55.006  1.00  0.00     0.078 C 
HETATM   18  C   UNL     1     -43.506  59.702 -53.904  1.00  0.00     0.020 C 
BRANCH  17  19
HETATM   19  C   UNL     1     -43.228  59.316 -56.373  1.00  0.00     0.052 C 
BRANCH  19  20
HETATM   20  C   UNL     1     -43.341  58.401 -57.568  1.00  0.00    -0.057 A 
HETATM   21  C   UNL     1     -44.526  57.709 -57.839  1.00  0.00     0.010 A 
HETATM   22  C   UNL     1     -44.629  56.900 -58.974  1.00  0.00     0.037 A 
HETATM   23  C   UNL     1     -43.559  56.774 -59.861  1.00  0.00     0.068 A 
HETATM   24  C   UNL     1     -42.375  57.460 -59.598  1.00  0.00     0.037 A 
HETATM   25  C   UNL     1     -42.268  58.271 -58.461  1.00  0.00     0.010 A 
BRANCH  23  26
HETATM   26  O   UNL     1     -43.799  55.966 -60.937  1.00  0.00    -0.356 OA
HETATM   27  C   UNL     1     -44.935  55.115 -60.862  1.00  0.00     0.210 C 
ENDBRANCH  23  26
ENDBRANCH  19  20
ENDBRANCH  17  19
ENDBRANCH   1  17
TORSDOF 6
ENDMDL
MODEL 5
REMARK VINA RESULT:      -7.5      3.262      7.649
REMARK  6 active torsions:
REMARK  status: ('A' for Active; 'I' for Inactive)
REMARK    1  A    between atoms: C_2  and  C_3 
REMARK    2  A    between atoms: C_2  and  C_18 
REMARK       I    between atoms: C_3  and  N_4 
REMARK    3  A    between atoms: N_4  and  C_5 
REMARK    4  A    between atoms: C_9  and  C_10 
REMARK    5  A    between atoms: C_18  and  C_19 
REMARK    6  A    between atoms: C_22  and  O_23 
ROOT
HETATM    1  C   UNL     1     -42.979  55.117 -53.633  1.00  0.00     0.227 C 
HETATM    2  N   UNL     1     -43.031  56.498 -53.682  1.00  0.00    -0.312 N 
HETATM    3  O   UNL     1     -43.458  54.448 -52.715  1.00  0.00    -0.273 OA
HETATM    4  H   UNL     1     -42.580  57.004 -54.433  1.00  0.00     0.170 HD
ENDROOT
BRANCH   2   5
HETATM    5  C   UNL     1     -43.667  57.238 -52.705  1.00  0.00     0.126 A 
HETATM    6  N   UNL     1     -44.762  56.817 -52.001  1.00  0.00    -0.262 N 
HETATM    7  H   UNL     1     -45.224  55.915 -52.083  1.00  0.00     0.191 HD
HETATM    8  N   UNL     1     -45.248  57.744 -51.157  1.00  0.00    -0.172 NA
HETATM    9  C   UNL     1     -44.405  58.784 -51.276  1.00  0.00     0.092 A 
HETATM   10  C   UNL     1     -43.395  58.500 -52.241  1.00  0.00     0.084 A 
BRANCH   9  11
HETATM   11  C   UNL     1     -44.588  60.009 -50.504  1.00  0.00     0.012 A 
HETATM   12  C   UNL     1     -45.739  60.237 -49.754  1.00  0.00     0.130 A 
HETATM   13  N   UNL     1     -45.960  61.342 -48.998  1.00  0.00    -0.272 NA
HETATM   14  C   UNL     1     -44.985  62.276 -48.996  1.00  0.00     0.116 A 
HETATM   15  C   UNL     1     -43.804  62.156 -49.711  1.00  0.00     0.020 A 
HETATM   16  C   UNL     1     -43.609  61.006 -50.476  1.00  0.00     0.017 A 
ENDBRANCH   9  11
ENDBRANCH   2   5
BRANCH   1  17
HETATM   17  C   UNL     1     -42.404  54.433 -54.874  1.00  0.00     0.078 C 
HETATM   18  C   UNL     1     -42.797  55.253 -56.105  1.00  0.00     0.020 C 
BRANCH  17  19
HETATM   19  C   UNL     1     -40.885  54.203 -54.854  1.00  0.00     0.052 C 
BRANCH  19  20
HETATM   20  C   UNL     1     -40.417  53.042 -54.012  1.00  0.00    -0.057 A 
HETATM   21  C   UNL     1     -40.209  53.185 -52.635  1.00  0.00     0.010 A 
HETATM   22  C   UNL     1     -39.818  52.089 -51.862  1.00  0.00     0.037 A 
HETATM   23  C   UNL     1     -39.637  50.833 -52.442  1.00  0.00     0.068 A 
HETATM   24  C   UNL     1     -39.842  50.683 -53.811  1.00  0.00     0.037 A 
HETATM   25  C   UNL     1     -40.233  51.779 -54.590  1.00  0.00     0.010 A 
BRANCH  23  26
HETATM   26  O   UNL     1     -39.269  49.846 -51.570  1.00  0.00    -0.356 OA
HETATM   27  C   UNL     1     -39.888  49.856 -50.290  1.00  0.00     0.210 C 
ENDBRANCH  23  26
ENDBRANCH  19  20
ENDBRANCH  17  19
ENDBRANCH   1  17
TORSDOF 6
ENDMDL
MODEL 6
REMARK VINA RESULT:      -7.4      4.412      7.071
REMARK  6 active torsions:
REMARK  status: ('A' for Active; 'I' for Inactive)
REMARK    1  A    between atoms: C_2  and  C_3 
REMARK    2  A    between atoms: C_2  and  C_18 
REMARK       I    between atoms: C_3  and  N_4 
REMARK    3  A    between atoms: N_4  and  C_5 
REMARK    4  A    between atoms: C_9  and  C_10 
REMARK    5  A    between atoms: C_18  and  C_19 
REMARK    6  A    between atoms: C_22  and  O_23 
ROOT
HETATM    1  C   UNL     1     -42.686  57.489 -56.659  1.00  0.00     0.227 C 
HETATM    2  N   UNL     1     -42.954  56.132 -56.698  1.00  0.00    -0.312 N 
HETATM    3  O   UNL     1     -42.217  58.064 -55.674  1.00  0.00    -0.273 OA
HETATM    4  H   UNL     1     -43.384  55.715 -57.512  1.00  0.00     0.170 HD
ENDROOT
BRANCH   2   5
HETATM    5  C   UNL     1     -42.676  55.305 -55.628  1.00  0.00     0.126 A 
HETATM    6  N   UNL     1     -43.464  55.179 -54.517  1.00  0.00    -0.262 N 
HETATM    7  H   UNL     1     -44.351  55.647 -54.348  1.00  0.00     0.191 HD
HETATM    8  N   UNL     1     -42.945  54.369 -53.577  1.00  0.00    -0.172 NA
HETATM    9  C   UNL     1     -41.806  53.908 -54.121  1.00  0.00     0.092 A 
HETATM   10  C   UNL     1     -41.604  54.474 -55.414  1.00  0.00     0.084 A 
BRANCH   9  11
HETATM   11  C   UNL     1     -40.938  52.977 -53.405  1.00  0.00     0.012 A 
HETATM   12  C   UNL     1     -40.653  53.136 -52.051  1.00  0.00     0.130 A 
HETATM   13  N   UNL     1     -39.874  52.296 -51.324  1.00  0.00    -0.272 NA
HETATM   14  C   UNL     1     -39.345  51.243 -51.984  1.00  0.00     0.116 A 
HETATM   15  C   UNL     1     -39.557  50.993 -53.330  1.00  0.00     0.020 A 
HETATM   16  C   UNL     1     -40.363  51.877 -54.047  1.00  0.00     0.017 A 
ENDBRANCH   9  11
ENDBRANCH   2   5
BRANCH   1  17
HETATM   17  C   UNL     1     -42.877  58.237 -57.978  1.00  0.00     0.078 C 
HETATM   18  C   UNL     1     -41.768  59.283 -58.107  1.00  0.00     0.020 C 
BRANCH  17  19
HETATM   19  C   UNL     1     -42.918  57.353 -59.235  1.00  0.00     0.052 C 
BRANCH  19  20
HETATM   20  C   UNL     1     -44.297  57.002 -59.735  1.00  0.00    -0.057 A 
HETATM   21  C   UNL     1     -45.399  57.816 -59.447  1.00  0.00     0.010 A 
HETATM   22  C   UNL     1     -46.662  57.501 -59.955  1.00  0.00     0.037 A 
HETATM   23  C   UNL     1     -46.849  56.379 -60.763  1.00  0.00     0.068 A 
HETATM   24  C   UNL     1     -45.757  55.564 -61.054  1.00  0.00     0.037 A 
HETATM   25  C   UNL     1     -44.490  55.876 -60.547  1.00  0.00     0.010 A 
BRANCH  23  26
HETATM   26  O   UNL     1     -48.130  56.197 -61.204  1.00  0.00    -0.356 OA
HETATM   27  C   UNL     1     -48.483  56.821 -62.431  1.00  0.00     0.210 C 
ENDBRANCH  23  26
ENDBRANCH  19  20
ENDBRANCH  17  19
ENDBRANCH   1  17
TORSDOF 6
ENDMDL
MODEL 7
REMARK VINA RESULT:      -7.3     14.337     16.835
REMARK  6 active torsions:
REMARK  status: ('A' for Active; 'I' for Inactive)
REMARK    1  A    between atoms: C_2  and  C_3 
REMARK    2  A    between atoms: C_2  and  C_18 
REMARK       I    between atoms: C_3  and  N_4 
REMARK    3  A    between atoms: N_4  and  C_5 
REMARK    4  A    between atoms: C_9  and  C_10 
REMARK    5  A    between atoms: C_18  and  C_19 
REMARK    6  A    between atoms: C_22  and  O_23 
ROOT
HETATM    1  C   UNL     1     -35.693  42.095 -54.130  1.00  0.00     0.227 C 
HETATM    2  N   UNL     1     -35.414  40.790 -53.766  1.00  0.00    -0.312 N 
HETATM    3  O   UNL     1     -35.735  43.032 -53.329  1.00  0.00    -0.273 OA
HETATM    4  H   UNL     1     -35.440  40.047 -54.452  1.00  0.00     0.170 HD
ENDROOT
BRANCH   2   5
HETATM    5  C   UNL     1     -35.123  40.444 -52.462  1.00  0.00     0.126 A 
HETATM    6  N   UNL     1     -36.016  40.494 -51.426  1.00  0.00    -0.262 N 
HETATM    7  H   UNL     1     -36.996  40.761 -51.484  1.00  0.00     0.191 HD
HETATM    8  N   UNL     1     -35.477  40.182 -50.234  1.00  0.00    -0.172 NA
HETATM    9  C   UNL     1     -34.202  39.862 -50.515  1.00  0.00     0.092 A 
HETATM   10  C   UNL     1     -33.943  40.013 -51.908  1.00  0.00     0.084 A 
BRANCH   9  11
HETATM   11  C   UNL     1     -33.270  39.452 -49.469  1.00  0.00     0.012 A 
HETATM   12  C   UNL     1     -31.985  39.981 -49.384  1.00  0.00     0.130 A 
HETATM   13  N   UNL     1     -31.080  39.658 -48.425  1.00  0.00    -0.272 NA
HETATM   14  C   UNL     1     -31.475  38.753 -47.505  1.00  0.00     0.116 A 
HETATM   15  C   UNL     1     -32.726  38.158 -47.498  1.00  0.00     0.020 A 
HETATM   16  C   UNL     1     -33.632  38.513 -48.497  1.00  0.00     0.017 A 
ENDBRANCH   9  11
ENDBRANCH   2   5
BRANCH   1  17
HETATM   17  C   UNL     1     -35.813  42.350 -55.632  1.00  0.00     0.078 C 
HETATM   18  C   UNL     1     -34.869  41.394 -56.364  1.00  0.00     0.020 C 
BRANCH  17  19
HETATM   19  C   UNL     1     -37.234  42.233 -56.207  1.00  0.00     0.052 C 
BRANCH  19  20
HETATM   20  C   UNL     1     -37.334  41.556 -57.552  1.00  0.00    -0.057 A 
HETATM   21  C   UNL     1     -37.711  40.212 -57.658  1.00  0.00     0.010 A 
HETATM   22  C   UNL     1     -37.842  39.612 -58.914  1.00  0.00     0.037 A 
HETATM   23  C   UNL     1     -37.610  40.339 -60.082  1.00  0.00     0.068 A 
HETATM   24  C   UNL     1     -37.234  41.677 -59.984  1.00  0.00     0.037 A 
HETATM   25  C   UNL     1     -37.101  42.282 -58.728  1.00  0.00     0.010 A 
BRANCH  23  26
HETATM   26  O   UNL     1     -37.788  39.636 -61.240  1.00  0.00    -0.356 OA
HETATM   27  C   UNL     1     -38.594  38.467 -61.166  1.00  0.00     0.210 C 
ENDBRANCH  23  26
ENDBRANCH  19  20
ENDBRANCH  17  19
ENDBRANCH   1  17
TORSDOF 6
ENDMDL
MODEL 8
REMARK VINA RESULT:      -7.2     14.763     16.972
REMARK  6 active torsions:
REMARK  status: ('A' for Active; 'I' for Inactive)
REMARK    1  A    between atoms: C_2  and  C_3 
REMARK    2  A    between atoms: C_2  and  C_18 
REMARK       I    between atoms: C_3  and  N_4 
REMARK    3  A    between atoms: N_4  and  C_5 
REMARK    4  A    between atoms: C_9  and  C_10 
REMARK    5  A    between atoms: C_18  and  C_19 
REMARK    6  A    between atoms: C_22  and  O_23 
ROOT
HETATM    1  C   UNL     1     -34.902  41.442 -52.143  1.00  0.00     0.227 C 
HETATM    2  N   UNL     1     -34.638  40.638 -53.237  1.00  0.00    -0.312 N 
HETATM    3  O   UNL     1     -35.369  42.580 -52.229  1.00  0.00    -0.273 OA
HETATM    4  H   UNL     1     -34.209  39.730 -53.117  1.00  0.00     0.170 HD
ENDROOT
BRANCH   2   5
HETATM    5  C   UNL     1     -34.918  41.047 -54.525  1.00  0.00     0.126 A 
HETATM    6  N   UNL     1     -34.646  42.292 -55.022  1.00  0.00    -0.262 N 
HETATM    7  H   UNL     1     -34.188  43.054 -54.527  1.00  0.00     0.191 HD
HETATM    8  N   UNL     1     -35.081  42.477 -56.281  1.00  0.00    -0.172 NA
HETATM    9  C   UNL     1     -35.604  41.291 -56.634  1.00  0.00     0.092 A 
HETATM   10  C   UNL     1     -35.517  40.364 -55.554  1.00  0.00     0.084 A 
BRANCH   9  11
HETATM   11  C   UNL     1     -36.186  41.075 -57.956  1.00  0.00     0.012 A 
HETATM   12  C   UNL     1     -36.105  39.843 -58.600  1.00  0.00     0.130 A 
HETATM   13  N   UNL     1     -36.642  39.573 -59.816  1.00  0.00    -0.272 NA
HETATM   14  C   UNL     1     -37.290  40.588 -60.428  1.00  0.00     0.116 A 
HETATM   15  C   UNL     1     -37.423  41.854 -59.883  1.00  0.00     0.020 A 
HETATM   16  C   UNL     1     -36.860  42.098 -58.630  1.00  0.00     0.017 A 
ENDBRANCH   9  11
ENDBRANCH   2   5
BRANCH   1  17
HETATM   17  C   UNL     1     -34.710  40.782 -50.777  1.00  0.00     0.078 C 
HETATM   18  C   UNL     1     -36.086  40.408 -50.221  1.00  0.00     0.020 C 
BRANCH  17  19
HETATM   19  C   UNL     1     -33.783  39.555 -50.764  1.00  0.00     0.052 C 
BRANCH  19  20
HETATM   20  C   UNL     1     -33.119  39.260 -49.441  1.00  0.00    -0.057 A 
HETATM   21  C   UNL     1     -33.605  38.254 -48.597  1.00  0.00     0.010 A 
HETATM   22  C   UNL     1     -32.952  37.964 -47.396  1.00  0.00     0.037 A 
HETATM   23  C   UNL     1     -31.803  38.660 -47.020  1.00  0.00     0.068 A 
HETATM   24  C   UNL     1     -31.314  39.663 -47.855  1.00  0.00     0.037 A 
HETATM   25  C   UNL     1     -31.966  39.958 -49.058  1.00  0.00     0.010 A 
BRANCH  23  26
HETATM   26  O   UNL     1     -31.257  38.265 -45.831  1.00  0.00    -0.356 OA
HETATM   27  C   UNL     1     -30.943  39.288 -44.895  1.00  0.00     0.210 C 
ENDBRANCH  23  26
ENDBRANCH  19  20
ENDBRANCH  17  19
ENDBRANCH   1  17
TORSDOF 6
ENDMDL
MODEL 9
REMARK VINA RESULT:      -7.1     14.592     17.259
REMARK  6 active torsions:
REMARK  status: ('A' for Active; 'I' for Inactive)
REMARK    1  A    between atoms: C_2  and  C_3 
REMARK    2  A    between atoms: C_2  and  C_18 
REMARK       I    between atoms: C_3  and  N_4 
REMARK    3  A    between atoms: N_4  and  C_5 
REMARK    4  A    between atoms: C_9  and  C_10 
REMARK    5  A    between atoms: C_18  and  C_19 
REMARK    6  A    between atoms: C_22  and  O_23 
ROOT
HETATM    1  C   UNL     1     -34.888  41.108 -51.650  1.00  0.00     0.227 C 
HETATM    2  N   UNL     1     -34.278  39.903 -51.352  1.00  0.00    -0.312 N 
HETATM    3  O   UNL     1     -34.583  42.178 -51.118  1.00  0.00    -0.273 OA
HETATM    4  H   UNL     1     -34.597  39.045 -51.779  1.00  0.00     0.170 HD
ENDROOT
BRANCH   2   5
HETATM    5  C   UNL     1     -33.240  39.818 -50.446  1.00  0.00     0.126 A 
HETATM    6  N   UNL     1     -31.933  40.104 -50.732  1.00  0.00    -0.262 N 
HETATM    7  H   UNL     1     -31.566  40.435 -51.622  1.00  0.00     0.191 HD
HETATM    8  N   UNL     1     -31.094  39.873 -49.707  1.00  0.00    -0.172 NA
HETATM    9  C   UNL     1     -31.892  39.476 -48.701  1.00  0.00     0.092 A 
HETATM   10  C   UNL     1     -33.251  39.432 -49.129  1.00  0.00     0.084 A 
BRANCH   9  11
HETATM   11  C   UNL     1     -31.353  39.132 -47.389  1.00  0.00     0.012 A 
HETATM   12  C   UNL     1     -31.689  37.942 -46.748  1.00  0.00     0.130 A 
HETATM   13  N   UNL     1     -31.207  37.554 -45.541  1.00  0.00    -0.272 NA
HETATM   14  C   UNL     1     -30.348  38.401 -44.934  1.00  0.00     0.116 A 
HETATM   15  C   UNL     1     -29.951  39.612 -45.477  1.00  0.00     0.020 A 
HETATM   16  C   UNL     1     -30.465  39.980 -46.720  1.00  0.00     0.017 A 
ENDBRANCH   9  11
ENDBRANCH   2   5
BRANCH   1  17
HETATM   17  C   UNL     1     -35.893  41.072 -52.802  1.00  0.00     0.078 C 
HETATM   18  C   UNL     1     -37.288  40.832 -52.222  1.00  0.00     0.020 C 
BRANCH  17  19
HETATM   19  C   UNL     1     -35.902  42.316 -53.706  1.00  0.00     0.052 C 
BRANCH  19  20
HETATM   20  C   UNL     1     -36.052  42.042 -55.182  1.00  0.00    -0.057 A 
HETATM   21  C   UNL     1     -37.298  42.141 -55.812  1.00  0.00     0.010 A 
HETATM   22  C   UNL     1     -37.412  41.927 -57.189  1.00  0.00     0.037 A 
HETATM   23  C   UNL     1     -36.290  41.623 -57.960  1.00  0.00     0.068 A 
HETATM   24  C   UNL     1     -35.047  41.523 -57.340  1.00  0.00     0.037 A 
HETATM   25  C   UNL     1     -34.928  41.735 -55.961  1.00  0.00     0.010 A 
BRANCH  23  26
HETATM   26  O   UNL     1     -36.541  41.454 -59.294  1.00  0.00    -0.356 OA
HETATM   27  C   UNL     1     -37.365  42.428 -59.922  1.00  0.00     0.210 C 
ENDBRANCH  23  26
ENDBRANCH  19  20
ENDBRANCH  17  19
ENDBRANCH   1  17
TORSDOF 6
ENDMDL
MODEL 10
REMARK VINA RESULT:      -7.0      2.669      3.467
REMARK  6 active torsions:
REMARK  status: ('A' for Active; 'I' for Inactive)
REMARK    1  A    between atoms: C_2  and  C_3 
REMARK    2  A    between atoms: C_2  and  C_18 
REMARK       I    between atoms: C_3  and  N_4 
REMARK    3  A    between atoms: N_4  and  C_5 
REMARK    4  A    between atoms: C_9  and  C_10 
REMARK    5  A    between atoms: C_18  and  C_19 
REMARK    6  A    between atoms: C_22  and  O_23 
ROOT
HETATM    1  C   UNL     1     -42.984  57.212 -54.366  1.00  0.00     0.227 C 
HETATM    2  N   UNL     1     -41.852  56.819 -53.676  1.00  0.00    -0.312 N 
HETATM    3  O   UNL     1     -43.517  56.533 -55.247  1.00  0.00    -0.273 OA
HETATM    4  H   UNL     1     -41.424  57.433 -52.996  1.00  0.00     0.170 HD
ENDROOT
BRANCH   2   5
HETATM    5  C   UNL     1     -41.246  55.600 -53.905  1.00  0.00     0.126 A 
HETATM    6  N   UNL     1     -40.628  55.246 -55.074  1.00  0.00    -0.262 N 
HETATM    7  H   UNL     1     -40.512  55.830 -55.898  1.00  0.00     0.191 HD
HETATM    8  N   UNL     1     -40.180  53.978 -55.083  1.00  0.00    -0.172 NA
HETATM    9  C   UNL     1     -40.468  53.510 -53.857  1.00  0.00     0.092 A 
HETATM   10  C   UNL     1     -41.138  54.503 -53.086  1.00  0.00     0.084 A 
BRANCH   9  11
HETATM   11  C   UNL     1     -40.128  52.146 -53.461  1.00  0.00     0.012 A 
HETATM   12  C   UNL     1     -39.779  51.829 -52.151  1.00  0.00     0.130 A 
HETATM   13  N   UNL     1     -39.475  50.580 -51.715  1.00  0.00    -0.272 NA
HETATM   14  C   UNL     1     -39.514  49.594 -52.637  1.00  0.00     0.116 A 
HETATM   15  C   UNL     1     -39.840  49.798 -53.968  1.00  0.00     0.020 A 
HETATM   16  C   UNL     1     -40.149  51.094 -54.382  1.00  0.00     0.017 A 
ENDBRANCH   9  11
ENDBRANCH   2   5
BRANCH   1  17
HETATM   17  C   UNL     1     -43.642  58.502 -53.874  1.00  0.00     0.078 C 
HETATM   18  C   UNL     1     -44.308  59.192 -55.067  1.00  0.00     0.020 C 
BRANCH  17  19
HETATM   19  C   UNL     1     -44.655  58.328 -52.731  1.00  0.00     0.052 C 
BRANCH  19  20
HETATM   20  C   UNL     1     -44.578  59.364 -51.636  1.00  0.00    -0.057 A 
HETATM   21  C   UNL     1     -45.552  59.429 -50.633  1.00  0.00     0.010 A 
HETATM   22  C   UNL     1     -45.442  60.365 -49.601  1.00  0.00     0.037 A 
HETATM   23  C   UNL     1     -44.360  61.244 -49.545  1.00  0.00     0.068 A 
HETATM   24  C   UNL     1     -43.387  61.186 -50.540  1.00  0.00     0.037 A 
HETATM   25  C   UNL     1     -43.493  60.250 -51.576  1.00  0.00     0.010 A 
BRANCH  23  26
HETATM   26  O   UNL     1     -44.369  62.097 -48.476  1.00  0.00    -0.356 OA
HETATM   27  C   UNL     1     -45.299  61.817 -47.438  1.00  0.00     0.210 C 
ENDBRANCH  23  26
ENDBRANCH  19  20
ENDBRANCH  17  19
ENDBRANCH   1  17
TORSDOF 6
ENDMDL
