MODEL 1
REMARK VINA RESULT:      -7.5      0.000      0.000
REMARK  8 active torsions:
REMARK  status: ('A' for Active; 'I' for Inactive)
REMARK    1  A    between atoms: C_8  and  C_9 
REMARK       I    between atoms: C_9  and  N_10 
REMARK    2  A    between atoms: N_10  and  N_11 
REMARK    3  A    between atoms: N_11  and  C_12 
REMARK    4  A    between atoms: C_12  and  N_13 
REMARK    5  A    between atoms: N_13  and  C_14 
REMARK    6  A    between atoms: C_15  and  O_16 
REMARK    7  A    between atoms: C_19  and  O_20 
REMARK    8  A    between atoms: C_26  and  C_27 
ROOT
HETATM    1  C   UNL     1     -40.912  58.737 -52.952  1.00  0.00     0.275 C 
HETATM    2  N   UNL     1     -42.053  59.279 -53.514  1.00  0.00    -0.263 N 
HETATM    3  O   UNL     1     -39.785  59.153 -53.212  1.00  0.00    -0.266 OA
HETATM    4  H   UNL     1     -42.907  58.722 -53.533  1.00  0.00     0.190 HD
ENDROOT
BRANCH   2   5
HETATM    5  N   UNL     1     -41.913  60.259 -54.513  1.00  0.00    -0.273 N 
HETATM    6  H   UNL     1     -41.067  60.824 -54.420  1.00  0.00     0.189 HD
BRANCH   5   7
HETATM    7  C   UNL     1     -42.387  60.038 -55.780  1.00  0.00     0.191 C 
HETATM    8  S   UNL     1     -43.734  60.803 -56.431  1.00  0.00    -0.039 SA
BRANCH   7   9
HETATM    9  N   UNL     1     -41.739  59.117 -56.545  1.00  0.00    -0.330 N 
HETATM   10  H   UNL     1     -40.735  59.066 -56.379  1.00  0.00     0.168 HD
BRANCH   9  11
HETATM   11  C   UNL     1     -42.193  58.201 -57.522  1.00  0.00     0.068 A 
HETATM   12  C   UNL     1     -42.868  57.052 -57.055  1.00  0.00     0.097 A 
HETATM   13  C   UNL     1     -43.353  56.103 -57.966  1.00  0.00     0.075 A 
HETATM   14  C   UNL     1     -43.186  56.300 -59.338  1.00  0.00     0.070 A 
HETATM   15  C   UNL     1     -42.558  57.459 -59.794  1.00  0.00     0.039 A 
HETATM   16  C   UNL     1     -42.069  58.410 -58.895  1.00  0.00     0.035 A 
BRANCH  12  17
HETATM   17  O   UNL     1     -42.990  56.961 -55.686  1.00  0.00    -0.354 OA
HETATM   18  C   UNL     1     -44.305  56.955 -55.145  1.00  0.00     0.210 C 
ENDBRANCH  12  17
BRANCH  14  19
HETATM   19  O   UNL     1     -43.610  55.458 -60.329  1.00  0.00    -0.356 OA
HETATM   20  C   UNL     1     -44.725  54.625 -60.035  1.00  0.00     0.210 C 
ENDBRANCH  14  19
ENDBRANCH   9  11
ENDBRANCH   7   9
ENDBRANCH   5   7
ENDBRANCH   2   5
BRANCH   1  21
HETATM   21  C   UNL     1     -41.154  57.615 -52.070  1.00  0.00     0.098 A 
HETATM   22  C   UNL     1     -41.361  56.284 -52.383  1.00  0.00     0.138 A 
HETATM   23  N   UNL     1     -41.484  55.619 -53.559  1.00  0.00    -0.370 N 
HETATM   24  N   UNL     1     -41.477  55.634 -51.181  1.00  0.00    -0.240 N 
HETATM   25  C   UNL     1     -41.703  54.178 -53.625  1.00  0.00     0.081 C 
HETATM   26  H   UNL     1     -41.669  56.115 -54.431  1.00  0.00     0.161 HD
HETATM   27  C   UNL     1     -40.416  53.489 -54.061  1.00  0.00     0.032 C 
HETATM   28  C   UNL     1     -42.321  53.640 -52.328  1.00  0.00     0.061 C 
HETATM   29  C   UNL     1     -41.729  54.215 -51.031  1.00  0.00     0.221 C 
HETATM   30  N   UNL     1     -41.475  56.454 -50.116  1.00  0.00    -0.181 NA
HETATM   31  C   UNL     1     -41.259  57.656 -50.658  1.00  0.00     0.160 A 
BRANCH  29  32
HETATM   32  C   UNL     1     -40.483  53.507 -50.553  1.00  0.00     0.409 C 
HETATM   33  F   UNL     1     -39.337  54.080 -50.969  1.00  0.00    -0.169 F 
HETATM   34  F   UNL     1     -40.425  53.417 -49.205  1.00  0.00    -0.169 F 
HETATM   35  F   UNL     1     -40.471  52.229 -51.017  1.00  0.00    -0.169 F 
ENDBRANCH  29  32
ENDBRANCH   1  21
TORSDOF 8
ENDMDL
MODEL 2
REMARK VINA RESULT:      -7.5      4.623      7.775
REMARK  8 active torsions:
REMARK  status: ('A' for Active; 'I' for Inactive)
REMARK    1  A    between atoms: C_8  and  C_9 
REMARK       I    between atoms: C_9  and  N_10 
REMARK    2  A    between atoms: N_10  and  N_11 
REMARK    3  A    between atoms: N_11  and  C_12 
REMARK    4  A    between atoms: C_12  and  N_13 
REMARK    5  A    between atoms: N_13  and  C_14 
REMARK    6  A    between atoms: C_15  and  O_16 
REMARK    7  A    between atoms: C_19  and  O_20 
REMARK    8  A    between atoms: C_26  and  C_27 
ROOT
HETATM    1  C   UNL     1     -45.059  58.202 -55.356  1.00  0.00     0.275 C 
HETATM    2  N   UNL     1     -45.061  57.050 -54.591  1.00  0.00    -0.263 N 
HETATM    3  O   UNL     1     -44.716  59.294 -54.906  1.00  0.00    -0.266 OA
HETATM    4  H   UNL     1     -45.638  56.263 -54.884  1.00  0.00     0.190 HD
ENDROOT
BRANCH   2   5
HETATM    5  N   UNL     1     -44.777  57.152 -53.217  1.00  0.00    -0.273 N 
HETATM    6  H   UNL     1     -45.605  57.100 -52.621  1.00  0.00     0.189 HD
BRANCH   5   7
HETATM    7  C   UNL     1     -43.602  56.663 -52.708  1.00  0.00     0.191 C 
HETATM    8  S   UNL     1     -42.244  57.602 -52.399  1.00  0.00    -0.039 SA
BRANCH   7   9
HETATM    9  N   UNL     1     -43.527  55.324 -52.467  1.00  0.00    -0.330 N 
HETATM   10  H   UNL     1     -44.372  54.924 -52.063  1.00  0.00     0.168 HD
BRANCH   9  11
HETATM   11  C   UNL     1     -42.502  54.374 -52.682  1.00  0.00     0.068 A 
HETATM   12  C   UNL     1     -42.363  53.872 -53.995  1.00  0.00     0.097 A 
HETATM   13  C   UNL     1     -41.364  52.932 -54.285  1.00  0.00     0.075 A 
HETATM   14  C   UNL     1     -40.493  52.503 -53.282  1.00  0.00     0.070 A 
HETATM   15  C   UNL     1     -40.608  53.037 -51.998  1.00  0.00     0.039 A 
HETATM   16  C   UNL     1     -41.602  53.972 -51.697  1.00  0.00     0.035 A 
BRANCH  12  17
HETATM   17  O   UNL     1     -43.263  54.370 -54.910  1.00  0.00    -0.354 OA
HETATM   18  C   UNL     1     -42.748  54.815 -56.159  1.00  0.00     0.210 C 
ENDBRANCH  12  17
BRANCH  14  19
HETATM   19  O   UNL     1     -39.480  51.597 -53.430  1.00  0.00    -0.356 OA
HETATM   20  C   UNL     1     -39.733  50.476 -54.269  1.00  0.00     0.210 C 
ENDBRANCH  14  19
ENDBRANCH   9  11
ENDBRANCH   7   9
ENDBRANCH   5   7
ENDBRANCH   2   5
BRANCH   1  21
HETATM   21  C   UNL     1     -45.536  58.021 -56.711  1.00  0.00     0.098 A 
HETATM   22  C   UNL     1     -44.817  57.788 -57.868  1.00  0.00     0.138 A 
HETATM   23  N   UNL     1     -43.487  57.733 -58.136  1.00  0.00    -0.370 N 
HETATM   24  N   UNL     1     -45.750  57.631 -58.860  1.00  0.00    -0.240 N 
HETATM   25  C   UNL     1     -42.968  57.465 -59.472  1.00  0.00     0.081 C 
HETATM   26  H   UNL     1     -42.800  58.109 -57.482  1.00  0.00     0.161 HD
HETATM   27  C   UNL     1     -42.427  56.041 -59.529  1.00  0.00     0.032 C 
HETATM   28  C   UNL     1     -43.994  57.814 -60.558  1.00  0.00     0.061 C 
HETATM   29  C   UNL     1     -45.440  57.392 -60.255  1.00  0.00     0.221 C 
HETATM   30  N   UNL     1     -47.013  57.856 -58.460  1.00  0.00    -0.181 NA
HETATM   31  C   UNL     1     -46.882  58.074 -57.148  1.00  0.00     0.160 A 
BRANCH  29  32
HETATM   32  C   UNL     1     -45.759  55.963 -60.628  1.00  0.00     0.409 C 
HETATM   33  F   UNL     1     -45.006  55.484 -61.637  1.00  0.00    -0.169 F 
HETATM   34  F   UNL     1     -45.623  55.115 -59.584  1.00  0.00    -0.169 F 
HETATM   35  F   UNL     1     -47.055  55.867 -61.027  1.00  0.00    -0.169 F 
ENDBRANCH  29  32
ENDBRANCH   1  21
TORSDOF 8
ENDMDL
MODEL 3
REMARK VINA RESULT:      -7.4      4.841      8.281
REMARK  8 active torsions:
REMARK  status: ('A' for Active; 'I' for Inactive)
REMARK    1  A    between atoms: C_8  and  C_9 
REMARK       I    between atoms: C_9  and  N_10 
REMARK    2  A    between atoms: N_10  and  N_11 
REMARK    3  A    between atoms: N_11  and  C_12 
REMARK    4  A    between atoms: C_12  and  N_13 
REMARK    5  A    between atoms: N_13  and  C_14 
REMARK    6  A    between atoms: C_15  and  O_16 
REMARK    7  A    between atoms: C_19  and  O_20 
REMARK    8  A    between atoms: C_26  and  C_27 
ROOT
HETATM    1  C   UNL     1     -43.413  56.284 -55.243  1.00  0.00     0.275 C 
HETATM    2  N   UNL     1     -44.366  55.795 -54.368  1.00  0.00    -0.263 N 
HETATM    3  O   UNL     1     -42.208  56.106 -55.077  1.00  0.00    -0.266 OA
HETATM    4  H   UNL     1     -45.290  56.223 -54.354  1.00  0.00     0.190 HD
ENDROOT
BRANCH   2   5
HETATM    5  N   UNL     1     -43.936  55.176 -53.181  1.00  0.00    -0.273 N 
HETATM    6  H   UNL     1     -43.654  54.201 -53.303  1.00  0.00     0.189 HD
BRANCH   5   7
HETATM    7  C   UNL     1     -43.298  55.899 -52.206  1.00  0.00     0.191 C 
HETATM    8  S   UNL     1     -44.016  57.136 -51.327  1.00  0.00    -0.039 SA
BRANCH   7   9
HETATM    9  N   UNL     1     -41.989  55.611 -51.962  1.00  0.00    -0.330 N 
HETATM   10  H   UNL     1     -41.417  56.423 -51.740  1.00  0.00     0.168 HD
BRANCH   9  11
HETATM   11  C   UNL     1     -41.271  54.394 -51.943  1.00  0.00     0.068 A 
HETATM   12  C   UNL     1     -41.030  53.814 -50.678  1.00  0.00     0.097 A 
HETATM   13  C   UNL     1     -40.330  52.603 -50.581  1.00  0.00     0.075 A 
HETATM   14  C   UNL     1     -39.883  51.959 -51.736  1.00  0.00     0.070 A 
HETATM   15  C   UNL     1     -40.163  52.515 -52.985  1.00  0.00     0.039 A 
HETATM   16  C   UNL     1     -40.857  53.722 -53.092  1.00  0.00     0.035 A 
BRANCH  12  17
HETATM   17  O   UNL     1     -41.524  54.523 -49.606  1.00  0.00    -0.354 OA
HETATM   18  C   UNL     1     -40.784  54.475 -48.392  1.00  0.00     0.210 C 
ENDBRANCH  12  17
BRANCH  14  19
HETATM   19  O   UNL     1     -39.193  50.779 -51.783  1.00  0.00    -0.356 OA
HETATM   20  C   UNL     1     -39.546  49.787 -50.827  1.00  0.00     0.210 C 
ENDBRANCH  14  19
ENDBRANCH   9  11
ENDBRANCH   7   9
ENDBRANCH   5   7
ENDBRANCH   2   5
BRANCH   1  21
HETATM   21  C   UNL     1     -43.951  57.060 -56.341  1.00  0.00     0.098 A 
HETATM   22  C   UNL     1     -44.064  56.724 -57.677  1.00  0.00     0.138 A 
HETATM   23  N   UNL     1     -43.660  55.647 -58.398  1.00  0.00    -0.370 N 
HETATM   24  N   UNL     1     -44.698  57.783 -58.274  1.00  0.00    -0.240 N 
HETATM   25  C   UNL     1     -43.905  55.527 -59.831  1.00  0.00     0.081 C 
HETATM   26  H   UNL     1     -42.965  54.996 -58.031  1.00  0.00     0.161 HD
HETATM   27  C   UNL     1     -45.018  54.513 -60.070  1.00  0.00     0.032 C 
HETATM   28  C   UNL     1     -44.122  56.897 -60.484  1.00  0.00     0.061 C 
HETATM   29  C   UNL     1     -45.003  57.873 -59.687  1.00  0.00     0.221 C 
HETATM   30  N   UNL     1     -44.903  58.827 -57.453  1.00  0.00    -0.181 NA
HETATM   31  C   UNL     1     -44.465  58.377 -56.273  1.00  0.00     0.160 A 
BRANCH  29  32
HETATM   32  C   UNL     1     -46.486  57.697 -59.918  1.00  0.00     0.409 C 
HETATM   33  F   UNL     1     -47.180  58.852 -59.902  1.00  0.00    -0.169 F 
HETATM   34  F   UNL     1     -46.755  57.079 -61.090  1.00  0.00    -0.169 F 
HETATM   35  F   UNL     1     -47.015  56.909 -58.945  1.00  0.00    -0.169 F 
ENDBRANCH  29  32
ENDBRANCH   1  21
TORSDOF 8
ENDMDL
MODEL 4
REMARK VINA RESULT:      -7.3      4.446      7.665
REMARK  8 active torsions:
REMARK  status: ('A' for Active; 'I' for Inactive)
REMARK    1  A    between atoms: C_8  and  C_9 
REMARK       I    between atoms: C_9  and  N_10 
REMARK    2  A    between atoms: N_10  and  N_11 
REMARK    3  A    between atoms: N_11  and  C_12 
REMARK    4  A    between atoms: C_12  and  N_13 
REMARK    5  A    between atoms: N_13  and  C_14 
REMARK    6  A    between atoms: C_15  and  O_16 
REMARK    7  A    between atoms: C_19  and  O_20 
REMARK    8  A    between atoms: C_26  and  C_27 
ROOT
HETATM    1  C   UNL     1     -43.460  57.065 -54.539  1.00  0.00     0.275 C 
HETATM    2  N   UNL     1     -43.100  57.701 -53.365  1.00  0.00    -0.263 N 
HETATM    3  O   UNL     1     -44.139  56.040 -54.554  1.00  0.00    -0.266 OA
HETATM    4  H   UNL     1     -42.297  58.329 -53.370  1.00  0.00     0.190 HD
ENDROOT
BRANCH   2   5
HETATM    5  N   UNL     1     -43.419  57.088 -52.140  1.00  0.00    -0.273 N 
HETATM    6  H   UNL     1     -44.375  56.731 -52.095  1.00  0.00     0.189 HD
BRANCH   5   7
HETATM    7  C   UNL     1     -42.461  56.418 -51.424  1.00  0.00     0.191 C 
HETATM    8  S   UNL     1     -41.229  57.169 -50.564  1.00  0.00    -0.039 SA
BRANCH   7   9
HETATM    9  N   UNL     1     -42.499  55.057 -51.439  1.00  0.00    -0.330 N 
HETATM   10  H   UNL     1     -43.282  54.654 -50.928  1.00  0.00     0.168 HD
BRANCH   9  11
HETATM   11  C   UNL     1     -41.664  54.089 -52.042  1.00  0.00     0.068 A 
HETATM   12  C   UNL     1     -40.865  53.307 -51.179  1.00  0.00     0.097 A 
HETATM   13  C   UNL     1     -40.017  52.322 -51.706  1.00  0.00     0.075 A 
HETATM   14  C   UNL     1     -39.973  52.100 -53.083  1.00  0.00     0.070 A 
HETATM   15  C   UNL     1     -40.798  52.845 -53.926  1.00  0.00     0.039 A 
HETATM   16  C   UNL     1     -41.645  53.830 -53.412  1.00  0.00     0.035 A 
BRANCH  12  17
HETATM   17  O   UNL     1     -40.993  53.599 -49.840  1.00  0.00    -0.354 OA
HETATM   18  C   UNL     1     -39.825  54.021 -49.146  1.00  0.00     0.210 C 
ENDBRANCH  12  17
BRANCH  14  19
HETATM   19  O   UNL     1     -39.196  51.175 -53.724  1.00  0.00    -0.356 OA
HETATM   20  C   UNL     1     -39.851  50.015 -54.222  1.00  0.00     0.210 C 
ENDBRANCH  14  19
ENDBRANCH   9  11
ENDBRANCH   7   9
ENDBRANCH   5   7
ENDBRANCH   2   5
BRANCH   1  21
HETATM   21  C   UNL     1     -42.932  57.679 -55.739  1.00  0.00     0.098 A 
HETATM   22  C   UNL     1     -43.014  57.250 -57.051  1.00  0.00     0.138 A 
HETATM   23  N   UNL     1     -43.515  56.128 -57.628  1.00  0.00    -0.370 N 
HETATM   24  N   UNL     1     -42.407  58.226 -57.799  1.00  0.00    -0.240 N 
HETATM   25  C   UNL     1     -43.480  55.906 -59.069  1.00  0.00     0.081 C 
HETATM   26  H   UNL     1     -43.717  55.294 -57.076  1.00  0.00     0.161 HD
HETATM   27  C   UNL     1     -44.877  56.102 -59.646  1.00  0.00     0.032 C 
HETATM   28  C   UNL     1     -42.377  56.733 -59.742  1.00  0.00     0.061 C 
HETATM   29  C   UNL     1     -42.240  58.179 -59.237  1.00  0.00     0.221 C 
HETATM   30  N   UNL     1     -41.838  59.198 -57.067  1.00  0.00    -0.181 NA
HETATM   31  C   UNL     1     -42.176  58.874 -55.815  1.00  0.00     0.160 A 
BRANCH  29  32
HETATM   32  C   UNL     1     -43.173  59.159 -59.908  1.00  0.00     0.409 C 
HETATM   33  F   UNL     1     -42.631  60.376 -60.110  1.00  0.00    -0.169 F 
HETATM   34  F   UNL     1     -43.619  58.711 -61.103  1.00  0.00    -0.169 F 
HETATM   35  F   UNL     1     -44.278  59.346 -59.139  1.00  0.00    -0.169 F 
ENDBRANCH  29  32
ENDBRANCH   1  21
TORSDOF 8
ENDMDL
MODEL 5
REMARK VINA RESULT:      -7.2      4.576      7.648
REMARK  8 active torsions:
REMARK  status: ('A' for Active; 'I' for Inactive)
REMARK    1  A    between atoms: C_8  and  C_9 
REMARK       I    between atoms: C_9  and  N_10 
REMARK    2  A    between atoms: N_10  and  N_11 
REMARK    3  A    between atoms: N_11  and  C_12 
REMARK    4  A    between atoms: C_12  and  N_13 
REMARK    5  A    between atoms: N_13  and  C_14 
REMARK    6  A    between atoms: C_15  and  O_16 
REMARK    7  A    between atoms: C_19  and  O_20 
REMARK    8  A    between atoms: C_26  and  C_27 
ROOT
HETATM    1  C   UNL     1     -43.269  57.372 -54.522  1.00  0.00     0.275 C 
HETATM    2  N   UNL     1     -43.943  57.179 -53.330  1.00  0.00    -0.263 N 
HETATM    3  O   UNL     1     -42.042  57.365 -54.596  1.00  0.00    -0.266 OA
HETATM    4  H   UNL     1     -44.905  57.507 -53.248  1.00  0.00     0.190 HD
ENDROOT
BRANCH   2   5
HETATM    5  N   UNL     1     -43.199  57.093 -52.140  1.00  0.00    -0.273 N 
HETATM    6  H   UNL     1     -43.457  57.791 -51.440  1.00  0.00     0.189 HD
BRANCH   5   7
HETATM    7  C   UNL     1     -42.747  55.881 -51.684  1.00  0.00     0.191 C 
HETATM    8  S   UNL     1     -43.650  54.837 -50.728  1.00  0.00    -0.039 SA
BRANCH   7   9
HETATM    9  N   UNL     1     -41.474  55.521 -52.006  1.00  0.00    -0.330 N 
HETATM   10  H   UNL     1     -40.784  56.258 -51.877  1.00  0.00     0.168 HD
BRANCH   9  11
HETATM   11  C   UNL     1     -40.919  54.308 -52.475  1.00  0.00     0.068 A 
HETATM   12  C   UNL     1     -40.182  53.541 -51.546  1.00  0.00     0.097 A 
HETATM   13  C   UNL     1     -39.608  52.323 -51.938  1.00  0.00     0.075 A 
HETATM   14  C   UNL     1     -39.777  51.857 -53.243  1.00  0.00     0.070 A 
HETATM   15  C   UNL     1     -40.543  52.598 -54.143  1.00  0.00     0.039 A 
HETATM   16  C   UNL     1     -41.117  53.814 -53.764  1.00  0.00     0.035 A 
BRANCH  12  17
HETATM   17  O   UNL     1     -40.087  54.084 -50.285  1.00  0.00    -0.354 OA
HETATM   18  C   UNL     1     -40.502  53.275 -49.190  1.00  0.00     0.210 C 
ENDBRANCH  12  17
BRANCH  14  19
HETATM   19  O   UNL     1     -39.274  50.692 -53.753  1.00  0.00    -0.356 OA
HETATM   20  C   UNL     1     -40.173  49.866 -54.482  1.00  0.00     0.210 C 
ENDBRANCH  14  19
ENDBRANCH   9  11
ENDBRANCH   7   9
ENDBRANCH   5   7
ENDBRANCH   2   5
BRANCH   1  21
HETATM   21  C   UNL     1     -44.126  57.628 -55.660  1.00  0.00     0.098 A 
HETATM   22  C   UNL     1     -43.816  57.627 -57.007  1.00  0.00     0.138 A 
HETATM   23  N   UNL     1     -42.651  57.478 -57.688  1.00  0.00    -0.370 N 
HETATM   24  N   UNL     1     -44.998  57.865 -57.661  1.00  0.00    -0.240 N 
HETATM   25  C   UNL     1     -42.585  57.517 -59.145  1.00  0.00     0.081 C 
HETATM   26  H   UNL     1     -41.749  57.572 -57.221  1.00  0.00     0.161 HD
HETATM   27  C   UNL     1     -42.382  56.106 -59.682  1.00  0.00     0.032 C 
HETATM   28  C   UNL     1     -43.777  58.276 -59.744  1.00  0.00     0.061 C 
HETATM   29  C   UNL     1     -45.139  57.975 -59.098  1.00  0.00     0.221 C 
HETATM   30  N   UNL     1     -46.028  58.132 -56.841  1.00  0.00    -0.181 NA
HETATM   31  C   UNL     1     -45.500  57.968 -55.624  1.00  0.00     0.160 A 
BRANCH  29  32
HETATM   32  C   UNL     1     -45.831  56.753 -59.655  1.00  0.00     0.409 C 
HETATM   33  F   UNL     1     -45.777  56.662 -60.998  1.00  0.00    -0.169 F 
HETATM   34  F   UNL     1     -45.331  55.603 -59.150  1.00  0.00    -0.169 F 
HETATM   35  F   UNL     1     -47.148  56.773 -59.317  1.00  0.00    -0.169 F 
ENDBRANCH  29  32
ENDBRANCH   1  21
TORSDOF 8
ENDMDL
MODEL 6
REMARK VINA RESULT:      -7.2      1.048      1.699
REMARK  8 active torsions:
REMARK  status: ('A' for Active; 'I' for Inactive)
REMARK    1  A    between atoms: C_8  and  C_9 
REMARK       I    between atoms: C_9  and  N_10 
REMARK    2  A    between atoms: N_10  and  N_11 
REMARK    3  A    between atoms: N_11  and  C_12 
REMARK    4  A    between atoms: C_12  and  N_13 
REMARK    5  A    between atoms: N_13  and  C_14 
REMARK    6  A    between atoms: C_15  and  O_16 
REMARK    7  A    between atoms: C_19  and  O_20 
REMARK    8  A    between atoms: C_26  and  C_27 
ROOT
HETATM    1  C   UNL     1     -40.803  58.729 -52.948  1.00  0.00     0.275 C 
HETATM    2  N   UNL     1     -41.917  59.198 -53.620  1.00  0.00    -0.263 N 
HETATM    3  O   UNL     1     -39.671  59.157 -53.164  1.00  0.00    -0.266 OA
HETATM    4  H   UNL     1     -42.754  58.617 -53.655  1.00  0.00     0.190 HD
ENDROOT
BRANCH   2   5
HETATM    5  N   UNL     1     -41.735  60.111 -54.674  1.00  0.00    -0.273 N 
HETATM    6  H   UNL     1     -40.766  60.413 -54.795  1.00  0.00     0.189 HD
BRANCH   5   7
HETATM    7  C   UNL     1     -42.520  60.048 -55.796  1.00  0.00     0.191 C 
HETATM    8  S   UNL     1     -44.001  60.823 -55.956  1.00  0.00    -0.039 SA
BRANCH   7   9
HETATM    9  N   UNL     1     -42.079  59.284 -56.833  1.00  0.00    -0.330 N 
HETATM   10  H   UNL     1     -41.230  59.630 -57.277  1.00  0.00     0.168 HD
BRANCH   9  11
HETATM   11  C   UNL     1     -42.565  58.087 -57.407  1.00  0.00     0.068 A 
HETATM   12  C   UNL     1     -42.995  58.152 -58.751  1.00  0.00     0.097 A 
HETATM   13  C   UNL     1     -43.484  57.002 -59.389  1.00  0.00     0.075 A 
HETATM   14  C   UNL     1     -43.531  55.787 -58.703  1.00  0.00     0.070 A 
HETATM   15  C   UNL     1     -43.063  55.721 -57.390  1.00  0.00     0.039 A 
HETATM   16  C   UNL     1     -42.577  56.860 -56.745  1.00  0.00     0.035 A 
BRANCH  12  17
HETATM   17  O   UNL     1     -42.895  59.393 -59.338  1.00  0.00    -0.354 OA
HETATM   18  C   UNL     1     -42.111  59.497 -60.520  1.00  0.00     0.210 C 
ENDBRANCH  12  17
BRANCH  14  19
HETATM   19  O   UNL     1     -43.981  54.597 -59.205  1.00  0.00    -0.356 OA
HETATM   20  C   UNL     1     -44.837  54.657 -60.339  1.00  0.00     0.210 C 
ENDBRANCH  14  19
ENDBRANCH   9  11
ENDBRANCH   7   9
ENDBRANCH   5   7
ENDBRANCH   2   5
BRANCH   1  21
HETATM   21  C   UNL     1     -41.076  57.663 -52.007  1.00  0.00     0.098 A 
HETATM   22  C   UNL     1     -41.520  56.376 -52.246  1.00  0.00     0.138 A 
HETATM   23  N   UNL     1     -41.911  55.726 -53.372  1.00  0.00    -0.370 N 
HETATM   24  N   UNL     1     -41.553  55.761 -51.021  1.00  0.00    -0.240 N 
HETATM   25  C   UNL     1     -42.347  54.334 -53.362  1.00  0.00     0.081 C 
HETATM   26  H   UNL     1     -42.147  56.238 -54.223  1.00  0.00     0.161 HD
HETATM   27  C   UNL     1     -41.253  53.457 -53.958  1.00  0.00     0.032 C 
HETATM   28  C   UNL     1     -42.840  53.907 -51.974  1.00  0.00     0.061 C 
HETATM   29  C   UNL     1     -41.987  54.398 -50.794  1.00  0.00     0.221 C 
HETATM   30  N   UNL     1     -41.274  56.580 -49.993  1.00  0.00    -0.181 NA
HETATM   31  C   UNL     1     -40.966  57.732 -50.597  1.00  0.00     0.160 A 
BRANCH  29  32
HETATM   32  C   UNL     1     -40.802  53.514 -50.478  1.00  0.00     0.409 C 
HETATM   33  F   UNL     1     -39.645  53.942 -51.018  1.00  0.00    -0.169 F 
HETATM   34  F   UNL     1     -40.602  53.375 -49.148  1.00  0.00    -0.169 F 
HETATM   35  F   UNL     1     -41.019  52.261 -50.960  1.00  0.00    -0.169 F 
ENDBRANCH  29  32
ENDBRANCH   1  21
TORSDOF 8
ENDMDL
MODEL 7
REMARK VINA RESULT:      -7.0      2.935      4.179
REMARK  8 active torsions:
REMARK  status: ('A' for Active; 'I' for Inactive)
REMARK    1  A    between atoms: C_8  and  C_9 
REMARK       I    between atoms: C_9  and  N_10 
REMARK    2  A    between atoms: N_10  and  N_11 
REMARK    3  A    between atoms: N_11  and  C_12 
REMARK    4  A    between atoms: C_12  and  N_13 
REMARK    5  A    between atoms: N_13  and  C_14 
REMARK    6  A    between atoms: C_15  and  O_16 
REMARK    7  A    between atoms: C_19  and  O_20 
REMARK    8  A    between atoms: C_26  and  C_27 
ROOT
HETATM    1  C   UNL     1     -44.828  57.507 -55.234  1.00  0.00     0.275 C 
HETATM    2  N   UNL     1     -44.051  56.833 -56.158  1.00  0.00    -0.263 N 
HETATM    3  O   UNL     1     -45.872  58.079 -55.539  1.00  0.00    -0.266 OA
HETATM    4  H   UNL     1     -43.069  56.661 -55.946  1.00  0.00     0.190 HD
ENDROOT
BRANCH   2   5
HETATM    5  N   UNL     1     -44.403  56.908 -57.517  1.00  0.00    -0.273 N 
HETATM    6  H   UNL     1     -44.995  57.708 -57.747  1.00  0.00     0.189 HD
BRANCH   5   7
HETATM    7  C   UNL     1     -43.542  56.462 -58.487  1.00  0.00     0.191 C 
HETATM    8  S   UNL     1     -43.796  55.084 -59.413  1.00  0.00    -0.039 SA
BRANCH   7   9
HETATM    9  N   UNL     1     -42.396  57.170 -58.688  1.00  0.00    -0.330 N 
HETATM   10  H   UNL     1     -41.544  56.657 -58.469  1.00  0.00     0.168 HD
BRANCH   9  11
HETATM   11  C   UNL     1     -42.158  58.482 -59.157  1.00  0.00     0.068 A 
HETATM   12  C   UNL     1     -41.995  59.490 -58.182  1.00  0.00     0.097 A 
HETATM   13  C   UNL     1     -41.749  60.814 -58.574  1.00  0.00     0.075 A 
HETATM   14  C   UNL     1     -41.648  61.136 -59.928  1.00  0.00     0.070 A 
HETATM   15  C   UNL     1     -41.766  60.128 -60.885  1.00  0.00     0.039 A 
HETATM   16  C   UNL     1     -42.013  58.806 -60.506  1.00  0.00     0.035 A 
BRANCH  12  17
HETATM   17  O   UNL     1     -42.100  59.064 -56.877  1.00  0.00    -0.354 OA
HETATM   18  C   UNL     1     -42.091  60.059 -55.860  1.00  0.00     0.210 C 
ENDBRANCH  12  17
BRANCH  14  19
HETATM   19  O   UNL     1     -41.411  62.381 -60.443  1.00  0.00    -0.356 OA
HETATM   20  C   UNL     1     -40.068  62.848 -60.408  1.00  0.00     0.210 C 
ENDBRANCH  14  19
ENDBRANCH   9  11
ENDBRANCH   7   9
ENDBRANCH   5   7
ENDBRANCH   2   5
BRANCH   1  21
HETATM   21  C   UNL     1     -44.286  57.519 -53.891  1.00  0.00     0.098 A 
HETATM   22  C   UNL     1     -43.804  56.469 -53.132  1.00  0.00     0.138 A 
HETATM   23  N   UNL     1     -43.750  55.129 -53.336  1.00  0.00    -0.370 N 
HETATM   24  N   UNL     1     -43.353  57.031 -51.965  1.00  0.00    -0.240 N 
HETATM   25  C   UNL     1     -43.178  54.210 -52.358  1.00  0.00     0.081 C 
HETATM   26  H   UNL     1     -44.313  54.680 -54.059  1.00  0.00     0.161 HD
HETATM   27  C   UNL     1     -41.816  53.733 -52.847  1.00  0.00     0.032 C 
HETATM   28  C   UNL     1     -43.188  54.809 -50.946  1.00  0.00     0.061 C 
HETATM   29  C   UNL     1     -42.784  56.290 -50.858  1.00  0.00     0.221 C 
HETATM   30  N   UNL     1     -43.608  58.346 -51.860  1.00  0.00    -0.181 NA
HETATM   31  C   UNL     1     -44.158  58.645 -53.041  1.00  0.00     0.160 A 
BRANCH  29  32
HETATM   32  C   UNL     1     -41.293  56.520 -50.781  1.00  0.00     0.409 C 
HETATM   33  F   UNL     1     -40.713  56.735 -51.977  1.00  0.00    -0.169 F 
HETATM   34  F   UNL     1     -40.973  57.563 -49.982  1.00  0.00    -0.169 F 
HETATM   35  F   UNL     1     -40.684  55.431 -50.241  1.00  0.00    -0.169 F 
ENDBRANCH  29  32
ENDBRANCH   1  21
TORSDOF 8
ENDMDL
MODEL 8
REMARK VINA RESULT:      -6.8      4.394      7.033
REMARK  8 active torsions:
REMARK  status: ('A' for Active; 'I' for Inactive)
REMARK    1  A    between atoms: C_8  and  C_9 
REMARK       I    between atoms: C_9  and  N_10 
REMARK    2  A    between atoms: N_10  and  N_11 
REMARK    3  A    between atoms: N_11  and  C_12 
REMARK    4  A    between atoms: C_12  and  N_13 
REMARK    5  A    between atoms: N_13  and  C_14 
REMARK    6  A    between atoms: C_15  and  O_16 
REMARK    7  A    between atoms: C_19  and  O_20 
REMARK    8  A    between atoms: C_26  and  C_27 
ROOT
HETATM    1  C   UNL     1     -41.571  59.057 -53.136  1.00  0.00     0.275 C 
HETATM    2  N   UNL     1     -41.827  57.698 -53.091  1.00  0.00    -0.263 N 
HETATM    3  O   UNL     1     -40.933  59.580 -54.047  1.00  0.00    -0.266 OA
HETATM    4  H   UNL     1     -42.061  57.269 -52.197  1.00  0.00     0.190 HD
ENDROOT
BRANCH   2   5
HETATM    5  N   UNL     1     -41.231  56.868 -54.056  1.00  0.00    -0.273 N 
HETATM    6  H   UNL     1     -40.266  56.611 -53.840  1.00  0.00     0.189 HD
BRANCH   5   7
HETATM    7  C   UNL     1     -41.983  55.961 -54.758  1.00  0.00     0.191 C 
HETATM    8  S   UNL     1     -42.613  56.241 -56.289  1.00  0.00    -0.039 SA
BRANCH   7   9
HETATM    9  N   UNL     1     -42.257  54.770 -54.157  1.00  0.00    -0.330 N 
HETATM   10  H   UNL     1     -43.246  54.527 -54.142  1.00  0.00     0.168 HD
BRANCH   9  11
HETATM   11  C   UNL     1     -41.429  53.793 -53.558  1.00  0.00     0.068 A 
HETATM   12  C   UNL     1     -41.235  53.887 -52.163  1.00  0.00     0.097 A 
HETATM   13  C   UNL     1     -40.432  52.949 -51.500  1.00  0.00     0.075 A 
HETATM   14  C   UNL     1     -39.835  51.908 -52.214  1.00  0.00     0.070 A 
HETATM   15  C   UNL     1     -40.067  51.795 -53.585  1.00  0.00     0.039 A 
HETATM   16  C   UNL     1     -40.864  52.726 -54.256  1.00  0.00     0.035 A 
BRANCH  12  17
HETATM   17  O   UNL     1     -41.877  54.941 -51.553  1.00  0.00    -0.354 OA
HETATM   18  C   UNL     1     -41.276  55.489 -50.386  1.00  0.00     0.210 C 
ENDBRANCH  12  17
BRANCH  14  19
HETATM   19  O   UNL     1     -39.034  50.930 -51.693  1.00  0.00    -0.356 OA
HETATM   20  C   UNL     1     -39.656  49.967 -50.852  1.00  0.00     0.210 C 
ENDBRANCH  14  19
ENDBRANCH   9  11
ENDBRANCH   7   9
ENDBRANCH   5   7
ENDBRANCH   2   5
BRANCH   1  21
HETATM   21  C   UNL     1     -42.079  59.799 -52.001  1.00  0.00     0.098 A 
HETATM   22  C   UNL     1     -43.229  60.559 -51.896  1.00  0.00     0.138 A 
HETATM   23  N   UNL     1     -44.184  60.921 -52.790  1.00  0.00    -0.370 N 
HETATM   24  N   UNL     1     -43.271  60.992 -50.595  1.00  0.00    -0.240 N 
HETATM   25  C   UNL     1     -45.328  61.749 -52.424  1.00  0.00     0.081 C 
HETATM   26  H   UNL     1     -44.027  60.838 -53.795  1.00  0.00     0.161 HD
HETATM   27  C   UNL     1     -46.578  60.882 -52.349  1.00  0.00     0.032 C 
HETATM   28  C   UNL     1     -45.040  62.586 -51.170  1.00  0.00     0.061 C 
HETATM   29  C   UNL     1     -44.301  61.847 -50.043  1.00  0.00     0.221 C 
HETATM   30  N   UNL     1     -42.182  60.666 -49.879  1.00  0.00    -0.181 NA
HETATM   31  C   UNL     1     -41.468  59.924 -50.730  1.00  0.00     0.160 A 
BRANCH  29  32
HETATM   32  C   UNL     1     -45.205  61.058 -49.124  1.00  0.00     0.409 C 
HETATM   33  F   UNL     1     -45.418  59.791 -49.528  1.00  0.00    -0.169 F 
HETATM   34  F   UNL     1     -44.734  61.006 -47.858  1.00  0.00    -0.169 F 
HETATM   35  F   UNL     1     -46.424  61.655 -49.050  1.00  0.00    -0.169 F 
ENDBRANCH  29  32
ENDBRANCH   1  21
TORSDOF 8
ENDMDL
MODEL 9
REMARK VINA RESULT:      -6.8      3.127      4.176
REMARK  8 active torsions:
REMARK  status: ('A' for Active; 'I' for Inactive)
REMARK    1  A    between atoms: C_8  and  C_9 
REMARK       I    between atoms: C_9  and  N_10 
REMARK    2  A    between atoms: N_10  and  N_11 
REMARK    3  A    between atoms: N_11  and  C_12 
REMARK    4  A    between atoms: C_12  and  N_13 
REMARK    5  A    between atoms: N_13  and  C_14 
REMARK    6  A    between atoms: C_15  and  O_16 
REMARK    7  A    between atoms: C_19  and  O_20 
REMARK    8  A    between atoms: C_26  and  C_27 
ROOT
HETATM    1  C   UNL     1     -43.233  54.857 -53.425  1.00  0.00     0.275 C 
HETATM    2  N   UNL     1     -44.002  55.290 -54.490  1.00  0.00    -0.263 N 
HETATM    3  O   UNL     1     -43.475  55.176 -52.262  1.00  0.00    -0.266 OA
HETATM    4  H   UNL     1     -43.599  55.280 -55.426  1.00  0.00     0.190 HD
ENDROOT
BRANCH   2   5
HETATM    5  N   UNL     1     -45.023  56.226 -54.249  1.00  0.00    -0.273 N 
HETATM    6  H   UNL     1     -45.783  55.867 -53.668  1.00  0.00     0.189 HD
BRANCH   5   7
HETATM    7  C   UNL     1     -44.737  57.564 -54.156  1.00  0.00     0.191 C 
HETATM    8  S   UNL     1     -44.595  58.400 -52.706  1.00  0.00    -0.039 SA
BRANCH   7   9
HETATM    9  N   UNL     1     -44.588  58.260 -55.317  1.00  0.00    -0.330 N 
HETATM   10  H   UNL     1     -43.901  59.010 -55.271  1.00  0.00     0.168 HD
BRANCH   9  11
HETATM   11  C   UNL     1     -45.196  58.132 -56.587  1.00  0.00     0.068 A 
HETATM   12  C   UNL     1     -44.494  57.387 -57.560  1.00  0.00     0.097 A 
HETATM   13  C   UNL     1     -45.039  57.212 -58.840  1.00  0.00     0.075 A 
HETATM   14  C   UNL     1     -46.285  57.760 -59.152  1.00  0.00     0.070 A 
HETATM   15  C   UNL     1     -46.993  58.457 -58.172  1.00  0.00     0.039 A 
HETATM   16  C   UNL     1     -46.458  58.639 -56.895  1.00  0.00     0.035 A 
BRANCH  12  17
HETATM   17  O   UNL     1     -43.282  56.880 -57.146  1.00  0.00    -0.354 OA
HETATM   18  C   UNL     1     -42.782  55.738 -57.831  1.00  0.00     0.210 C 
ENDBRANCH  12  17
BRANCH  14  19
HETATM   19  O   UNL     1     -46.927  57.664 -60.355  1.00  0.00    -0.356 OA
HETATM   20  C   UNL     1     -47.393  56.375 -60.737  1.00  0.00     0.210 C 
ENDBRANCH  14  19
ENDBRANCH   9  11
ENDBRANCH   7   9
ENDBRANCH   5   7
ENDBRANCH   2   5
BRANCH   1  21
HETATM   21  C   UNL     1     -42.099  54.039 -53.798  1.00  0.00     0.098 A 
HETATM   22  C   UNL     1     -41.237  53.317 -52.993  1.00  0.00     0.138 A 
HETATM   23  N   UNL     1     -41.111  53.197 -51.647  1.00  0.00    -0.370 N 
HETATM   24  N   UNL     1     -40.383  52.671 -53.849  1.00  0.00    -0.240 N 
HETATM   25  C   UNL     1     -40.097  52.351 -51.028  1.00  0.00     0.081 C 
HETATM   26  H   UNL     1     -41.550  53.866 -51.013  1.00  0.00     0.161 HD
HETATM   27  C   UNL     1     -40.755  51.094 -50.474  1.00  0.00     0.032 C 
HETATM   28  C   UNL     1     -38.914  52.104 -51.973  1.00  0.00     0.061 C 
HETATM   29  C   UNL     1     -39.291  51.815 -53.435  1.00  0.00     0.221 C 
HETATM   30  N   UNL     1     -40.550  53.006 -55.140  1.00  0.00    -0.181 NA
HETATM   31  C   UNL     1     -41.607  53.823 -55.108  1.00  0.00     0.160 A 
BRANCH  29  32
HETATM   32  C   UNL     1     -39.621  50.367 -53.714  1.00  0.00     0.409 C 
HETATM   33  F   UNL     1     -38.946  49.847 -54.757  1.00  0.00    -0.169 F 
HETATM   34  F   UNL     1     -39.392  49.571 -52.646  1.00  0.00    -0.169 F 
HETATM   35  F   UNL     1     -40.944  50.242 -54.002  1.00  0.00    -0.169 F 
ENDBRANCH  29  32
ENDBRANCH   1  21
TORSDOF 8
ENDMDL
MODEL 10
REMARK VINA RESULT:      -6.7      2.440      2.650
REMARK  8 active torsions:
REMARK  status: ('A' for Active; 'I' for Inactive)
REMARK    1  A    between atoms: C_8  and  C_9 
REMARK       I    between atoms: C_9  and  N_10 
REMARK    2  A    between atoms: N_10  and  N_11 
REMARK    3  A    between atoms: N_11  and  C_12 
REMARK    4  A    between atoms: C_12  and  N_13 
REMARK    5  A    between atoms: N_13  and  C_14 
REMARK    6  A    between atoms: C_15  and  O_16 
REMARK    7  A    between atoms: C_19  and  O_20 
REMARK    8  A    between atoms: C_26  and  C_27 
ROOT
HETATM    1  C   UNL     1     -44.280  58.883 -53.021  1.00  0.00     0.275 C 
HETATM    2  N   UNL     1     -45.282  58.878 -53.974  1.00  0.00    -0.263 N 
HETATM    3  O   UNL     1     -43.664  59.902 -52.714  1.00  0.00    -0.266 OA
HETATM    4  H   UNL     1     -45.533  57.998 -54.422  1.00  0.00     0.190 HD
ENDROOT
BRANCH   2   5
HETATM    5  N   UNL     1     -45.522  60.054 -54.707  1.00  0.00    -0.273 N 
HETATM    6  H   UNL     1     -44.873  60.813 -54.493  1.00  0.00     0.189 HD
BRANCH   5   7
HETATM    7  C   UNL     1     -46.021  59.993 -55.983  1.00  0.00     0.191 C 
HETATM    8  S   UNL     1     -46.346  61.338 -56.934  1.00  0.00    -0.039 SA
BRANCH   7   9
HETATM    9  N   UNL     1     -46.296  58.761 -56.494  1.00  0.00    -0.330 N 
HETATM   10  H   UNL     1     -46.975  58.226 -55.955  1.00  0.00     0.168 HD
BRANCH   9  11
HETATM   11  C   UNL     1     -45.830  58.082 -57.643  1.00  0.00     0.068 A 
HETATM   12  C   UNL     1     -44.474  57.689 -57.647  1.00  0.00     0.097 A 
HETATM   13  C   UNL     1     -43.943  57.005 -58.749  1.00  0.00     0.075 A 
HETATM   14  C   UNL     1     -44.758  56.695 -59.840  1.00  0.00     0.070 A 
HETATM   15  C   UNL     1     -46.107  57.047 -59.811  1.00  0.00     0.039 A 
HETATM   16  C   UNL     1     -46.646  57.731 -58.718  1.00  0.00     0.035 A 
BRANCH  12  17
HETATM   17  O   UNL     1     -43.763  58.031 -56.518  1.00  0.00    -0.354 OA
HETATM   18  C   UNL     1     -42.478  58.612 -56.705  1.00  0.00     0.210 C 
ENDBRANCH  12  17
BRANCH  14  19
HETATM   19  O   UNL     1     -44.369  56.035 -60.973  1.00  0.00    -0.356 OA
HETATM   20  C   UNL     1     -44.927  54.744 -61.190  1.00  0.00     0.210 C 
ENDBRANCH  14  19
ENDBRANCH   9  11
ENDBRANCH   7   9
ENDBRANCH   5   7
ENDBRANCH   2   5
BRANCH   1  21
HETATM   21  C   UNL     1     -43.990  57.584 -52.451  1.00  0.00     0.098 A 
HETATM   22  C   UNL     1     -43.300  56.521 -53.002  1.00  0.00     0.138 A 
HETATM   23  N   UNL     1     -42.759  56.305 -54.228  1.00  0.00    -0.370 N 
HETATM   24  N   UNL     1     -43.256  55.560 -52.025  1.00  0.00    -0.240 N 
HETATM   25  C   UNL     1     -42.065  55.069 -54.571  1.00  0.00     0.081 C 
HETATM   26  H   UNL     1     -43.015  56.883 -55.029  1.00  0.00     0.161 HD
HETATM   27  C   UNL     1     -40.563  55.326 -54.616  1.00  0.00     0.032 C 
HETATM   28  C   UNL     1     -42.498  53.908 -53.667  1.00  0.00     0.061 C 
HETATM   29  C   UNL     1     -42.646  54.255 -52.177  1.00  0.00     0.221 C 
HETATM   30  N   UNL     1     -43.960  55.872 -50.923  1.00  0.00    -0.181 NA
HETATM   31  C   UNL     1     -44.389  57.112 -51.177  1.00  0.00     0.160 A 
BRANCH  29  32
HETATM   32  C   UNL     1     -41.356  54.183 -51.394  1.00  0.00     0.409 C 
HETATM   33  F   UNL     1     -40.715  55.363 -51.291  1.00  0.00    -0.169 F 
HETATM   34  F   UNL     1     -41.538  53.709 -50.141  1.00  0.00    -0.169 F 
HETATM   35  F   UNL     1     -40.495  53.323 -52.001  1.00  0.00    -0.169 F 
ENDBRANCH  29  32
ENDBRANCH   1  21
TORSDOF 8
ENDMDL
