MODEL 1
REMARK VINA RESULT:      -7.8      0.000      0.000
REMARK  10 active torsions:
REMARK  status: ('A' for Active; 'I' for Inactive)
REMARK    1  A    between atoms: C_2  and  N_3 
REMARK    2  A    between atoms: N_3  and  C_4 
REMARK    3  A    between atoms: N_3  and  C_37 
REMARK    4  A    between atoms: C_7  and  C_8 
REMARK    5  A    between atoms: N_9  and  C_11 
REMARK    6  A    between atoms: C_11  and  C_12 
REMARK       I    between atoms: C_12  and  N_13 
REMARK    7  A    between atoms: N_13  and  C_14 
REMARK    8  A    between atoms: C_20  and  C_21 
REMARK    9  A    between atoms: C_21  and  O_22 
REMARK   10  A    between atoms: C_28  and  O_29 
ROOT
HETATM    1  C   UNL     1     -43.087  56.834 -56.496  1.00  0.00     0.228 C 
HETATM    2  N   UNL     1     -43.862  57.858 -55.677  1.00  0.00    -0.054 N 
HETATM    3  H   UNL     1     -43.168  58.260 -55.023  1.00  0.00     0.281 HD
HETATM    4  C   UNL     1     -44.302  59.047 -56.495  1.00  0.00     0.239 C 
HETATM    5  C   UNL     1     -45.166  58.601 -57.664  1.00  0.00     0.066 C 
HETATM    6  C   UNL     1     -44.409  57.607 -58.544  1.00  0.00     0.065 C 
HETATM    7  C   UNL     1     -43.936  56.383 -57.719  1.00  0.00     0.055 C 
HETATM    8  C   UNL     1     -45.277  57.157 -59.732  1.00  0.00     0.038 C 
HETATM    9  C   UNL     1     -44.541  56.168 -60.634  1.00  0.00     0.003 C 
HETATM   10  C   UNL     1     -43.998  54.984 -59.845  1.00  0.00     0.001 C 
HETATM   11  C   UNL     1     -43.152  55.426 -58.651  1.00  0.00     0.010 C 
ENDROOT
BRANCH   2  12
HETATM   12  C   UNL     1     -44.934  57.347 -54.701  1.00  0.00     0.338 C 
BRANCH  12  13
HETATM   13  C   UNL     1     -44.617  57.868 -53.292  1.00  0.00     0.248 C 
HETATM   14  N   UNL     1     -45.250  59.041 -52.956  1.00  0.00    -0.319 N 
HETATM   15  H   UNL     1     -46.151  59.269 -53.382  1.00  0.00     0.169 HD
HETATM   16  O   UNL     1     -43.803  57.231 -52.620  1.00  0.00    -0.271 OA
BRANCH  14  17
HETATM   17  C   UNL     1     -44.876  59.894 -51.922  1.00  0.00     0.094 A 
HETATM   18  S   UNL     1     -45.625  59.781 -50.407  1.00  0.00    -0.076 SA
HETATM   19  C   UNL     1     -44.619  60.972 -49.726  1.00  0.00    -0.012 A 
HETATM   20  C   UNL     1     -44.797  61.345 -48.288  1.00  0.00     0.057 C 
HETATM   21  C   UNL     1     -43.707  61.476 -50.644  1.00  0.00    -0.030 A 
HETATM   22  C   UNL     1     -42.704  62.544 -50.318  1.00  0.00     0.050 C 
HETATM   23  C   UNL     1     -43.845  60.825 -51.942  1.00  0.00     0.080 A 
BRANCH  23  24
HETATM   24  C   UNL     1     -43.062  61.054 -53.163  1.00  0.00     0.296 C 
HETATM   25  O   UNL     1     -43.555  61.578 -54.161  1.00  0.00    -0.259 OA
BRANCH  24  26
HETATM   26  O   UNL     1     -41.769  60.643 -53.073  1.00  0.00    -0.322 OA
HETATM   27  C   UNL     1     -41.432  59.529 -53.901  1.00  0.00     0.213 C 
ENDBRANCH  24  26
ENDBRANCH  23  24
ENDBRANCH  14  17
ENDBRANCH  12  13
ENDBRANCH   2  12
BRANCH   1  28
HETATM   28  C   UNL     1     -42.500  55.744 -55.612  1.00  0.00    -0.027 A 
HETATM   29  C   UNL     1     -43.141  54.520 -55.368  1.00  0.00     0.011 A 
HETATM   30  C   UNL     1     -42.514  53.516 -54.616  1.00  0.00     0.030 A 
HETATM   31  C   UNL     1     -41.254  53.712 -54.047  1.00  0.00     0.030 A 
HETATM   32  C   UNL     1     -40.654  54.964 -54.225  1.00  0.00     0.030 A 
HETATM   33  C   UNL     1     -41.256  55.962 -55.000  1.00  0.00     0.011 A 
BRANCH  31  34
HETATM   34  N   UNL     1     -40.563  52.720 -53.356  1.00  0.00    -0.382 N 
BRANCH  34  35
HETATM   35  C   UNL     1     -40.095  52.981 -51.986  1.00  0.00     0.118 C 
HETATM   36  C   UNL     1     -41.261  53.311 -51.062  1.00  0.00     0.026 C 
ENDBRANCH  34  35
BRANCH  34  37
HETATM   37  C   UNL     1     -39.733  51.829 -54.180  1.00  0.00     0.118 C 
HETATM   38  C   UNL     1     -40.279  50.408 -54.222  1.00  0.00     0.026 C 
ENDBRANCH  34  37
ENDBRANCH  31  34
ENDBRANCH   1  28
BRANCH   6  39
HETATM   39  O   UNL     1     -43.252  58.294 -59.035  1.00  0.00    -0.389 OA
HETATM   40  H   UNL     1     -43.451  59.247 -59.122  1.00  0.00     0.210 HD
ENDBRANCH   6  39
TORSDOF 10
ENDMDL
MODEL 2
REMARK VINA RESULT:      -7.7      2.771      6.638
REMARK  10 active torsions:
REMARK  status: ('A' for Active; 'I' for Inactive)
REMARK    1  A    between atoms: C_2  and  N_3 
REMARK    2  A    between atoms: N_3  and  C_4 
REMARK    3  A    between atoms: N_3  and  C_37 
REMARK    4  A    between atoms: C_7  and  C_8 
REMARK    5  A    between atoms: N_9  and  C_11 
REMARK    6  A    between atoms: C_11  and  C_12 
REMARK       I    between atoms: C_12  and  N_13 
REMARK    7  A    between atoms: N_13  and  C_14 
REMARK    8  A    between atoms: C_20  and  C_21 
REMARK    9  A    between atoms: C_21  and  O_22 
REMARK   10  A    between atoms: C_28  and  O_29 
ROOT
HETATM    1  C   UNL     1     -43.302  57.453 -56.438  1.00  0.00     0.228 C 
HETATM    2  N   UNL     1     -43.097  55.943 -56.396  1.00  0.00    -0.054 N 
HETATM    3  H   UNL     1     -43.756  55.603 -55.674  1.00  0.00     0.281 HD
HETATM    4  C   UNL     1     -43.570  55.256 -57.653  1.00  0.00     0.239 C 
HETATM    5  C   UNL     1     -42.848  55.814 -58.870  1.00  0.00     0.066 C 
HETATM    6  C   UNL     1     -43.067  57.322 -58.980  1.00  0.00     0.065 C 
HETATM    7  C   UNL     1     -42.601  58.047 -57.692  1.00  0.00     0.055 C 
HETATM    8  C   UNL     1     -42.344  57.891 -60.214  1.00  0.00     0.038 C 
HETATM    9  C   UNL     1     -42.553  59.398 -60.354  1.00  0.00     0.003 C 
HETATM   10  C   UNL     1     -42.172  60.138 -59.079  1.00  0.00     0.001 C 
HETATM   11  C   UNL     1     -42.872  59.564 -57.848  1.00  0.00     0.010 C 
ENDROOT
BRANCH   2  12
HETATM   12  C   UNL     1     -41.760  55.406 -55.862  1.00  0.00     0.338 C 
BRANCH  12  13
HETATM   13  C   UNL     1     -41.953  54.939 -54.411  1.00  0.00     0.248 C 
HETATM   14  N   UNL     1     -40.797  54.876 -53.669  1.00  0.00    -0.319 N 
HETATM   15  H   UNL     1     -40.017  55.498 -53.894  1.00  0.00     0.169 HD
HETATM   16  O   UNL     1     -43.090  54.619 -54.063  1.00  0.00    -0.271 OA
BRANCH  14  17
HETATM   17  C   UNL     1     -40.635  54.165 -52.483  1.00  0.00     0.094 A 
HETATM   18  S   UNL     1     -40.783  54.949 -50.989  1.00  0.00    -0.076 SA
HETATM   19  C   UNL     1     -40.584  53.503 -50.115  1.00  0.00    -0.012 A 
HETATM   20  C   UNL     1     -40.630  53.541 -48.620  1.00  0.00     0.057 C 
HETATM   21  C   UNL     1     -40.394  52.408 -50.949  1.00  0.00    -0.030 A 
HETATM   22  C   UNL     1     -40.183  51.009 -50.447  1.00  0.00     0.050 C 
HETATM   23  C   UNL     1     -40.443  52.796 -52.354  1.00  0.00     0.080 A 
BRANCH  23  24
HETATM   24  C   UNL     1     -40.310  51.939 -53.539  1.00  0.00     0.296 C 
HETATM   25  O   UNL     1     -41.199  51.862 -54.387  1.00  0.00    -0.259 OA
BRANCH  24  26
HETATM   26  O   UNL     1     -39.131  51.267 -53.602  1.00  0.00    -0.322 OA
HETATM   27  C   UNL     1     -39.235  49.908 -54.031  1.00  0.00     0.213 C 
ENDBRANCH  24  26
ENDBRANCH  23  24
ENDBRANCH  14  17
ENDBRANCH  12  13
ENDBRANCH   2  12
BRANCH   1  28
HETATM   28  C   UNL     1     -42.991  58.093 -55.093  1.00  0.00    -0.027 A 
HETATM   29  C   UNL     1     -43.857  58.032 -53.991  1.00  0.00     0.011 A 
HETATM   30  C   UNL     1     -43.481  58.565 -52.750  1.00  0.00     0.030 A 
HETATM   31  C   UNL     1     -42.256  59.212 -52.576  1.00  0.00     0.030 A 
HETATM   32  C   UNL     1     -41.430  59.341 -53.699  1.00  0.00     0.030 A 
HETATM   33  C   UNL     1     -41.781  58.787 -54.934  1.00  0.00     0.011 A 
BRANCH  31  34
HETATM   34  N   UNL     1     -41.811  59.690 -51.346  1.00  0.00    -0.382 N 
BRANCH  34  35
HETATM   35  C   UNL     1     -40.824  58.916 -50.579  1.00  0.00     0.118 C 
HETATM   36  C   UNL     1     -39.527  59.696 -50.408  1.00  0.00     0.026 C 
ENDBRANCH  34  35
BRANCH  34  37
HETATM   37  C   UNL     1     -42.792  60.464 -50.571  1.00  0.00     0.118 C 
HETATM   38  C   UNL     1     -43.056  61.835 -51.180  1.00  0.00     0.026 C 
ENDBRANCH  34  37
ENDBRANCH  31  34
ENDBRANCH   1  28
BRANCH   6  39
HETATM   39  O   UNL     1     -44.478  57.522 -59.123  1.00  0.00    -0.389 OA
HETATM   40  H   UNL     1     -44.833  56.884 -59.774  1.00  0.00     0.210 HD
ENDBRANCH   6  39
TORSDOF 10
ENDMDL
MODEL 3
REMARK VINA RESULT:      -7.6      2.267      6.375
REMARK  10 active torsions:
REMARK  status: ('A' for Active; 'I' for Inactive)
REMARK    1  A    between atoms: C_2  and  N_3 
REMARK    2  A    between atoms: N_3  and  C_4 
REMARK    3  A    between atoms: N_3  and  C_37 
REMARK    4  A    between atoms: C_7  and  C_8 
REMARK    5  A    between atoms: N_9  and  C_11 
REMARK    6  A    between atoms: C_11  and  C_12 
REMARK       I    between atoms: C_12  and  N_13 
REMARK    7  A    between atoms: N_13  and  C_14 
REMARK    8  A    between atoms: C_20  and  C_21 
REMARK    9  A    between atoms: C_21  and  O_22 
REMARK   10  A    between atoms: C_28  and  O_29 
ROOT
HETATM    1  C   UNL     1     -42.216  55.461 -52.681  1.00  0.00     0.228 C 
HETATM    2  N   UNL     1     -41.999  56.584 -51.675  1.00  0.00    -0.054 N 
HETATM    3  H   UNL     1     -42.911  57.069 -51.611  1.00  0.00     0.281 HD
HETATM    4  C   UNL     1     -41.774  56.076 -50.272  1.00  0.00     0.239 C 
HETATM    5  C   UNL     1     -40.576  55.141 -50.229  1.00  0.00     0.066 C 
HETATM    6  C   UNL     1     -40.772  53.969 -51.188  1.00  0.00     0.065 C 
HETATM    7  C   UNL     1     -41.018  54.470 -52.634  1.00  0.00     0.055 C 
HETATM    8  C   UNL     1     -39.565  53.016 -51.144  1.00  0.00     0.038 C 
HETATM    9  C   UNL     1     -39.738  51.829 -52.089  1.00  0.00     0.003 C 
HETATM   10  C   UNL     1     -40.053  52.283 -53.509  1.00  0.00     0.001 C 
HETATM   11  C   UNL     1     -41.240  53.245 -53.556  1.00  0.00     0.010 C 
ENDROOT
BRANCH   2  12
HETATM   12  C   UNL     1     -41.069  57.743 -52.069  1.00  0.00     0.338 C 
BRANCH  12  13
HETATM   13  C   UNL     1     -41.909  59.012 -52.273  1.00  0.00     0.248 C 
HETATM   14  N   UNL     1     -43.267  58.826 -52.166  1.00  0.00    -0.319 N 
HETATM   15  H   UNL     1     -43.630  58.077 -51.572  1.00  0.00     0.169 HD
HETATM   16  O   UNL     1     -41.311  60.050 -52.559  1.00  0.00    -0.271 OA
BRANCH  14  17
HETATM   17  C   UNL     1     -44.243  59.695 -52.646  1.00  0.00     0.094 A 
HETATM   18  S   UNL     1     -44.234  60.179 -54.269  1.00  0.00    -0.076 SA
HETATM   19  C   UNL     1     -45.681  61.060 -54.102  1.00  0.00    -0.012 A 
HETATM   20  C   UNL     1     -46.245  61.771 -55.292  1.00  0.00     0.057 C 
HETATM   21  C   UNL     1     -46.183  61.004 -52.808  1.00  0.00    -0.030 A 
HETATM   22  C   UNL     1     -47.441  61.697 -52.375  1.00  0.00     0.050 C 
HETATM   23  C   UNL     1     -45.342  60.179 -51.947  1.00  0.00     0.080 A 
BRANCH  23  24
HETATM   24  C   UNL     1     -45.536  59.852 -50.529  1.00  0.00     0.296 C 
HETATM   25  O   UNL     1     -46.332  58.987 -50.166  1.00  0.00    -0.259 OA
BRANCH  24  26
HETATM   26  O   UNL     1     -44.759  60.581 -49.686  1.00  0.00    -0.322 OA
HETATM   27  C   UNL     1     -45.477  61.429 -48.787  1.00  0.00     0.213 C 
ENDBRANCH  24  26
ENDBRANCH  23  24
ENDBRANCH  14  17
ENDBRANCH  12  13
ENDBRANCH   2  12
BRANCH   1  28
HETATM   28  C   UNL     1     -42.622  56.005 -54.043  1.00  0.00    -0.027 A 
HETATM   29  C   UNL     1     -41.709  56.245 -55.081  1.00  0.00     0.011 A 
HETATM   30  C   UNL     1     -42.149  56.664 -56.344  1.00  0.00     0.030 A 
HETATM   31  C   UNL     1     -43.502  56.899 -56.603  1.00  0.00     0.030 A 
HETATM   32  C   UNL     1     -44.399  56.736 -55.541  1.00  0.00     0.030 A 
HETATM   33  C   UNL     1     -43.975  56.289 -54.285  1.00  0.00     0.011 A 
BRANCH  31  34
HETATM   34  N   UNL     1     -43.991  57.245 -57.859  1.00  0.00    -0.382 N 
BRANCH  34  35
HETATM   35  C   UNL     1     -43.193  56.945 -59.058  1.00  0.00     0.118 C 
HETATM   36  C   UNL     1     -43.539  55.571 -59.617  1.00  0.00     0.026 C 
ENDBRANCH  34  35
BRANCH  34  37
HETATM   37  C   UNL     1     -44.828  58.454 -57.907  1.00  0.00     0.118 C 
HETATM   38  C   UNL     1     -44.014  59.706 -58.202  1.00  0.00     0.026 C 
ENDBRANCH  34  37
ENDBRANCH  31  34
ENDBRANCH   1  28
BRANCH   6  39
HETATM   39  O   UNL     1     -41.943  53.271 -50.749  1.00  0.00    -0.389 OA
HETATM   40  H   UNL     1     -42.274  53.678 -49.923  1.00  0.00     0.210 HD
ENDBRANCH   6  39
TORSDOF 10
ENDMDL
MODEL 4
REMARK VINA RESULT:      -7.6      2.218      3.121
REMARK  10 active torsions:
REMARK  status: ('A' for Active; 'I' for Inactive)
REMARK    1  A    between atoms: C_2  and  N_3 
REMARK    2  A    between atoms: N_3  and  C_4 
REMARK    3  A    between atoms: N_3  and  C_37 
REMARK    4  A    between atoms: C_7  and  C_8 
REMARK    5  A    between atoms: N_9  and  C_11 
REMARK    6  A    between atoms: C_11  and  C_12 
REMARK       I    between atoms: C_12  and  N_13 
REMARK    7  A    between atoms: N_13  and  C_14 
REMARK    8  A    between atoms: C_20  and  C_21 
REMARK    9  A    between atoms: C_21  and  O_22 
REMARK   10  A    between atoms: C_28  and  O_29 
ROOT
HETATM    1  C   UNL     1     -42.335  56.254 -57.647  1.00  0.00     0.228 C 
HETATM    2  N   UNL     1     -42.159  57.757 -57.476  1.00  0.00    -0.054 N 
HETATM    3  H   UNL     1     -41.220  57.872 -57.057  1.00  0.00     0.281 HD
HETATM    4  C   UNL     1     -42.045  58.484 -58.794  1.00  0.00     0.239 C 
HETATM    5  C   UNL     1     -43.274  58.231 -59.652  1.00  0.00     0.066 C 
HETATM    6  C   UNL     1     -43.463  56.734 -59.892  1.00  0.00     0.065 C 
HETATM    7  C   UNL     1     -43.569  55.965 -58.550  1.00  0.00     0.055 C 
HETATM    8  C   UNL     1     -44.702  56.471 -60.765  1.00  0.00     0.038 C 
HETATM    9  C   UNL     1     -44.911  54.981 -61.028  1.00  0.00     0.003 C 
HETATM   10  C   UNL     1     -44.948  54.182 -59.732  1.00  0.00     0.001 C 
HETATM   11  C   UNL     1     -43.729  54.454 -58.852  1.00  0.00     0.010 C 
ENDROOT
BRANCH   2  12
HETATM   12  C   UNL     1     -43.040  58.479 -56.445  1.00  0.00     0.338 C 
BRANCH  12  13
HETATM   13  C   UNL     1     -42.141  59.095 -55.362  1.00  0.00     0.248 C 
HETATM   14  N   UNL     1     -41.913  58.284 -54.275  1.00  0.00    -0.319 N 
HETATM   15  H   UNL     1     -41.935  57.269 -54.388  1.00  0.00     0.169 HD
HETATM   16  O   UNL     1     -41.755  60.252 -55.534  1.00  0.00    -0.271 OA
BRANCH  14  17
HETATM   17  C   UNL     1     -41.453  58.710 -53.032  1.00  0.00     0.094 A 
HETATM   18  S   UNL     1     -39.795  58.716 -52.690  1.00  0.00    -0.076 SA
HETATM   19  C   UNL     1     -40.027  59.418 -51.157  1.00  0.00    -0.012 A 
HETATM   20  C   UNL     1     -38.837  59.705 -50.297  1.00  0.00     0.057 C 
HETATM   21  C   UNL     1     -41.370  59.647 -50.884  1.00  0.00    -0.030 A 
HETATM   22  C   UNL     1     -41.865  60.248 -49.600  1.00  0.00     0.050 C 
HETATM   23  C   UNL     1     -42.216  59.246 -52.002  1.00  0.00     0.080 A 
BRANCH  23  24
HETATM   24  C   UNL     1     -43.676  59.344 -52.119  1.00  0.00     0.296 C 
HETATM   25  O   UNL     1     -44.255  60.429 -52.132  1.00  0.00    -0.259 OA
BRANCH  24  26
HETATM   26  O   UNL     1     -44.302  58.141 -52.216  1.00  0.00    -0.322 OA
HETATM   27  C   UNL     1     -45.210  57.847 -51.152  1.00  0.00     0.213 C 
ENDBRANCH  24  26
ENDBRANCH  23  24
ENDBRANCH  14  17
ENDBRANCH  12  13
ENDBRANCH   2  12
BRANCH   1  28
HETATM   28  C   UNL     1     -42.261  55.530 -56.311  1.00  0.00    -0.027 A 
HETATM   29  C   UNL     1     -41.067  55.029 -55.771  1.00  0.00     0.011 A 
HETATM   30  C   UNL     1     -41.042  54.447 -54.496  1.00  0.00     0.030 A 
HETATM   31  C   UNL     1     -42.206  54.306 -53.737  1.00  0.00     0.030 A 
HETATM   32  C   UNL     1     -43.408  54.734 -54.314  1.00  0.00     0.030 A 
HETATM   33  C   UNL     1     -43.440  55.344 -55.573  1.00  0.00     0.011 A 
BRANCH  31  34
HETATM   34  N   UNL     1     -42.217  53.803 -52.439  1.00  0.00    -0.382 N 
BRANCH  34  35
HETATM   35  C   UNL     1     -43.438  53.914 -51.626  1.00  0.00     0.118 C 
HETATM   36  C   UNL     1     -43.195  54.763 -50.385  1.00  0.00     0.026 C 
ENDBRANCH  34  35
BRANCH  34  37
HETATM   37  C   UNL     1     -40.936  53.867 -51.719  1.00  0.00     0.118 C 
HETATM   38  C   UNL     1     -40.265  52.504 -51.614  1.00  0.00     0.026 C 
ENDBRANCH  34  37
ENDBRANCH  31  34
ENDBRANCH   1  28
BRANCH   6  39
HETATM   39  O   UNL     1     -42.292  56.278 -60.580  1.00  0.00    -0.389 OA
HETATM   40  H   UNL     1     -41.548  56.214 -59.949  1.00  0.00     0.210 HD
ENDBRANCH   6  39
TORSDOF 10
ENDMDL
MODEL 5
REMARK VINA RESULT:      -7.6      2.871      8.079
REMARK  10 active torsions:
REMARK  status: ('A' for Active; 'I' for Inactive)
REMARK    1  A    between atoms: C_2  and  N_3 
REMARK    2  A    between atoms: N_3  and  C_4 
REMARK    3  A    between atoms: N_3  and  C_37 
REMARK    4  A    between atoms: C_7  and  C_8 
REMARK    5  A    between atoms: N_9  and  C_11 
REMARK    6  A    between atoms: C_11  and  C_12 
REMARK       I    between atoms: C_12  and  N_13 
REMARK    7  A    between atoms: N_13  and  C_14 
REMARK    8  A    between atoms: C_20  and  C_21 
REMARK    9  A    between atoms: C_21  and  O_22 
REMARK   10  A    between atoms: C_28  and  O_29 
ROOT
HETATM    1  C   UNL     1     -42.213  58.124 -53.634  1.00  0.00     0.228 C 
HETATM    2  N   UNL     1     -42.010  56.905 -52.742  1.00  0.00    -0.054 N 
HETATM    3  H   UNL     1     -41.377  56.284 -53.275  1.00  0.00     0.281 HD
HETATM    4  C   UNL     1     -41.221  57.220 -51.495  1.00  0.00     0.239 C 
HETATM    5  C   UNL     1     -41.911  58.308 -50.687  1.00  0.00     0.066 C 
HETATM    6  C   UNL     1     -42.091  59.570 -51.529  1.00  0.00     0.065 C 
HETATM    7  C   UNL     1     -42.888  59.266 -52.823  1.00  0.00     0.055 C 
HETATM    8  C   UNL     1     -42.784  60.677 -50.714  1.00  0.00     0.038 C 
HETATM    9  C   UNL     1     -42.970  61.956 -51.530  1.00  0.00     0.003 C 
HETATM   10  C   UNL     1     -43.687  61.683 -52.845  1.00  0.00     0.001 C 
HETATM   11  C   UNL     1     -43.015  60.571 -53.649  1.00  0.00     0.010 C 
ENDROOT
BRANCH   2  12
HETATM   12  C   UNL     1     -43.210  55.977 -52.498  1.00  0.00     0.338 C 
BRANCH  12  13
HETATM   13  C   UNL     1     -42.693  54.574 -52.143  1.00  0.00     0.248 C 
HETATM   14  N   UNL     1     -41.412  54.309 -52.567  1.00  0.00    -0.319 N 
HETATM   15  H   UNL     1     -40.744  55.076 -52.668  1.00  0.00     0.169 HD
HETATM   16  O   UNL     1     -43.472  53.810 -51.570  1.00  0.00    -0.271 OA
BRANCH  14  17
HETATM   17  C   UNL     1     -40.849  53.043 -52.695  1.00  0.00     0.094 A 
HETATM   18  S   UNL     1     -40.684  52.331 -54.223  1.00  0.00    -0.076 SA
HETATM   19  C   UNL     1     -39.876  50.971 -53.597  1.00  0.00    -0.012 A 
HETATM   20  C   UNL     1     -39.425  49.894 -54.532  1.00  0.00     0.057 C 
HETATM   21  C   UNL     1     -39.730  51.038 -52.217  1.00  0.00    -0.030 A 
HETATM   22  C   UNL     1     -39.064  49.969 -51.400  1.00  0.00     0.050 C 
HETATM   23  C   UNL     1     -40.289  52.275 -51.682  1.00  0.00     0.080 A 
BRANCH  23  24
HETATM   24  C   UNL     1     -40.316  52.733 -50.288  1.00  0.00     0.296 C 
HETATM   25  O   UNL     1     -40.674  51.997 -49.370  1.00  0.00    -0.259 OA
BRANCH  24  26
HETATM   26  O   UNL     1     -39.908  54.019 -50.123  1.00  0.00    -0.322 OA
HETATM   27  C   UNL     1     -40.461  54.686 -48.987  1.00  0.00     0.213 C 
ENDBRANCH  24  26
ENDBRANCH  23  24
ENDBRANCH  14  17
ENDBRANCH  12  13
ENDBRANCH   2  12
BRANCH   1  28
HETATM   28  C   UNL     1     -42.845  57.741 -54.964  1.00  0.00    -0.027 A 
HETATM   29  C   UNL     1     -44.117  58.175 -55.366  1.00  0.00     0.011 A 
HETATM   30  C   UNL     1     -44.615  57.862 -56.639  1.00  0.00     0.030 A 
HETATM   31  C   UNL     1     -43.885  57.076 -57.533  1.00  0.00     0.030 A 
HETATM   32  C   UNL     1     -42.652  56.578 -57.096  1.00  0.00     0.030 A 
HETATM   33  C   UNL     1     -42.132  56.908 -55.840  1.00  0.00     0.011 A 
BRANCH  31  34
HETATM   34  N   UNL     1     -44.307  56.802 -58.832  1.00  0.00    -0.382 N 
BRANCH  34  35
HETATM   35  C   UNL     1     -45.704  57.064 -59.213  1.00  0.00     0.118 C 
HETATM   36  C   UNL     1     -45.793  58.209 -60.214  1.00  0.00     0.026 C 
ENDBRANCH  34  35
BRANCH  34  37
HETATM   37  C   UNL     1     -43.643  55.668 -59.492  1.00  0.00     0.118 C 
HETATM   38  C   UNL     1     -44.625  54.566 -59.870  1.00  0.00     0.026 C 
ENDBRANCH  34  37
ENDBRANCH  31  34
ENDBRANCH   1  28
BRANCH   6  39
HETATM   39  O   UNL     1     -40.778  60.006 -51.901  1.00  0.00    -0.389 OA
HETATM   40  H   UNL     1     -40.638  60.921 -51.586  1.00  0.00     0.210 HD
ENDBRANCH   6  39
TORSDOF 10
ENDMDL
MODEL 6
REMARK VINA RESULT:      -7.5      2.271      7.100
REMARK  10 active torsions:
REMARK  status: ('A' for Active; 'I' for Inactive)
REMARK    1  A    between atoms: C_2  and  N_3 
REMARK    2  A    between atoms: N_3  and  C_4 
REMARK    3  A    between atoms: N_3  and  C_37 
REMARK    4  A    between atoms: C_7  and  C_8 
REMARK    5  A    between atoms: N_9  and  C_11 
REMARK    6  A    between atoms: C_11  and  C_12 
REMARK       I    between atoms: C_12  and  N_13 
REMARK    7  A    between atoms: N_13  and  C_14 
REMARK    8  A    between atoms: C_20  and  C_21 
REMARK    9  A    between atoms: C_21  and  O_22 
REMARK   10  A    between atoms: C_28  and  O_29 
ROOT
HETATM    1  C   UNL     1     -43.643  58.405 -53.326  1.00  0.00     0.228 C 
HETATM    2  N   UNL     1     -44.171  58.822 -54.693  1.00  0.00    -0.054 N 
HETATM    3  H   UNL     1     -44.743  58.023 -55.016  1.00  0.00     0.281 HD
HETATM    4  C   UNL     1     -45.165  59.955 -54.614  1.00  0.00     0.239 C 
HETATM    5  C   UNL     1     -44.541  61.166 -53.939  1.00  0.00     0.066 C 
HETATM    6  C   UNL     1     -44.042  60.806 -52.541  1.00  0.00     0.065 C 
HETATM    7  C   UNL     1     -43.029  59.634 -52.598  1.00  0.00     0.055 C 
HETATM    8  C   UNL     1     -43.415  62.030 -51.851  1.00  0.00     0.038 C 
HETATM    9  C   UNL     1     -42.913  61.700 -50.446  1.00  0.00     0.003 C 
HETATM   10  C   UNL     1     -41.969  60.505 -50.454  1.00  0.00     0.001 C 
HETATM   11  C   UNL     1     -42.579  59.292 -51.156  1.00  0.00     0.010 C 
ENDROOT
BRANCH   2  12
HETATM   12  C   UNL     1     -43.166  58.960 -55.848  1.00  0.00     0.338 C 
BRANCH  12  13
HETATM   13  C   UNL     1     -43.910  58.795 -57.181  1.00  0.00     0.248 C 
HETATM   14  N   UNL     1     -44.758  57.714 -57.236  1.00  0.00    -0.319 N 
HETATM   15  H   UNL     1     -45.189  57.366 -56.377  1.00  0.00     0.169 HD
HETATM   16  O   UNL     1     -43.648  59.594 -58.081  1.00  0.00    -0.271 OA
BRANCH  14  17
HETATM   17  C   UNL     1     -45.261  57.139 -58.399  1.00  0.00     0.094 A 
HETATM   18  S   UNL     1     -46.798  57.565 -58.969  1.00  0.00    -0.076 SA
HETATM   19  C   UNL     1     -46.638  56.607 -60.367  1.00  0.00    -0.012 A 
HETATM   20  C   UNL     1     -47.759  56.568 -61.358  1.00  0.00     0.057 C 
HETATM   21  C   UNL     1     -45.418  55.945 -60.412  1.00  0.00    -0.030 A 
HETATM   22  C   UNL     1     -45.014  55.025 -61.527  1.00  0.00     0.050 C 
HETATM   23  C   UNL     1     -44.592  56.274 -59.256  1.00  0.00     0.080 A 
BRANCH  23  24
HETATM   24  C   UNL     1     -43.236  55.804 -58.943  1.00  0.00     0.296 C 
HETATM   25  O   UNL     1     -42.956  55.312 -57.850  1.00  0.00    -0.259 OA
BRANCH  24  26
HETATM   26  O   UNL     1     -42.351  55.960 -59.962  1.00  0.00    -0.322 OA
HETATM   27  C   UNL     1     -41.813  57.277 -60.097  1.00  0.00     0.213 C 
ENDBRANCH  24  26
ENDBRANCH  23  24
ENDBRANCH  14  17
ENDBRANCH  12  13
ENDBRANCH   2  12
BRANCH   1  28
HETATM   28  C   UNL     1     -42.791  57.148 -53.419  1.00  0.00    -0.027 A 
HETATM   29  C   UNL     1     -41.430  57.162 -53.758  1.00  0.00     0.011 A 
HETATM   30  C   UNL     1     -40.672  55.983 -53.745  1.00  0.00     0.030 A 
HETATM   31  C   UNL     1     -41.249  54.750 -53.435  1.00  0.00     0.030 A 
HETATM   32  C   UNL     1     -42.625  54.729 -53.176  1.00  0.00     0.030 A 
HETATM   33  C   UNL     1     -43.385  55.903 -53.157  1.00  0.00     0.011 A 
BRANCH  31  34
HETATM   34  N   UNL     1     -40.522  53.567 -53.337  1.00  0.00    -0.382 N 
BRANCH  34  35
HETATM   35  C   UNL     1     -40.302  52.748 -54.539  1.00  0.00     0.118 C 
HETATM   36  C   UNL     1     -40.220  51.268 -54.185  1.00  0.00     0.026 C 
ENDBRANCH  34  35
BRANCH  34  37
HETATM   37  C   UNL     1     -40.642  52.848 -52.059  1.00  0.00     0.118 C 
HETATM   38  C   UNL     1     -39.856  53.522 -50.943  1.00  0.00     0.026 C 
ENDBRANCH  34  37
ENDBRANCH  31  34
ENDBRANCH   1  28
BRANCH   6  39
HETATM   39  O   UNL     1     -45.186  60.375 -51.795  1.00  0.00    -0.389 OA
HETATM   40  H   UNL     1     -44.937  59.623 -51.222  1.00  0.00     0.210 HD
ENDBRANCH   6  39
TORSDOF 10
ENDMDL
MODEL 7
REMARK VINA RESULT:      -7.5      2.797      6.518
REMARK  10 active torsions:
REMARK  status: ('A' for Active; 'I' for Inactive)
REMARK    1  A    between atoms: C_2  and  N_3 
REMARK    2  A    between atoms: N_3  and  C_4 
REMARK    3  A    between atoms: N_3  and  C_37 
REMARK    4  A    between atoms: C_7  and  C_8 
REMARK    5  A    between atoms: N_9  and  C_11 
REMARK    6  A    between atoms: C_11  and  C_12 
REMARK       I    between atoms: C_12  and  N_13 
REMARK    7  A    between atoms: N_13  and  C_14 
REMARK    8  A    between atoms: C_20  and  C_21 
REMARK    9  A    between atoms: C_21  and  O_22 
REMARK   10  A    between atoms: C_28  and  O_29 
ROOT
HETATM    1  C   UNL     1     -43.157  57.579 -56.393  1.00  0.00     0.228 C 
HETATM    2  N   UNL     1     -42.883  56.081 -56.365  1.00  0.00    -0.054 N 
HETATM    3  H   UNL     1     -43.544  55.699 -55.666  1.00  0.00     0.281 HD
HETATM    4  C   UNL     1     -43.289  55.390 -57.644  1.00  0.00     0.239 C 
HETATM    5  C   UNL     1     -42.563  55.999 -58.833  1.00  0.00     0.066 C 
HETATM    6  C   UNL     1     -42.850  57.496 -58.930  1.00  0.00     0.065 C 
HETATM    7  C   UNL     1     -42.452  58.223 -57.620  1.00  0.00     0.055 C 
HETATM    8  C   UNL     1     -42.122  58.116 -60.135  1.00  0.00     0.038 C 
HETATM    9  C   UNL     1     -42.398  59.614 -60.261  1.00  0.00     0.003 C 
HETATM   10  C   UNL     1     -42.086  60.353 -58.966  1.00  0.00     0.001 C 
HETATM   11  C   UNL     1     -42.791  59.728 -57.762  1.00  0.00     0.010 C 
ENDROOT
BRANCH   2  12
HETATM   12  C   UNL     1     -41.537  55.599 -55.802  1.00  0.00     0.338 C 
BRANCH  12  13
HETATM   13  C   UNL     1     -41.790  54.802 -54.514  1.00  0.00     0.248 C 
HETATM   14  N   UNL     1     -40.683  54.632 -53.716  1.00  0.00    -0.319 N 
HETATM   15  H   UNL     1     -39.937  55.330 -53.732  1.00  0.00     0.169 HD
HETATM   16  O   UNL     1     -42.923  54.349 -54.338  1.00  0.00    -0.271 OA
BRANCH  14  17
HETATM   17  C   UNL     1     -40.549  53.678 -52.711  1.00  0.00     0.094 A 
HETATM   18  S   UNL     1     -39.996  52.121 -53.078  1.00  0.00    -0.076 SA
HETATM   19  C   UNL     1     -39.998  51.642 -51.445  1.00  0.00    -0.012 A 
HETATM   20  C   UNL     1     -39.563  50.256 -51.089  1.00  0.00     0.057 C 
HETATM   21  C   UNL     1     -40.429  52.659 -50.602  1.00  0.00    -0.030 A 
HETATM   22  C   UNL     1     -40.539  52.511 -49.112  1.00  0.00     0.050 C 
HETATM   23  C   UNL     1     -40.737  53.874 -51.348  1.00  0.00     0.080 A 
BRANCH  23  24
HETATM   24  C   UNL     1     -41.198  55.168 -50.830  1.00  0.00     0.296 C 
HETATM   25  O   UNL     1     -40.492  55.863 -50.100  1.00  0.00    -0.259 OA
BRANCH  24  26
HETATM   26  O   UNL     1     -42.449  55.510 -51.237  1.00  0.00    -0.322 OA
HETATM   27  C   UNL     1     -43.502  54.731 -50.665  1.00  0.00     0.213 C 
ENDBRANCH  24  26
ENDBRANCH  23  24
ENDBRANCH  14  17
ENDBRANCH  12  13
ENDBRANCH   2  12
BRANCH   1  28
HETATM   28  C   UNL     1     -42.913  58.214 -55.031  1.00  0.00    -0.027 A 
HETATM   29  C   UNL     1     -43.764  58.033 -53.932  1.00  0.00     0.011 A 
HETATM   30  C   UNL     1     -43.445  58.571 -52.677  1.00  0.00     0.030 A 
HETATM   31  C   UNL     1     -42.294  59.338 -52.486  1.00  0.00     0.030 A 
HETATM   32  C   UNL     1     -41.490  59.584 -53.605  1.00  0.00     0.030 A 
HETATM   33  C   UNL     1     -41.783  59.028 -54.855  1.00  0.00     0.011 A 
BRANCH  31  34
HETATM   34  N   UNL     1     -41.899  59.830 -51.244  1.00  0.00    -0.382 N 
BRANCH  34  35
HETATM   35  C   UNL     1     -40.968  59.049 -50.417  1.00  0.00     0.118 C 
HETATM   36  C   UNL     1     -39.548  59.590 -50.529  1.00  0.00     0.026 C 
ENDBRANCH  34  35
BRANCH  34  37
HETATM   37  C   UNL     1     -42.901  60.637 -50.531  1.00  0.00     0.118 C 
HETATM   38  C   UNL     1     -43.193  61.952 -51.241  1.00  0.00     0.026 C 
ENDBRANCH  34  37
ENDBRANCH  31  34
ENDBRANCH   1  28
BRANCH   6  39
HETATM   39  O   UNL     1     -44.265  57.632 -59.108  1.00  0.00    -0.389 OA
HETATM   40  H   UNL     1     -44.447  58.391 -59.697  1.00  0.00     0.210 HD
ENDBRANCH   6  39
TORSDOF 10
ENDMDL
MODEL 8
REMARK VINA RESULT:      -7.3      1.957      5.970
REMARK  10 active torsions:
REMARK  status: ('A' for Active; 'I' for Inactive)
REMARK    1  A    between atoms: C_2  and  N_3 
REMARK    2  A    between atoms: N_3  and  C_4 
REMARK    3  A    between atoms: N_3  and  C_37 
REMARK    4  A    between atoms: C_7  and  C_8 
REMARK    5  A    between atoms: N_9  and  C_11 
REMARK    6  A    between atoms: C_11  and  C_12 
REMARK       I    between atoms: C_12  and  N_13 
REMARK    7  A    between atoms: N_13  and  C_14 
REMARK    8  A    between atoms: C_20  and  C_21 
REMARK    9  A    between atoms: C_21  and  O_22 
REMARK   10  A    between atoms: C_28  and  O_29 
ROOT
HETATM    1  C   UNL     1     -42.231  55.577 -52.703  1.00  0.00     0.228 C 
HETATM    2  N   UNL     1     -41.937  56.689 -51.704  1.00  0.00    -0.054 N 
HETATM    3  H   UNL     1     -42.832  57.198 -51.597  1.00  0.00     0.281 HD
HETATM    4  C   UNL     1     -41.664  56.167 -50.315  1.00  0.00     0.239 C 
HETATM    5  C   UNL     1     -40.491  55.199 -50.328  1.00  0.00     0.066 C 
HETATM    6  C   UNL     1     -40.764  54.038 -51.282  1.00  0.00     0.065 C 
HETATM    7  C   UNL     1     -41.060  54.553 -52.714  1.00  0.00     0.055 C 
HETATM    8  C   UNL     1     -39.582  53.052 -51.296  1.00  0.00     0.038 C 
HETATM    9  C   UNL     1     -39.831  51.874 -52.237  1.00  0.00     0.003 C 
HETATM   10  C   UNL     1     -40.197  52.344 -53.639  1.00  0.00     0.001 C 
HETATM   11  C   UNL     1     -41.357  53.339 -53.630  1.00  0.00     0.010 C 
ENDROOT
BRANCH   2  12
HETATM   12  C   UNL     1     -40.994  57.822 -52.136  1.00  0.00     0.338 C 
BRANCH  12  13
HETATM   13  C   UNL     1     -41.489  59.143 -51.529  1.00  0.00     0.248 C 
HETATM   14  N   UNL     1     -42.856  59.291 -51.509  1.00  0.00    -0.319 N 
HETATM   15  H   UNL     1     -43.453  58.463 -51.456  1.00  0.00     0.169 HD
HETATM   16  O   UNL     1     -40.637  59.958 -51.169  1.00  0.00    -0.271 OA
BRANCH  14  17
HETATM   17  C   UNL     1     -43.537  60.495 -51.355  1.00  0.00     0.094 A 
HETATM   18  S   UNL     1     -43.825  61.124 -49.810  1.00  0.00    -0.076 SA
HETATM   19  C   UNL     1     -44.535  62.542 -50.427  1.00  0.00    -0.012 A 
HETATM   20  C   UNL     1     -45.027  63.587 -49.475  1.00  0.00     0.057 C 
HETATM   21  C   UNL     1     -44.570  62.550 -51.815  1.00  0.00    -0.030 A 
HETATM   22  C   UNL     1     -45.149  63.673 -52.625  1.00  0.00     0.050 C 
HETATM   23  C   UNL     1     -43.960  61.346 -52.369  1.00  0.00     0.080 A 
BRANCH  23  24
HETATM   24  C   UNL     1     -43.780  60.983 -53.780  1.00  0.00     0.296 C 
HETATM   25  O   UNL     1     -44.725  60.632 -54.485  1.00  0.00    -0.259 OA
BRANCH  24  26
HETATM   26  O   UNL     1     -42.496  61.081 -54.214  1.00  0.00    -0.322 OA
HETATM   27  C   UNL     1     -42.084  60.051 -55.114  1.00  0.00     0.213 C 
ENDBRANCH  24  26
ENDBRANCH  23  24
ENDBRANCH  14  17
ENDBRANCH  12  13
ENDBRANCH   2  12
BRANCH   1  28
HETATM   28  C   UNL     1     -42.682  56.138 -54.043  1.00  0.00    -0.027 A 
HETATM   29  C   UNL     1     -41.888  56.106 -55.199  1.00  0.00     0.011 A 
HETATM   30  C   UNL     1     -42.387  56.560 -56.428  1.00  0.00     0.030 A 
HETATM   31  C   UNL     1     -43.672  57.097 -56.539  1.00  0.00     0.030 A 
HETATM   32  C   UNL     1     -44.430  57.201 -55.367  1.00  0.00     0.030 A 
HETATM   33  C   UNL     1     -43.954  56.724 -54.141  1.00  0.00     0.011 A 
BRANCH  31  34
HETATM   34  N   UNL     1     -44.235  57.491 -57.750  1.00  0.00    -0.382 N 
BRANCH  34  35
HETATM   35  C   UNL     1     -43.420  57.463 -58.974  1.00  0.00     0.118 C 
HETATM   36  C   UNL     1     -43.765  56.254 -59.835  1.00  0.00     0.026 C 
ENDBRANCH  34  35
BRANCH  34  37
HETATM   37  C   UNL     1     -45.263  58.540 -57.663  1.00  0.00     0.118 C 
HETATM   38  C   UNL     1     -46.616  58.065 -58.177  1.00  0.00     0.026 C 
ENDBRANCH  34  37
ENDBRANCH  31  34
ENDBRANCH   1  28
BRANCH   6  39
HETATM   39  O   UNL     1     -41.933  53.370 -50.793  1.00  0.00    -0.389 OA
HETATM   40  H   UNL     1     -42.634  54.029 -50.616  1.00  0.00     0.210 HD
ENDBRANCH   6  39
TORSDOF 10
ENDMDL
MODEL 9
REMARK VINA RESULT:      -7.3      2.654      6.845
REMARK  10 active torsions:
REMARK  status: ('A' for Active; 'I' for Inactive)
REMARK    1  A    between atoms: C_2  and  N_3 
REMARK    2  A    between atoms: N_3  and  C_4 
REMARK    3  A    between atoms: N_3  and  C_37 
REMARK    4  A    between atoms: C_7  and  C_8 
REMARK    5  A    between atoms: N_9  and  C_11 
REMARK    6  A    between atoms: C_11  and  C_12 
REMARK       I    between atoms: C_12  and  N_13 
REMARK    7  A    between atoms: N_13  and  C_14 
REMARK    8  A    between atoms: C_20  and  C_21 
REMARK    9  A    between atoms: C_21  and  O_22 
REMARK   10  A    between atoms: C_28  and  O_29 
ROOT
HETATM    1  C   UNL     1     -42.699  56.769 -52.614  1.00  0.00     0.228 C 
HETATM    2  N   UNL     1     -43.138  56.988 -54.056  1.00  0.00    -0.054 N 
HETATM    3  H   UNL     1     -43.765  56.194 -54.270  1.00  0.00     0.281 HD
HETATM    4  C   UNL     1     -44.031  58.193 -54.218  1.00  0.00     0.239 C 
HETATM    5  C   UNL     1     -43.330  59.448 -53.723  1.00  0.00     0.066 C 
HETATM    6  C   UNL     1     -42.915  59.292 -52.261  1.00  0.00     0.065 C 
HETATM    7  C   UNL     1     -42.007  58.051 -52.071  1.00  0.00     0.055 C 
HETATM    8  C   UNL     1     -42.209  60.563 -51.754  1.00  0.00     0.038 C 
HETATM    9  C   UNL     1     -41.790  60.438 -50.290  1.00  0.00     0.003 C 
HETATM   10  C   UNL     1     -40.954  59.188 -50.051  1.00  0.00     0.001 C 
HETATM   11  C   UNL     1     -41.641  57.925 -50.571  1.00  0.00     0.010 C 
ENDROOT
BRANCH   2  12
HETATM   12  C   UNL     1     -42.083  56.847 -55.165  1.00  0.00     0.338 C 
BRANCH  12  13
HETATM   13  C   UNL     1     -42.724  56.162 -56.381  1.00  0.00     0.248 C 
HETATM   14  N   UNL     1     -42.938  56.988 -57.460  1.00  0.00    -0.319 N 
HETATM   15  H   UNL     1     -42.331  57.798 -57.605  1.00  0.00     0.169 HD
HETATM   16  O   UNL     1     -43.031  54.974 -56.269  1.00  0.00    -0.271 OA
BRANCH  14  17
HETATM   17  C   UNL     1     -43.803  56.728 -58.519  1.00  0.00     0.094 A 
HETATM   18  S   UNL     1     -43.379  55.605 -59.713  1.00  0.00    -0.076 SA
HETATM   19  C   UNL     1     -44.875  55.758 -60.508  1.00  0.00    -0.012 A 
HETATM   20  C   UNL     1     -45.137  54.944 -61.737  1.00  0.00     0.057 C 
HETATM   21  C   UNL     1     -45.712  56.671 -59.880  1.00  0.00    -0.030 A 
HETATM   22  C   UNL     1     -47.090  57.009 -60.370  1.00  0.00     0.050 C 
HETATM   23  C   UNL     1     -45.086  57.233 -58.688  1.00  0.00     0.080 A 
BRANCH  23  24
HETATM   24  C   UNL     1     -45.643  58.207 -57.741  1.00  0.00     0.296 C 
HETATM   25  O   UNL     1     -46.691  57.995 -57.133  1.00  0.00    -0.259 OA
BRANCH  24  26
HETATM   26  O   UNL     1     -44.893  59.333 -57.607  1.00  0.00    -0.322 OA
HETATM   27  C   UNL     1     -45.276  60.416 -58.456  1.00  0.00     0.213 C 
ENDBRANCH  24  26
ENDBRANCH  23  24
ENDBRANCH  14  17
ENDBRANCH  12  13
ENDBRANCH   2  12
BRANCH   1  28
HETATM   28  C   UNL     1     -41.957  55.450 -52.452  1.00  0.00    -0.027 A 
HETATM   29  C   UNL     1     -42.155  54.582 -51.368  1.00  0.00     0.011 A 
HETATM   30  C   UNL     1     -41.508  53.340 -51.314  1.00  0.00     0.030 A 
HETATM   31  C   UNL     1     -40.615  52.939 -52.311  1.00  0.00     0.030 A 
HETATM   32  C   UNL     1     -40.360  53.843 -53.349  1.00  0.00     0.030 A 
HETATM   33  C   UNL     1     -41.022  55.073 -53.429  1.00  0.00     0.011 A 
BRANCH  31  34
HETATM   34  N   UNL     1     -40.008  51.687 -52.336  1.00  0.00    -0.382 N 
BRANCH  34  35
HETATM   35  C   UNL     1     -39.452  51.123 -51.096  1.00  0.00     0.118 C 
HETATM   36  C   UNL     1     -39.752  49.633 -50.988  1.00  0.00     0.026 C 
ENDBRANCH  34  35
BRANCH  34  37
HETATM   37  C   UNL     1     -39.319  51.337 -53.588  1.00  0.00     0.118 C 
HETATM   38  C   UNL     1     -40.108  50.333 -54.419  1.00  0.00     0.026 C 
ENDBRANCH  34  37
ENDBRANCH  31  34
ENDBRANCH   1  28
BRANCH   6  39
HETATM   39  O   UNL     1     -44.119  59.088 -51.513  1.00  0.00    -0.389 OA
HETATM   40  H   UNL     1     -44.386  59.928 -51.089  1.00  0.00     0.210 HD
ENDBRANCH   6  39
TORSDOF 10
ENDMDL
MODEL 10
REMARK VINA RESULT:      -7.1      2.592      7.701
REMARK  10 active torsions:
REMARK  status: ('A' for Active; 'I' for Inactive)
REMARK    1  A    between atoms: C_2  and  N_3 
REMARK    2  A    between atoms: N_3  and  C_4 
REMARK    3  A    between atoms: N_3  and  C_37 
REMARK    4  A    between atoms: C_7  and  C_8 
REMARK    5  A    between atoms: N_9  and  C_11 
REMARK    6  A    between atoms: C_11  and  C_12 
REMARK       I    between atoms: C_12  and  N_13 
REMARK    7  A    between atoms: N_13  and  C_14 
REMARK    8  A    between atoms: C_20  and  C_21 
REMARK    9  A    between atoms: C_21  and  O_22 
REMARK   10  A    between atoms: C_28  and  O_29 
ROOT
HETATM    1  C   UNL     1     -43.400  60.258 -53.031  1.00  0.00     0.228 C 
HETATM    2  N   UNL     1     -42.567  59.578 -51.951  1.00  0.00    -0.054 N 
HETATM    3  H   UNL     1     -41.660  59.367 -52.404  1.00  0.00     0.281 HD
HETATM    4  C   UNL     1     -42.188  60.514 -50.831  1.00  0.00     0.239 C 
HETATM    5  C   UNL     1     -43.432  61.108 -50.188  1.00  0.00     0.066 C 
HETATM    6  C   UNL     1     -44.275  61.845 -51.227  1.00  0.00     0.065 C 
HETATM    7  C   UNL     1     -44.664  60.903 -52.395  1.00  0.00     0.055 C 
HETATM    8  C   UNL     1     -45.532  62.453 -50.581  1.00  0.00     0.038 C 
HETATM    9  C   UNL     1     -46.391  63.204 -51.597  1.00  0.00     0.003 C 
HETATM   10  C   UNL     1     -46.734  62.330 -52.797  1.00  0.00     0.001 C 
HETATM   11  C   UNL     1     -45.490  61.707 -53.430  1.00  0.00     0.010 C 
ENDROOT
BRANCH   2  12
HETATM   12  C   UNL     1     -42.998  58.182 -51.473  1.00  0.00     0.338 C 
BRANCH  12  13
HETATM   13  C   UNL     1     -42.069  57.131 -52.097  1.00  0.00     0.248 C 
HETATM   14  N   UNL     1     -42.618  55.875 -52.215  1.00  0.00    -0.319 N 
HETATM   15  H   UNL     1     -43.629  55.774 -52.322  1.00  0.00     0.169 HD
HETATM   16  O   UNL     1     -40.922  57.482 -52.382  1.00  0.00    -0.271 OA
BRANCH  14  17
HETATM   17  C   UNL     1     -41.904  54.695 -52.401  1.00  0.00     0.094 A 
HETATM   18  S   UNL     1     -41.613  54.109 -53.963  1.00  0.00    -0.076 SA
HETATM   19  C   UNL     1     -40.666  52.815 -53.393  1.00  0.00    -0.012 A 
HETATM   20  C   UNL     1     -40.064  51.861 -54.376  1.00  0.00     0.057 C 
HETATM   21  C   UNL     1     -40.568  52.808 -52.007  1.00  0.00    -0.030 A 
HETATM   22  C   UNL     1     -39.802  51.774 -51.234  1.00  0.00     0.050 C 
HETATM   23  C   UNL     1     -41.285  53.933 -51.418  1.00  0.00     0.080 A 
BRANCH  23  24
HETATM   24  C   UNL     1     -41.406  54.293 -50.000  1.00  0.00     0.296 C 
HETATM   25  O   UNL     1     -42.501  54.453 -49.462  1.00  0.00    -0.259 OA
BRANCH  24  26
HETATM   26  O   UNL     1     -40.213  54.420 -49.361  1.00  0.00    -0.322 OA
HETATM   27  C   UNL     1     -40.210  53.987 -48.000  1.00  0.00     0.213 C 
ENDBRANCH  24  26
ENDBRANCH  23  24
ENDBRANCH  14  17
ENDBRANCH  12  13
ENDBRANCH   2  12
BRANCH   1  28
HETATM   28  C   UNL     1     -43.607  59.345 -54.230  1.00  0.00    -0.027 A 
HETATM   29  C   UNL     1     -44.767  58.579 -54.425  1.00  0.00     0.011 A 
HETATM   30  C   UNL     1     -44.942  57.822 -55.591  1.00  0.00     0.030 A 
HETATM   31  C   UNL     1     -43.956  57.768 -56.580  1.00  0.00     0.030 A 
HETATM   32  C   UNL     1     -42.768  58.469 -56.344  1.00  0.00     0.030 A 
HETATM   33  C   UNL     1     -42.594  59.252 -55.197  1.00  0.00     0.011 A 
BRANCH  31  34
HETATM   34  N   UNL     1     -44.117  57.090 -57.785  1.00  0.00    -0.382 N 
BRANCH  34  35
HETATM   35  C   UNL     1     -43.112  56.100 -58.202  1.00  0.00     0.118 C 
HETATM   36  C   UNL     1     -42.700  56.315 -59.653  1.00  0.00     0.026 C 
ENDBRANCH  34  35
BRANCH  34  37
HETATM   37  C   UNL     1     -44.786  57.844 -58.856  1.00  0.00     0.118 C 
HETATM   38  C   UNL     1     -46.253  57.461 -59.001  1.00  0.00     0.026 C 
ENDBRANCH  34  37
ENDBRANCH  31  34
ENDBRANCH   1  28
BRANCH   6  39
HETATM   39  O   UNL     1     -43.455  62.896 -51.750  1.00  0.00    -0.389 OA
HETATM   40  H   UNL     1     -42.570  62.856 -51.335  1.00  0.00     0.210 HD
ENDBRANCH   6  39
TORSDOF 10
ENDMDL
